MODEL 1
REMARK VINA RESULT:      -8.1      0.000      0.000
REMARK  Name = 5486546
REMARK  11 active torsions:
REMARK  status: ('A' for Active; 'I' for Inactive)
REMARK    1  A    between atoms: C_1  and  C_4
REMARK    2  A    between atoms: C_1  and  C_19
REMARK    3  A    between atoms: C_9  and  C_12
REMARK    4  A    between atoms: C_9  and  C_16
REMARK    5  A    between atoms: C_12  and  O_13
REMARK    6  A    between atoms: C_16  and  O_17
REMARK    7  A    between atoms: C_19  and  N_21
REMARK    8  A    between atoms: N_21  and  C_24
REMARK    9  A    between atoms: C_24  and  C_25
REMARK   10  A    between atoms: C_25  and  C_27
REMARK   11  A    between atoms: C_25  and  O_33
REMARK                            x       y       z     vdW  Elec       q    Type
REMARK                         _______ _______ _______ _____ _____    ______ ____
ROOT
ATOM      1  C   UNL     1     -36.012  24.326   5.247  0.00  0.00    +0.005 C 
ENDROOT
BRANCH   1   4
ATOM      2  O   UNL     1     -32.332  27.301   6.665  0.00  0.00    -0.430 OA
ATOM      3  O   UNL     1     -32.177  28.334   4.504  0.00  0.00    -0.430 OA
ATOM      4  C   UNL     1     -35.001  25.399   5.013  0.00  0.00    -0.021 C 
ATOM      5  C   UNL     1     -34.154  25.791   6.052  0.00  0.00    +0.036 C 
ATOM      6  C   UNL     1     -33.237  26.785   5.786  0.00  0.00    +0.177 C 
ATOM      7  C   UNL     1     -33.148  27.378   4.545  0.00  0.00    +0.177 C 
ATOM      8  C   UNL     1     -34.910  26.004   3.747  0.00  0.00    -0.001 C 
ATOM      9  C   UNL     1     -31.664  28.269   5.843  0.00  0.00    +0.454 C 
ATOM     10  C   UNL     1     -33.971  27.009   3.503  0.00  0.00    +0.040 C 
BRANCH   9  12
ATOM     11  O   UNL     1     -29.539  27.965   4.731  0.00  0.00    -0.241 OA
ATOM     12  C   UNL     1     -30.222  27.874   5.740  0.00  0.00    +0.404 C 
BRANCH  12  13
ATOM     13  O   UNL     1     -29.771  27.396   6.926  0.00  0.00    -0.475 OA
ATOM     14  H   UNL     1     -28.902  27.598   7.213  0.00  0.00    +0.295 HD
ENDBRANCH  12  13
ENDBRANCH   9  12
BRANCH   9  16
ATOM     15  O   UNL     1     -32.320  30.596   5.877  0.00  0.00    -0.241 OA
ATOM     16  C   UNL     1     -31.865  29.622   6.457  0.00  0.00    +0.404 C 
BRANCH  16  17
ATOM     17  O   UNL     1     -31.468  29.623   7.753  0.00  0.00    -0.475 OA
ATOM     18  H   UNL     1     -32.097  29.502   8.436  0.00  0.00    +0.295 HD
ENDBRANCH  16  17
ENDBRANCH   9  16
ENDBRANCH   1   4
BRANCH   1  19
ATOM     19  C   UNL     1     -35.485  22.893   4.999  0.00  0.00    -0.057 C 
ATOM     20  C   UNL     1     -35.245  22.130   6.302  0.00  0.00    -0.023 C 
BRANCH  19  21
ATOM     21  N   UNL     1     -36.445  22.135   4.191  0.00  0.00    +0.387 N 
ATOM     22  H   UNL     1     -37.392  22.407   4.453  0.00  0.00    -0.084 HD
ATOM     23  H   UNL     1     -36.304  21.140   4.360  0.00  0.00    -0.084 HD
BRANCH  21  24
ATOM     24  C   UNL     1     -36.247  22.402   2.776  0.00  0.00    -0.047 C 
BRANCH  24  25
ATOM     25  C   UNL     1     -36.252  21.098   1.969  0.00  0.00    +0.112 C 
BRANCH  25  27
ATOM     26 CL   UNL     1     -32.210  17.882   1.379  0.00  0.00    -0.082 Cl
ATOM     27  C   UNL     1     -34.899  20.821   1.353  0.00  0.00    +0.003 C 
ATOM     28  C   UNL     1     -34.264  19.622   1.625  0.00  0.00    +0.009 C 
ATOM     29  C   UNL     1     -34.326  21.773   0.526  0.00  0.00    -0.002 C 
ATOM     30  C   UNL     1     -33.017  19.366   1.054  0.00  0.00    +0.057 C 
ATOM     31  C   UNL     1     -33.079  21.517  -0.044  0.00  0.00    +0.001 C 
ATOM     32  C   UNL     1     -32.425  20.314   0.220  0.00  0.00    +0.011 C 
ENDBRANCH  25  27
BRANCH  25  33
ATOM     33  O   UNL     1     -36.593  19.997   2.810  0.00  0.00    -0.382 OA
ATOM     34  H   UNL     1     -36.349  19.168   2.372  0.00  0.00    +0.211 HD
ENDBRANCH  25  33
ENDBRANCH  24  25
ENDBRANCH  21  24
ENDBRANCH  19  21
ENDBRANCH   1  19
TORSDOF 11
ENDMDL
MODEL 2
REMARK VINA RESULT:      -8.0      0.949      1.304
REMARK  Name = 5486546
REMARK  11 active torsions:
REMARK  status: ('A' for Active; 'I' for Inactive)
REMARK    1  A    between atoms: C_1  and  C_4
REMARK    2  A    between atoms: C_1  and  C_19
REMARK    3  A    between atoms: C_9  and  C_12
REMARK    4  A    between atoms: C_9  and  C_16
REMARK    5  A    between atoms: C_12  and  O_13
REMARK    6  A    between atoms: C_16  and  O_17
REMARK    7  A    between atoms: C_19  and  N_21
REMARK    8  A    between atoms: N_21  and  C_24
REMARK    9  A    between atoms: C_24  and  C_25
REMARK   10  A    between atoms: C_25  and  C_27
REMARK   11  A    between atoms: C_25  and  O_33
REMARK                            x       y       z     vdW  Elec       q    Type
REMARK                         _______ _______ _______ _____ _____    ______ ____
ROOT
ATOM      1  C   UNL     1     -36.009  24.347   5.194  0.00  0.00    +0.005 C 
ENDROOT
BRANCH   1   4
ATOM      2  O   UNL     1     -32.318  27.297   6.638  0.00  0.00    -0.430 OA
ATOM      3  O   UNL     1     -32.188  28.378   4.500  0.00  0.00    -0.430 OA
ATOM      4  C   UNL     1     -35.002  25.427   4.973  0.00  0.00    -0.021 C 
ATOM      5  C   UNL     1     -34.144  25.798   6.011  0.00  0.00    +0.036 C 
ATOM      6  C   UNL     1     -33.231  26.799   5.758  0.00  0.00    +0.177 C 
ATOM      7  C   UNL     1     -33.157  27.419   4.530  0.00  0.00    +0.177 C 
ATOM      8  C   UNL     1     -34.926  26.060   3.720  0.00  0.00    -0.001 C 
ATOM      9  C   UNL     1     -31.661  28.284   5.831  0.00  0.00    +0.454 C 
ATOM     10  C   UNL     1     -33.991  27.072   3.489  0.00  0.00    +0.040 C 
BRANCH   9  12
ATOM     11  O   UNL     1     -29.559  27.969   4.678  0.00  0.00    -0.241 OA
ATOM     12  C   UNL     1     -30.219  27.894   5.703  0.00  0.00    +0.404 C 
BRANCH  12  13
ATOM     13  O   UNL     1     -29.739  27.440   6.887  0.00  0.00    -0.475 OA
ATOM     14  H   UNL     1     -28.962  27.816   7.253  0.00  0.00    +0.295 HD
ENDBRANCH  12  13
ENDBRANCH   9  12
BRANCH   9  16
ATOM     15  O   UNL     1     -32.276  30.621   5.911  0.00  0.00    -0.241 OA
ATOM     16  C   UNL     1     -31.856  29.623   6.477  0.00  0.00    +0.404 C 
BRANCH  16  17
ATOM     17  O   UNL     1     -31.499  29.579   7.784  0.00  0.00    -0.475 OA
ATOM     18  H   UNL     1     -31.914  28.971   8.363  0.00  0.00    +0.295 HD
ENDBRANCH  16  17
ENDBRANCH   9  16
ENDBRANCH   1   4
BRANCH   1  19
ATOM     19  C   UNL     1     -35.463  22.917   4.972  0.00  0.00    -0.057 C 
ATOM     20  C   UNL     1     -35.300  22.148   6.282  0.00  0.00    -0.023 C 
BRANCH  19  21
ATOM     21  N   UNL     1     -36.371  22.161   4.104  0.00  0.00    +0.387 N 
ATOM     22  H   UNL     1     -37.328  22.474   4.265  0.00  0.00    -0.084 HD
ATOM     23  H   UNL     1     -36.283  21.168   4.321  0.00  0.00    -0.084 HD
BRANCH  21  24
ATOM     24  C   UNL     1     -36.031  22.364   2.705  0.00  0.00    -0.047 C 
BRANCH  24  25
ATOM     25  C   UNL     1     -36.088  21.042   1.932  0.00  0.00    +0.112 C 
BRANCH  25  27
ATOM     26 CL   UNL     1     -31.912  22.372  -0.867  0.00  0.00    -0.082 Cl
ATOM     27  C   UNL     1     -34.733  20.668   1.372  0.00  0.00    +0.003 C 
ATOM     28  C   UNL     1     -34.041  21.589   0.604  0.00  0.00    +0.009 C 
ATOM     29  C   UNL     1     -34.214  19.413   1.641  0.00  0.00    -0.002 C 
ATOM     30  C   UNL     1     -32.790  21.244   0.090  0.00  0.00    +0.057 C 
ATOM     31  C   UNL     1     -32.964  19.069   1.127  0.00  0.00    +0.001 C 
ATOM     32  C   UNL     1     -32.253  19.984   0.351  0.00  0.00    +0.011 C 
ENDBRANCH  25  27
BRANCH  25  33
ATOM     33  O   UNL     1     -36.523  19.986   2.788  0.00  0.00    -0.382 OA
ATOM     34  H   UNL     1     -36.823  20.357   3.632  0.00  0.00    +0.211 HD
ENDBRANCH  25  33
ENDBRANCH  24  25
ENDBRANCH  21  24
ENDBRANCH  19  21
ENDBRANCH   1  19
TORSDOF 11
ENDMDL
MODEL 3
REMARK VINA RESULT:      -7.4      2.913      4.816
REMARK  Name = 5486546
REMARK  11 active torsions:
REMARK  status: ('A' for Active; 'I' for Inactive)
REMARK    1  A    between atoms: C_1  and  C_4
REMARK    2  A    between atoms: C_1  and  C_19
REMARK    3  A    between atoms: C_9  and  C_12
REMARK    4  A    between atoms: C_9  and  C_16
REMARK    5  A    between atoms: C_12  and  O_13
REMARK    6  A    between atoms: C_16  and  O_17
REMARK    7  A    between atoms: C_19  and  N_21
REMARK    8  A    between atoms: N_21  and  C_24
REMARK    9  A    between atoms: C_24  and  C_25
REMARK   10  A    between atoms: C_25  and  C_27
REMARK   11  A    between atoms: C_25  and  O_33
REMARK                            x       y       z     vdW  Elec       q    Type
REMARK                         _______ _______ _______ _____ _____    ______ ____
ROOT
ATOM      1  C   UNL     1     -35.521  21.633   3.935  0.00  0.00    +0.005 C 
ENDROOT
BRANCH   1   4
ATOM      2  O   UNL     1     -33.728  26.085   2.765  0.00  0.00    -0.430 OA
ATOM      3  O   UNL     1     -34.794  27.137   4.640  0.00  0.00    -0.430 OA
ATOM      4  C   UNL     1     -35.349  23.099   4.154  0.00  0.00    -0.021 C 
ATOM      5  C   UNL     1     -34.570  23.845   3.267  0.00  0.00    +0.036 C 
ATOM      6  C   UNL     1     -34.443  25.196   3.511  0.00  0.00    +0.177 C 
ATOM      7  C   UNL     1     -35.055  25.800   4.588  0.00  0.00    +0.177 C 
ATOM      8  C   UNL     1     -35.973  23.716   5.253  0.00  0.00    -0.001 C 
ATOM      9  C   UNL     1     -33.965  27.305   3.480  0.00  0.00    +0.454 C 
ATOM     10  C   UNL     1     -35.828  25.086   5.478  0.00  0.00    +0.040 C 
BRANCH   9  12
ATOM     11  O   UNL     1     -34.596  28.247   1.345  0.00  0.00    -0.241 OA
ATOM     12  C   UNL     1     -34.683  28.249   2.563  0.00  0.00    +0.404 C 
BRANCH  12  13
ATOM     13  O   UNL     1     -35.447  29.116   3.272  0.00  0.00    -0.475 OA
ATOM     14  H   UNL     1     -35.107  29.512   4.050  0.00  0.00    +0.295 HD
ENDBRANCH  12  13
ENDBRANCH   9  12
BRANCH   9  16
ATOM     15  O   UNL     1     -31.566  27.286   3.782  0.00  0.00    -0.241 OA
ATOM     16  C   UNL     1     -32.644  27.833   3.956  0.00  0.00    +0.404 C 
BRANCH  16  17
ATOM     17  O   UNL     1     -32.809  29.006   4.615  0.00  0.00    -0.475 OA
ATOM     18  H   UNL     1     -32.476  29.106   5.485  0.00  0.00    +0.295 HD
ENDBRANCH  16  17
ENDBRANCH   9  16
ENDBRANCH   1   4
BRANCH   1  19
ATOM     19  C   UNL     1     -35.832  21.243   2.471  0.00  0.00    -0.057 C 
ATOM     20  C   UNL     1     -34.771  20.315   1.880  0.00  0.00    -0.023 C 
BRANCH  19  21
ATOM     21  N   UNL     1     -37.130  20.567   2.393  0.00  0.00    +0.387 N 
ATOM     22  H   UNL     1     -37.544  20.528   3.325  0.00  0.00    -0.084 HD
ATOM     23  H   UNL     1     -36.989  19.624   2.030  0.00  0.00    -0.084 HD
BRANCH  21  24
ATOM     24  C   UNL     1     -38.028  21.282   1.502  0.00  0.00    -0.047 C 
BRANCH  24  25
ATOM     25  C   UNL     1     -38.929  22.241   2.289  0.00  0.00    +0.112 C 
BRANCH  25  27
ATOM     26 CL   UNL     1     -36.189  25.801  -0.329  0.00  0.00    -0.082 Cl
ATOM     27  C   UNL     1     -38.465  23.674   2.155  0.00  0.00    +0.003 C 
ATOM     28  C   UNL     1     -37.641  24.023   1.100  0.00  0.00    +0.009 C 
ATOM     29  C   UNL     1     -38.879  24.608   3.090  0.00  0.00    -0.002 C 
ATOM     30  C   UNL     1     -37.215  25.345   0.975  0.00  0.00    +0.057 C 
ATOM     31  C   UNL     1     -38.453  25.930   2.966  0.00  0.00    +0.001 C 
ATOM     32  C   UNL     1     -37.621  26.299   1.909  0.00  0.00    +0.011 C 
ENDBRANCH  25  27
BRANCH  25  33
ATOM     33  O   UNL     1     -40.272  22.160   1.814  0.00  0.00    -0.382 OA
ATOM     34  H   UNL     1     -40.710  23.017   1.933  0.00  0.00    +0.211 HD
ENDBRANCH  25  33
ENDBRANCH  24  25
ENDBRANCH  21  24
ENDBRANCH  19  21
ENDBRANCH   1  19
TORSDOF 11
ENDMDL
MODEL 4
REMARK VINA RESULT:      -7.3      1.051      2.230
REMARK  Name = 5486546
REMARK  11 active torsions:
REMARK  status: ('A' for Active; 'I' for Inactive)
REMARK    1  A    between atoms: C_1  and  C_4
REMARK    2  A    between atoms: C_1  and  C_19
REMARK    3  A    between atoms: C_9  and  C_12
REMARK    4  A    between atoms: C_9  and  C_16
REMARK    5  A    between atoms: C_12  and  O_13
REMARK    6  A    between atoms: C_16  and  O_17
REMARK    7  A    between atoms: C_19  and  N_21
REMARK    8  A    between atoms: N_21  and  C_24
REMARK    9  A    between atoms: C_24  and  C_25
REMARK   10  A    between atoms: C_25  and  C_27
REMARK   11  A    between atoms: C_25  and  O_33
REMARK                            x       y       z     vdW  Elec       q    Type
REMARK                         _______ _______ _______ _____ _____    ______ ____
ROOT
ATOM      1  C   UNL     1     -35.132  24.206   3.248  0.00  0.00    +0.005 C 
ENDROOT
BRANCH   1   4
ATOM      2  O   UNL     1     -32.059  28.022   3.883  0.00  0.00    -0.430 OA
ATOM      3  O   UNL     1     -32.444  28.090   6.251  0.00  0.00    -0.430 OA
ATOM      4  C   UNL     1     -34.432  25.228   4.080  0.00  0.00    -0.021 C 
ATOM      5  C   UNL     1     -33.560  26.136   3.475  0.00  0.00    +0.036 C 
ATOM      6  C   UNL     1     -32.939  27.062   4.285  0.00  0.00    +0.177 C 
ATOM      7  C   UNL     1     -33.160  27.101   5.645  0.00  0.00    +0.177 C 
ATOM      8  C   UNL     1     -34.657  25.269   5.468  0.00  0.00    -0.001 C 
ATOM      9  C   UNL     1     -31.762  28.669   5.128  0.00  0.00    +0.454 C 
ATOM     10  C   UNL     1     -34.015  26.217   6.267  0.00  0.00    +0.040 C 
BRANCH   9  12
ATOM     11  O   UNL     1     -33.287  30.462   4.574  0.00  0.00    -0.241 OA
ATOM     12  C   UNL     1     -32.215  30.095   5.030  0.00  0.00    +0.404 C 
BRANCH  12  13
ATOM     13  O   UNL     1     -31.266  30.932   5.517  0.00  0.00    -0.475 OA
ATOM     14  H   UNL     1     -31.266  31.836   5.267  0.00  0.00    +0.295 HD
ENDBRANCH  12  13
ENDBRANCH   9  12
BRANCH   9  16
ATOM     15  O   UNL     1     -29.420  28.585   4.535  0.00  0.00    -0.241 OA
ATOM     16  C   UNL     1     -30.292  28.532   5.389  0.00  0.00    +0.404 C 
BRANCH  16  17
ATOM     17  O   UNL     1     -30.057  28.335   6.709  0.00  0.00    -0.475 OA
ATOM     18  H   UNL     1     -30.757  28.081   7.277  0.00  0.00    +0.295 HD
ENDBRANCH  16  17
ENDBRANCH   9  16
ENDBRANCH   1   4
BRANCH   1  19
ATOM     19  C   UNL     1     -36.637  24.052   3.568  0.00  0.00    -0.057 C 
ATOM     20  C   UNL     1     -37.526  24.567   2.436  0.00  0.00    -0.023 C 
BRANCH  19  21
ATOM     21  N   UNL     1     -36.961  22.642   3.803  0.00  0.00    +0.387 N 
ATOM     22  H   UNL     1     -37.737  22.370   3.199  0.00  0.00    -0.084 HD
ATOM     23  H   UNL     1     -37.219  22.522   4.782  0.00  0.00    -0.084 HD
BRANCH  21  24
ATOM     24  C   UNL     1     -35.815  21.797   3.514  0.00  0.00    -0.047 C 
BRANCH  24  25
ATOM     25  C   UNL     1     -36.046  20.980   2.238  0.00  0.00    +0.112 C 
BRANCH  25  27
ATOM     26 CL   UNL     1     -32.054  17.835   1.140  0.00  0.00    -0.082 Cl
ATOM     27  C   UNL     1     -34.754  20.744   1.488  0.00  0.00    +0.003 C 
ATOM     28  C   UNL     1     -34.089  19.541   1.649  0.00  0.00    +0.009 C 
ATOM     29  C   UNL     1     -34.266  21.735   0.654  0.00  0.00    -0.002 C 
ATOM     30  C   UNL     1     -32.898  19.322   0.955  0.00  0.00    +0.057 C 
ATOM     31  C   UNL     1     -33.076  21.518  -0.039  0.00  0.00    +0.001 C 
ATOM     32  C   UNL     1     -32.392  20.311   0.111  0.00  0.00    +0.011 C 
ENDBRANCH  25  27
BRANCH  25  33
ATOM     33  O   UNL     1     -36.613  19.710   2.560  0.00  0.00    -0.382 OA
ATOM     34  H   UNL     1     -36.718  19.188   1.750  0.00  0.00    +0.211 HD
ENDBRANCH  25  33
ENDBRANCH  24  25
ENDBRANCH  21  24
ENDBRANCH  19  21
ENDBRANCH   1  19
TORSDOF 11
ENDMDL
MODEL 5
REMARK VINA RESULT:      -7.3      7.796      9.395
REMARK  Name = 5486546
REMARK  11 active torsions:
REMARK  status: ('A' for Active; 'I' for Inactive)
REMARK    1  A    between atoms: C_1  and  C_4
REMARK    2  A    between atoms: C_1  and  C_19
REMARK    3  A    between atoms: C_9  and  C_12
REMARK    4  A    between atoms: C_9  and  C_16
REMARK    5  A    between atoms: C_12  and  O_13
REMARK    6  A    between atoms: C_16  and  O_17
REMARK    7  A    between atoms: C_19  and  N_21
REMARK    8  A    between atoms: N_21  and  C_24
REMARK    9  A    between atoms: C_24  and  C_25
REMARK   10  A    between atoms: C_25  and  C_27
REMARK   11  A    between atoms: C_25  and  O_33
REMARK                            x       y       z     vdW  Elec       q    Type
REMARK                         _______ _______ _______ _____ _____    ______ ____
ROOT
ATOM      1  C   UNL     1     -41.200  26.220   2.401  0.00  0.00    +0.005 C 
ENDROOT
BRANCH   1   4
ATOM      2  O   UNL     1     -42.815  29.699   5.515  0.00  0.00    -0.430 OA
ATOM      3  O   UNL     1     -45.098  28.986   5.315  0.00  0.00    -0.430 OA
ATOM      4  C   UNL     1     -42.266  26.935   3.164  0.00  0.00    -0.021 C 
ATOM      5  C   UNL     1     -41.926  28.011   3.987  0.00  0.00    +0.036 C 
ATOM      6  C   UNL     1     -42.946  28.639   4.669  0.00  0.00    +0.177 C 
ATOM      7  C   UNL     1     -44.257  28.229   4.554  0.00  0.00    +0.177 C 
ATOM      8  C   UNL     1     -43.604  26.517   3.046  0.00  0.00    -0.001 C 
ATOM      9  C   UNL     1     -44.178  29.914   5.908  0.00  0.00    +0.454 C 
ATOM     10  C   UNL     1     -44.619  27.170   3.749  0.00  0.00    +0.040 C 
BRANCH   9  12
ATOM     11  O   UNL     1     -44.212  31.815   4.414  0.00  0.00    -0.241 OA
ATOM     12  C   UNL     1     -44.582  31.283   5.450  0.00  0.00    +0.404 C 
BRANCH  12  13
ATOM     13  O   UNL     1     -45.419  31.860   6.347  0.00  0.00    -0.475 OA
ATOM     14  H   UNL     1     -45.332  32.770   6.551  0.00  0.00    +0.295 HD
ENDBRANCH  12  13
ENDBRANCH   9  12
BRANCH   9  16
ATOM     15  O   UNL     1     -45.098  29.045   7.968  0.00  0.00    -0.241 OA
ATOM     16  C   UNL     1     -44.271  29.736   7.394  0.00  0.00    +0.404 C 
BRANCH  16  17
ATOM     17  O   UNL     1     -43.308  30.454   8.022  0.00  0.00    -0.475 OA
ATOM     18  H   UNL     1     -43.092  31.314   7.720  0.00  0.00    +0.295 HD
ENDBRANCH  16  17
ENDBRANCH   9  16
ENDBRANCH   1   4
BRANCH   1  19
ATOM     19  C   UNL     1     -40.225  25.408   3.286  0.00  0.00    -0.057 C 
ATOM     20  C   UNL     1     -39.923  24.029   2.702  0.00  0.00    -0.023 C 
BRANCH  19  21
ATOM     21  N   UNL     1     -38.958  26.132   3.436  0.00  0.00    +0.387 N 
ATOM     22  H   UNL     1     -38.863  26.445   4.402  0.00  0.00    -0.084 HD
ATOM     23  H   UNL     1     -38.961  26.933   2.804  0.00  0.00    -0.084 HD
BRANCH  21  24
ATOM     24  C   UNL     1     -37.835  25.274   3.100  0.00  0.00    -0.047 C 
BRANCH  24  25
ATOM     25  C   UNL     1     -36.731  25.381   4.157  0.00  0.00    +0.112 C 
BRANCH  25  27
ATOM     26 CL   UNL     1     -35.545  20.549   2.646  0.00  0.00    -0.082 Cl
ATOM     27  C   UNL     1     -36.153  24.025   4.496  0.00  0.00    +0.003 C 
ATOM     28  C   UNL     1     -36.125  23.039   3.525  0.00  0.00    +0.009 C 
ATOM     29  C   UNL     1     -35.661  23.800   5.771  0.00  0.00    -0.002 C 
ATOM     30  C   UNL     1     -35.590  21.789   3.838  0.00  0.00    +0.057 C 
ATOM     31  C   UNL     1     -35.126  22.551   6.084  0.00  0.00    +0.001 C 
ATOM     32  C   UNL     1     -35.091  21.545   5.117  0.00  0.00    +0.011 C 
ENDBRANCH  25  27
BRANCH  25  33
ATOM     33  O   UNL     1     -35.671  26.212   3.684  0.00  0.00    -0.382 OA
ATOM     34  H   UNL     1     -35.579  26.982   4.265  0.00  0.00    +0.211 HD
ENDBRANCH  25  33
ENDBRANCH  24  25
ENDBRANCH  21  24
ENDBRANCH  19  21
ENDBRANCH   1  19
TORSDOF 11
ENDMDL
MODEL 6
REMARK VINA RESULT:      -7.1      1.614      2.749
REMARK  Name = 5486546
REMARK  11 active torsions:
REMARK  status: ('A' for Active; 'I' for Inactive)
REMARK    1  A    between atoms: C_1  and  C_4
REMARK    2  A    between atoms: C_1  and  C_19
REMARK    3  A    between atoms: C_9  and  C_12
REMARK    4  A    between atoms: C_9  and  C_16
REMARK    5  A    between atoms: C_12  and  O_13
REMARK    6  A    between atoms: C_16  and  O_17
REMARK    7  A    between atoms: C_19  and  N_21
REMARK    8  A    between atoms: N_21  and  C_24
REMARK    9  A    between atoms: C_24  and  C_25
REMARK   10  A    between atoms: C_25  and  C_27
REMARK   11  A    between atoms: C_25  and  O_33
REMARK                            x       y       z     vdW  Elec       q    Type
REMARK                         _______ _______ _______ _____ _____    ______ ____
ROOT
ATOM      1  C   UNL     1     -35.951  24.171   5.058  0.00  0.00    +0.005 C 
ENDROOT
BRANCH   1   4
ATOM      2  O   UNL     1     -32.697  26.699   2.333  0.00  0.00    -0.430 OA
ATOM      3  O   UNL     1     -31.863  27.904   4.233  0.00  0.00    -0.430 OA
ATOM      4  C   UNL     1     -34.861  25.174   4.875  0.00  0.00    -0.021 C 
ATOM      5  C   UNL     1     -34.336  25.403   3.601  0.00  0.00    +0.036 C 
ATOM      6  C   UNL     1     -33.332  26.340   3.484  0.00  0.00    +0.177 C 
ATOM      7  C   UNL     1     -32.853  27.031   4.575  0.00  0.00    +0.177 C 
ATOM      8  C   UNL     1     -34.372  25.880   5.989  0.00  0.00    -0.001 C 
ATOM      9  C   UNL     1     -31.781  27.691   2.816  0.00  0.00    +0.454 C 
ATOM     10  C   UNL     1     -33.353  26.824   5.843  0.00  0.00    +0.040 C 
BRANCH   9  12
ATOM     11  O   UNL     1     -32.467  29.126   0.995  0.00  0.00    -0.241 OA
ATOM     12  C   UNL     1     -32.119  28.995   2.159  0.00  0.00    +0.404 C 
BRANCH  12  13
ATOM     13  O   UNL     1     -31.984  30.021   3.035  0.00  0.00    -0.475 OA
ATOM     14  H   UNL     1     -31.451  29.918   3.799  0.00  0.00    +0.295 HD
ENDBRANCH  12  13
ENDBRANCH   9  12
BRANCH   9  16
ATOM     15  O   UNL     1     -29.985  26.079   2.663  0.00  0.00    -0.241 OA
ATOM     16  C   UNL     1     -30.387  27.224   2.522  0.00  0.00    +0.404 C 
BRANCH  16  17
ATOM     17  O   UNL     1     -29.622  28.252   2.078  0.00  0.00    -0.475 OA
ATOM     18  H   UNL     1     -29.545  28.415   1.159  0.00  0.00    +0.295 HD
ENDBRANCH  16  17
ENDBRANCH   9  16
ENDBRANCH   1   4
BRANCH   1  19
ATOM     19  C   UNL     1     -35.581  22.742   4.595  0.00  0.00    -0.057 C 
ATOM     20  C   UNL     1     -35.200  21.834   5.764  0.00  0.00    -0.023 C 
BRANCH  19  21
ATOM     21  N   UNL     1     -36.711  22.133   3.888  0.00  0.00    +0.387 N 
ATOM     22  H   UNL     1     -37.575  22.593   4.176  0.00  0.00    -0.084 HD
ATOM     23  H   UNL     1     -36.747  21.140   4.118  0.00  0.00    -0.084 HD
BRANCH  21  24
ATOM     24  C   UNL     1     -36.553  22.274   2.450  0.00  0.00    -0.047 C 
BRANCH  24  25
ATOM     25  C   UNL     1     -36.382  20.904   1.783  0.00  0.00    +0.112 C 
BRANCH  25  27
ATOM     26 CL   UNL     1     -32.110  17.965   1.388  0.00  0.00    -0.082 Cl
ATOM     27  C   UNL     1     -34.982  20.723   1.238  0.00  0.00    +0.003 C 
ATOM     28  C   UNL     1     -34.285  19.565   1.535  0.00  0.00    +0.009 C 
ATOM     29  C   UNL     1     -34.429  21.719   0.451  0.00  0.00    -0.002 C 
ATOM     30  C   UNL     1     -32.995  19.397   1.031  0.00  0.00    +0.057 C 
ATOM     31  C   UNL     1     -33.140  21.552  -0.052  0.00  0.00    +0.001 C 
ATOM     32  C   UNL     1     -32.423  20.391   0.238  0.00  0.00    +0.011 C 
ENDBRANCH  25  27
BRANCH  25  33
ATOM     33  O   UNL     1     -36.632  19.861   2.724  0.00  0.00    -0.382 OA
ATOM     34  H   UNL     1     -37.254  19.222   2.341  0.00  0.00    +0.211 HD
ENDBRANCH  25  33
ENDBRANCH  24  25
ENDBRANCH  21  24
ENDBRANCH  19  21
ENDBRANCH   1  19
TORSDOF 11
ENDMDL
MODEL 7
REMARK VINA RESULT:      -7.0      4.004      6.039
REMARK  Name = 5486546
REMARK  11 active torsions:
REMARK  status: ('A' for Active; 'I' for Inactive)
REMARK    1  A    between atoms: C_1  and  C_4
REMARK    2  A    between atoms: C_1  and  C_19
REMARK    3  A    between atoms: C_9  and  C_12
REMARK    4  A    between atoms: C_9  and  C_16
REMARK    5  A    between atoms: C_12  and  O_13
REMARK    6  A    between atoms: C_16  and  O_17
REMARK    7  A    between atoms: C_19  and  N_21
REMARK    8  A    between atoms: N_21  and  C_24
REMARK    9  A    between atoms: C_24  and  C_25
REMARK   10  A    between atoms: C_25  and  C_27
REMARK   11  A    between atoms: C_25  and  O_33
REMARK                            x       y       z     vdW  Elec       q    Type
REMARK                         _______ _______ _______ _____ _____    ______ ____
ROOT
ATOM      1  C   UNL     1     -34.498  19.768   1.493  0.00  0.00    +0.005 C 
ENDROOT
BRANCH   1   4
ATOM      2  O   UNL     1     -36.747  23.309   4.102  0.00  0.00    -0.430 OA
ATOM      3  O   UNL     1     -35.883  25.055   2.700  0.00  0.00    -0.430 OA
ATOM      4  C   UNL     1     -34.847  21.189   1.785  0.00  0.00    -0.021 C 
ATOM      5  C   UNL     1     -35.672  21.491   2.871  0.00  0.00    +0.036 C 
ATOM      6  C   UNL     1     -35.964  22.819   3.100  0.00  0.00    +0.177 C 
ATOM      7  C   UNL     1     -35.468  23.821   2.295  0.00  0.00    +0.177 C 
ATOM      8  C   UNL     1     -34.340  22.212   0.964  0.00  0.00    -0.001 C 
ATOM      9  C   UNL     1     -36.680  24.719   3.845  0.00  0.00    +0.454 C 
ATOM     10  C   UNL     1     -34.652  23.550   1.217  0.00  0.00    +0.040 C 
BRANCH   9  12
ATOM     11  O   UNL     1     -35.105  24.920   5.668  0.00  0.00    -0.241 OA
ATOM     12  C   UNL     1     -36.041  25.377   5.031  0.00  0.00    +0.404 C 
BRANCH  12  13
ATOM     13  O   UNL     1     -36.648  26.558   5.307  0.00  0.00    -0.475 OA
ATOM     14  H   UNL     1     -36.699  26.863   6.191  0.00  0.00    +0.295 HD
ENDBRANCH  12  13
ENDBRANCH   9  12
BRANCH   9  16
ATOM     15  O   UNL     1     -39.095  24.597   3.826  0.00  0.00    -0.241 OA
ATOM     16  C   UNL     1     -38.070  25.211   3.572  0.00  0.00    +0.404 C 
BRANCH  16  17
ATOM     17  O   UNL     1     -38.038  26.439   2.999  0.00  0.00    -0.475 OA
ATOM     18  H   UNL     1     -38.562  26.618   2.243  0.00  0.00    +0.295 HD
ENDBRANCH  16  17
ENDBRANCH   9  16
ENDBRANCH   1   4
BRANCH   1  19
ATOM     19  C   UNL     1     -35.313  19.141   0.337  0.00  0.00    -0.057 C 
ATOM     20  C   UNL     1     -34.692  17.840  -0.171  0.00  0.00    -0.023 C 
BRANCH  19  21
ATOM     21  N   UNL     1     -36.681  18.855   0.782  0.00  0.00    +0.387 N 
ATOM     22  H   UNL     1     -36.817  19.239   1.717  0.00  0.00    -0.084 HD
ATOM     23  H   UNL     1     -36.819  17.845   0.792  0.00  0.00    -0.084 HD
BRANCH  21  24
ATOM     24  C   UNL     1     -37.649  19.451  -0.123  0.00  0.00    -0.047 C 
BRANCH  24  25
ATOM     25  C   UNL     1     -38.402  20.597   0.560  0.00  0.00    +0.112 C 
BRANCH  25  27
ATOM     26 CL   UNL     1     -35.919  23.278  -3.138  0.00  0.00    -0.082 Cl
ATOM     27  C   UNL     1     -38.058  21.934  -0.057  0.00  0.00    +0.003 C 
ATOM     28  C   UNL     1     -37.245  21.973  -1.176  0.00  0.00    +0.009 C 
ATOM     29  C   UNL     1     -38.566  23.091   0.509  0.00  0.00    -0.002 C 
ATOM     30  C   UNL     1     -36.929  23.206  -1.747  0.00  0.00    +0.057 C 
ATOM     31  C   UNL     1     -38.250  24.324  -0.061  0.00  0.00    +0.001 C 
ATOM     32  C   UNL     1     -37.431  24.382  -1.189  0.00  0.00    +0.011 C 
ENDBRANCH  25  27
BRANCH  25  33
ATOM     33  O   UNL     1     -39.812  20.402   0.444  0.00  0.00    -0.382 OA
ATOM     34  H   UNL     1     -40.147  19.978   1.248  0.00  0.00    +0.211 HD
ENDBRANCH  25  33
ENDBRANCH  24  25
ENDBRANCH  21  24
ENDBRANCH  19  21
ENDBRANCH   1  19
TORSDOF 11
ENDMDL
MODEL 8
REMARK VINA RESULT:      -6.7      2.672      4.233
REMARK  Name = 5486546
REMARK  11 active torsions:
REMARK  status: ('A' for Active; 'I' for Inactive)
REMARK    1  A    between atoms: C_1  and  C_4
REMARK    2  A    between atoms: C_1  and  C_19
REMARK    3  A    between atoms: C_9  and  C_12
REMARK    4  A    between atoms: C_9  and  C_16
REMARK    5  A    between atoms: C_12  and  O_13
REMARK    6  A    between atoms: C_16  and  O_17
REMARK    7  A    between atoms: C_19  and  N_21
REMARK    8  A    between atoms: N_21  and  C_24
REMARK    9  A    between atoms: C_24  and  C_25
REMARK   10  A    between atoms: C_25  and  C_27
REMARK   11  A    between atoms: C_25  and  O_33
REMARK                            x       y       z     vdW  Elec       q    Type
REMARK                         _______ _______ _______ _____ _____    ______ ____
ROOT
ATOM      1  C   UNL     1     -34.509  24.822   0.096  0.00  0.00    +0.005 C 
ENDROOT
BRANCH   1   4
ATOM      2  O   UNL     1     -33.779  27.665   4.070  0.00  0.00    -0.430 OA
ATOM      3  O   UNL     1     -31.392  27.566   3.850  0.00  0.00    -0.430 OA
ATOM      4  C   UNL     1     -33.646  25.542   1.079  0.00  0.00    -0.021 C 
ATOM      5  C   UNL     1     -34.235  26.266   2.118  0.00  0.00    +0.036 C 
ATOM      6  C   UNL     1     -33.396  26.912   3.001  0.00  0.00    +0.177 C 
ATOM      7  C   UNL     1     -32.026  26.855   2.874  0.00  0.00    +0.177 C 
ATOM      8  C   UNL     1     -32.247  25.484   0.950  0.00  0.00    -0.001 C 
ATOM      9  C   UNL     1     -32.508  28.063   4.602  0.00  0.00    +0.454 C 
ATOM     10  C   UNL     1     -31.419  26.148   1.858  0.00  0.00    +0.040 C 
BRANCH   9  12
ATOM     11  O   UNL     1     -33.302  27.001   6.624  0.00  0.00    -0.241 OA
ATOM     12  C   UNL     1     -32.387  27.500   5.986  0.00  0.00    +0.404 C 
BRANCH  12  13
ATOM     13  O   UNL     1     -31.116  27.620   6.442  0.00  0.00    -0.475 OA
ATOM     14  H   UNL     1     -30.872  28.364   6.957  0.00  0.00    +0.295 HD
ENDBRANCH  12  13
ENDBRANCH   9  12
BRANCH   9  16
ATOM     15  O   UNL     1     -32.366  30.234   3.547  0.00  0.00    -0.241 OA
ATOM     16  C   UNL     1     -32.433  29.560   4.564  0.00  0.00    +0.404 C 
BRANCH  16  17
ATOM     17  O   UNL     1     -32.445  30.071   5.819  0.00  0.00    -0.475 OA
ATOM     18  H   UNL     1     -33.258  30.297   6.226  0.00  0.00    +0.295 HD
ENDBRANCH  16  17
ENDBRANCH   9  16
ENDBRANCH   1   4
BRANCH   1  19
ATOM     19  C   UNL     1     -35.781  24.193   0.712  0.00  0.00    -0.057 C 
ATOM     20  C   UNL     1     -37.058  24.680   0.027  0.00  0.00    -0.023 C 
BRANCH  19  21
ATOM     21  N   UNL     1     -35.726  22.732   0.598  0.00  0.00    +0.387 N 
ATOM     22  H   UNL     1     -34.775  22.417   0.789  0.00  0.00    -0.084 HD
ATOM     23  H   UNL     1     -36.004  22.465  -0.345  0.00  0.00    -0.084 HD
BRANCH  21  24
ATOM     24  C   UNL     1     -36.634  22.110   1.547  0.00  0.00    -0.047 C 
BRANCH  24  25
ATOM     25  C   UNL     1     -35.867  21.226   2.538  0.00  0.00    +0.112 C 
BRANCH  25  27
ATOM     26 CL   UNL     1     -36.169  25.584   5.357  0.00  0.00    -0.082 Cl
ATOM     27  C   UNL     1     -35.658  21.927   3.861  0.00  0.00    +0.003 C 
ATOM     28  C   UNL     1     -35.974  23.270   3.974  0.00  0.00    +0.009 C 
ATOM     29  C   UNL     1     -35.158  21.209   4.935  0.00  0.00    -0.002 C 
ATOM     30  C   UNL     1     -35.784  23.916   5.195  0.00  0.00    +0.057 C 
ATOM     31  C   UNL     1     -34.967  21.854   6.156  0.00  0.00    +0.001 C 
ATOM     32  C   UNL     1     -35.280  23.208   6.286  0.00  0.00    +0.011 C 
ENDBRANCH  25  27
BRANCH  25  33
ATOM     33  O   UNL     1     -36.586  20.018   2.782  0.00  0.00    -0.382 OA
ATOM     34  H   UNL     1     -35.973  19.267   2.761  0.00  0.00    +0.211 HD
ENDBRANCH  25  33
ENDBRANCH  24  25
ENDBRANCH  21  24
ENDBRANCH  19  21
ENDBRANCH   1  19
TORSDOF 11
ENDMDL
MODEL 9
REMARK VINA RESULT:      -6.7      6.411      8.806
REMARK  Name = 5486546
REMARK  11 active torsions:
REMARK  status: ('A' for Active; 'I' for Inactive)
REMARK    1  A    between atoms: C_1  and  C_4
REMARK    2  A    between atoms: C_1  and  C_19
REMARK    3  A    between atoms: C_9  and  C_12
REMARK    4  A    between atoms: C_9  and  C_16
REMARK    5  A    between atoms: C_12  and  O_13
REMARK    6  A    between atoms: C_16  and  O_17
REMARK    7  A    between atoms: C_19  and  N_21
REMARK    8  A    between atoms: N_21  and  C_24
REMARK    9  A    between atoms: C_24  and  C_25
REMARK   10  A    between atoms: C_25  and  C_27
REMARK   11  A    between atoms: C_25  and  O_33
REMARK                            x       y       z     vdW  Elec       q    Type
REMARK                         _______ _______ _______ _____ _____    ______ ____
ROOT
ATOM      1  C   UNL     1     -39.382  23.269   0.846  0.00  0.00    +0.005 C 
ENDROOT
BRANCH   1   4
ATOM      2  O   UNL     1     -42.935  26.569   1.790  0.00  0.00    -0.430 OA
ATOM      3  O   UNL     1     -42.046  27.082   3.959  0.00  0.00    -0.430 OA
ATOM      4  C   UNL     1     -40.066  24.280   1.704  0.00  0.00    -0.021 C 
ATOM      5  C   UNL     1     -41.217  24.919   1.237  0.00  0.00    +0.036 C 
ATOM      6  C   UNL     1     -41.814  25.845   2.067  0.00  0.00    +0.177 C 
ATOM      7  C   UNL     1     -41.303  26.139   3.312  0.00  0.00    +0.177 C 
ATOM      8  C   UNL     1     -39.545  24.581   2.975  0.00  0.00    -0.001 C 
ATOM      9  C   UNL     1     -43.076  27.337   2.993  0.00  0.00    +0.454 C 
ATOM     10  C   UNL     1     -40.169  25.523   3.796  0.00  0.00    +0.040 C 
BRANCH   9  12
ATOM     11  O   UNL     1     -44.557  26.825   4.835  0.00  0.00    -0.241 OA
ATOM     12  C   UNL     1     -44.378  26.960   3.634  0.00  0.00    +0.404 C 
BRANCH  12  13
ATOM     13  O   UNL     1     -45.340  26.785   2.695  0.00  0.00    -0.475 OA
ATOM     14  H   UNL     1     -45.116  26.442   1.852  0.00  0.00    +0.295 HD
ENDBRANCH  12  13
ENDBRANCH   9  12
BRANCH   9  16
ATOM     15  O   UNL     1     -42.123  29.292   1.939  0.00  0.00    -0.241 OA
ATOM     16  C   UNL     1     -42.992  28.790   2.634  0.00  0.00    +0.404 C 
BRANCH  16  17
ATOM     17  O   UNL     1     -44.017  29.480   3.192  0.00  0.00    -0.475 OA
ATOM     18  H   UNL     1     -43.963  30.411   3.278  0.00  0.00    +0.295 HD
ENDBRANCH  16  17
ENDBRANCH   9  16
ENDBRANCH   1   4
BRANCH   1  19
ATOM     19  C   UNL     1     -39.691  21.802   1.229  0.00  0.00    -0.057 C 
ATOM     20  C   UNL     1     -39.848  20.903   0.002  0.00  0.00    -0.023 C 
BRANCH  19  21
ATOM     21  N   UNL     1     -38.612  21.260   2.061  0.00  0.00    +0.387 N 
ATOM     22  H   UNL     1     -38.588  20.245   1.960  0.00  0.00    -0.084 HD
ATOM     23  H   UNL     1     -38.787  21.513   3.033  0.00  0.00    -0.084 HD
BRANCH  21  24
ATOM     24  C   UNL     1     -37.328  21.809   1.658  0.00  0.00    -0.047 C 
BRANCH  24  25
ATOM     25  C   UNL     1     -36.185  21.165   2.450  0.00  0.00    +0.112 C 
BRANCH  25  27
ATOM     26 CL   UNL     1     -36.322  25.680   5.025  0.00  0.00    -0.082 Cl
ATOM     27  C   UNL     1     -35.869  21.949   3.705  0.00  0.00    +0.003 C 
ATOM     28  C   UNL     1     -36.204  23.290   3.767  0.00  0.00    +0.009 C 
ATOM     29  C   UNL     1     -35.253  21.306   4.766  0.00  0.00    -0.002 C 
ATOM     30  C   UNL     1     -35.914  24.012   4.925  0.00  0.00    +0.057 C 
ATOM     31  C   UNL     1     -34.962  22.028   5.923  0.00  0.00    +0.001 C 
ATOM     32  C   UNL     1     -35.293  23.381   6.003  0.00  0.00    +0.011 C 
ENDBRANCH  25  27
BRANCH  25  33
ATOM     33  O   UNL     1     -36.537  19.835   2.832  0.00  0.00    -0.382 OA
ATOM     34  H   UNL     1     -36.734  19.813   3.781  0.00  0.00    +0.211 HD
ENDBRANCH  25  33
ENDBRANCH  24  25
ENDBRANCH  21  24
ENDBRANCH  19  21
ENDBRANCH   1  19
TORSDOF 11
ENDMDL
