MODEL 1
REMARK VINA RESULT:      -7.1      0.000      0.000
REMARK  Name = 21574500
REMARK  3 active torsions:
REMARK  status: ('A' for Active; 'I' for Inactive)
REMARK    1  A    between atoms: C_10  and  O_24
REMARK    2  A    between atoms: C_12  and  O_26
REMARK    3  A    between atoms: C_17  and  O_28
REMARK                            x       y       z     vdW  Elec       q    Type
REMARK                         _______ _______ _______ _____ _____    ______ ____
ROOT
ATOM      1  O   UNL     1     -36.621  23.489  -1.235  0.00  0.00    -0.354 OA
ATOM      2  O   UNL     1     -39.891  24.106   0.095  0.00  0.00    -0.447 OA
ATOM      3  O   UNL     1     -40.554  22.068   0.929  0.00  0.00    -0.250 OA
ATOM      4  O   UNL     1     -35.967  26.407   5.753  0.00  0.00    -0.289 OA
ATOM      5  C   UNL     1     -37.179  22.542   0.879  0.00  0.00    +0.067 C 
ATOM      6  C   UNL     1     -37.402  23.862   1.727  0.00  0.00    +0.039 C 
ATOM      7  C   UNL     1     -38.360  22.340  -0.103  0.00  0.00    +0.132 C 
ATOM      8  C   UNL     1     -38.043  23.414  -1.126  0.00  0.00    +0.142 C 
ATOM      9  C   UNL     1     -36.362  24.105   2.907  0.00  0.00    +0.038 C 
ATOM     10  C   UNL     1     -37.794  25.071   0.811  0.00  0.00    +0.153 C 
ATOM     11  C   UNL     1     -38.640  24.619  -0.400  0.00  0.00    +0.220 C 
ATOM     12  C   UNL     1     -36.959  21.319   1.784  0.00  0.00    +0.114 C 
ATOM     13  C   UNL     1     -36.067  22.693  -0.173  0.00  0.00    +0.145 C 
ATOM     14  C   UNL     1     -36.329  22.786   3.771  0.00  0.00    +0.024 C 
ATOM     15  C   UNL     1     -35.946  21.562   2.906  0.00  0.00    +0.033 C 
ATOM     16  C   UNL     1     -39.727  22.771   0.374  0.00  0.00    +0.319 C 
ATOM     17  C   UNL     1     -36.880  25.235   3.850  0.00  0.00    +0.172 C 
ATOM     18  C   UNL     1     -38.652  23.169  -2.499  0.00  0.00    +0.034 C 
ATOM     19  C   UNL     1     -34.930  24.469   2.428  0.00  0.00    +0.003 C 
ATOM     20  C   UNL     1     -35.532  22.945   5.061  0.00  0.00    -0.041 C 
ATOM     21  C   UNL     1     -36.079  25.345   5.141  0.00  0.00    +0.199 C 
ATOM     22  C   UNL     1     -35.435  24.128   5.688  0.00  0.00    +0.031 C 
ATOM     23  C   UNL     1     -34.911  21.727   5.687  0.00  0.00    +0.026 C 
ENDROOT
BRANCH  10  24
ATOM     24  O   UNL     1     -36.658  25.772   0.329  0.00  0.00    -0.381 OA
ATOM     25  H   UNL     1     -36.429  25.449  -0.556  0.00  0.00    +0.210 HD
ENDBRANCH  10  24
BRANCH  12  26
ATOM     26  O   UNL     1     -38.204  20.941   2.379  0.00  0.00    -0.384 OA
ATOM     27  H   UNL     1     -38.169  21.107   3.335  0.00  0.00    +0.210 HD
ENDBRANCH  12  26
BRANCH  17  28
ATOM     28  O   UNL     1     -36.871  26.519   3.244  0.00  0.00    -0.377 OA
ATOM     29  H   UNL     1     -37.703  26.975   3.442  0.00  0.00    +0.211 HD
ENDBRANCH  17  28
TORSDOF 3
ENDMDL
MODEL 2
REMARK VINA RESULT:      -7.0      2.680      4.698
REMARK  Name = 21574500
REMARK  3 active torsions:
REMARK  status: ('A' for Active; 'I' for Inactive)
REMARK    1  A    between atoms: C_10  and  O_24
REMARK    2  A    between atoms: C_12  and  O_26
REMARK    3  A    between atoms: C_17  and  O_28
REMARK                            x       y       z     vdW  Elec       q    Type
REMARK                         _______ _______ _______ _____ _____    ______ ____
ROOT
ATOM      1  O   UNL     1     -36.655  20.538  -0.392  0.00  0.00    -0.354 OA
ATOM      2  O   UNL     1     -33.380  19.476   0.600  0.00  0.00    -0.447 OA
ATOM      3  O   UNL     1     -31.990  21.138  -0.173  0.00  0.00    -0.250 OA
ATOM      4  O   UNL     1     -35.454  22.564   6.835  0.00  0.00    -0.289 OA
ATOM      5  C   UNL     1     -35.167  22.162   0.517  0.00  0.00    +0.067 C 
ATOM      6  C   UNL     1     -34.982  21.584   1.981  0.00  0.00    +0.039 C 
ATOM      7  C   UNL     1     -34.404  21.277  -0.500  0.00  0.00    +0.132 C 
ATOM      8  C   UNL     1     -35.316  20.066  -0.536  0.00  0.00    +0.142 C 
ATOM      9  C   UNL     1     -35.557  22.491   3.156  0.00  0.00    +0.038 C 
ATOM     10  C   UNL     1     -35.249  20.041   2.024  0.00  0.00    +0.153 C 
ATOM     11  C   UNL     1     -34.809  19.349   0.715  0.00  0.00    +0.220 C 
ATOM     12  C   UNL     1     -34.746  23.639   0.434  0.00  0.00    +0.114 C 
ATOM     13  C   UNL     1     -36.582  21.931  -0.038  0.00  0.00    +0.145 C 
ATOM     14  C   UNL     1     -34.959  23.937   2.957  0.00  0.00    +0.024 C 
ATOM     15  C   UNL     1     -35.317  24.502   1.563  0.00  0.00    +0.033 C 
ATOM     16  C   UNL     1     -33.105  20.664  -0.033  0.00  0.00    +0.319 C 
ATOM     17  C   UNL     1     -35.027  21.981   4.531  0.00  0.00    +0.172 C 
ATOM     18  C   UNL     1     -35.198  19.231  -1.803  0.00  0.00    +0.034 C 
ATOM     19  C   UNL     1     -37.108  22.555   3.209  0.00  0.00    +0.003 C 
ATOM     20  C   UNL     1     -35.255  24.865   4.130  0.00  0.00    -0.041 C 
ATOM     21  C   UNL     1     -35.314  22.947   5.674  0.00  0.00    +0.199 C 
ATOM     22  C   UNL     1     -35.405  24.396   5.379  0.00  0.00    +0.031 C 
ATOM     23  C   UNL     1     -35.297  26.349   3.890  0.00  0.00    +0.026 C 
ENDROOT
BRANCH  10  24
ATOM     24  O   UNL     1     -36.615  19.737   2.257  0.00  0.00    -0.381 OA
ATOM     25  H   UNL     1     -36.951  20.289   2.980  0.00  0.00    +0.210 HD
ENDBRANCH  10  24
BRANCH  12  26
ATOM     26  O   UNL     1     -33.319  23.727   0.483  0.00  0.00    -0.384 OA
ATOM     27  H   UNL     1     -32.934  22.862   0.270  0.00  0.00    +0.210 HD
ENDBRANCH  12  26
BRANCH  17  28
ATOM     28  O   UNL     1     -35.562  20.722   4.907  0.00  0.00    -0.377 OA
ATOM     29  H   UNL     1     -36.527  20.788   4.979  0.00  0.00    +0.211 HD
ENDBRANCH  17  28
TORSDOF 3
ENDMDL
MODEL 3
REMARK VINA RESULT:      -6.9      1.774      2.147
REMARK  Name = 21574500
REMARK  3 active torsions:
REMARK  status: ('A' for Active; 'I' for Inactive)
REMARK    1  A    between atoms: C_10  and  O_24
REMARK    2  A    between atoms: C_12  and  O_26
REMARK    3  A    between atoms: C_17  and  O_28
REMARK                            x       y       z     vdW  Elec       q    Type
REMARK                         _______ _______ _______ _____ _____    ______ ____
ROOT
ATOM      1  O   UNL     1     -37.065  25.338  -0.627  0.00  0.00    -0.354 OA
ATOM      2  O   UNL     1     -39.422  27.097   1.419  0.00  0.00    -0.447 OA
ATOM      3  O   UNL     1     -40.792  25.446   2.248  0.00  0.00    -0.250 OA
ATOM      4  O   UNL     1     -34.001  26.570   6.218  0.00  0.00    -0.289 OA
ATOM      5  C   UNL     1     -37.633  24.413   1.494  0.00  0.00    +0.067 C 
ATOM      6  C   UNL     1     -37.085  25.551   2.451  0.00  0.00    +0.039 C 
ATOM      7  C   UNL     1     -38.921  24.896   0.783  0.00  0.00    +0.132 C 
ATOM      8  C   UNL     1     -38.324  25.870  -0.216  0.00  0.00    +0.142 C 
ATOM      9  C   UNL     1     -35.869  25.135   3.389  0.00  0.00    +0.038 C 
ATOM     10  C   UNL     1     -37.029  26.935   1.719  0.00  0.00    +0.153 C 
ATOM     11  C   UNL     1     -38.177  27.087   0.697  0.00  0.00    +0.220 C 
ATOM     12  C   UNL     1     -37.846  23.092   2.251  0.00  0.00    +0.114 C 
ATOM     13  C   UNL     1     -36.766  24.227   0.237  0.00  0.00    +0.145 C 
ATOM     14  C   UNL     1     -36.297  23.816   4.140  0.00  0.00    +0.024 C 
ATOM     15  C   UNL     1     -36.663  22.697   3.138  0.00  0.00    +0.033 C 
ATOM     16  C   UNL     1     -39.840  25.798   1.571  0.00  0.00    +0.319 C 
ATOM     17  C   UNL     1     -35.650  26.217   4.490  0.00  0.00    +0.172 C 
ATOM     18  C   UNL     1     -39.197  26.128  -1.436  0.00  0.00    +0.034 C 
ATOM     19  C   UNL     1     -34.530  24.911   2.633  0.00  0.00    +0.003 C 
ATOM     20  C   UNL     1     -35.313  23.413   5.234  0.00  0.00    -0.041 C 
ATOM     21  C   UNL     1     -34.685  25.770   5.580  0.00  0.00    +0.199 C 
ATOM     22  C   UNL     1     -34.585  24.326   5.897  0.00  0.00    +0.031 C 
ATOM     23  C   UNL     1     -35.220  21.966   5.632  0.00  0.00    +0.026 C 
ENDROOT
BRANCH  10  24
ATOM     24  O   UNL     1     -35.797  27.140   1.047  0.00  0.00    -0.381 OA
ATOM     25  H   UNL     1     -35.811  26.675   0.197  0.00  0.00    +0.210 HD
ENDBRANCH  10  24
BRANCH  12  26
ATOM     26  O   UNL     1     -39.008  23.204   3.078  0.00  0.00    -0.384 OA
ATOM     27  H   UNL     1     -39.069  24.106   3.429  0.00  0.00    +0.210 HD
ENDBRANCH  12  26
BRANCH  17  28
ATOM     28  O   UNL     1     -35.158  27.447   3.979  0.00  0.00    -0.377 OA
ATOM     29  H   UNL     1     -34.204  27.375   3.825  0.00  0.00    +0.211 HD
ENDBRANCH  17  28
TORSDOF 3
ENDMDL
MODEL 4
REMARK VINA RESULT:      -6.9      1.021      1.085
REMARK  Name = 21574500
REMARK  3 active torsions:
REMARK  status: ('A' for Active; 'I' for Inactive)
REMARK    1  A    between atoms: C_10  and  O_24
REMARK    2  A    between atoms: C_12  and  O_26
REMARK    3  A    between atoms: C_17  and  O_28
REMARK                            x       y       z     vdW  Elec       q    Type
REMARK                         _______ _______ _______ _____ _____    ______ ____
ROOT
ATOM      1  O   UNL     1     -35.652  22.488  -1.200  0.00  0.00    -0.354 OA
ATOM      2  O   UNL     1     -39.126  22.825  -0.386  0.00  0.00    -0.447 OA
ATOM      3  O   UNL     1     -39.667  20.824   0.611  0.00  0.00    -0.250 OA
ATOM      4  O   UNL     1     -36.325  26.229   5.382  0.00  0.00    -0.289 OA
ATOM      5  C   UNL     1     -36.394  21.719   0.930  0.00  0.00    +0.067 C 
ATOM      6  C   UNL     1     -36.881  23.086   1.566  0.00  0.00    +0.039 C 
ATOM      7  C   UNL     1     -37.394  21.259  -0.160  0.00  0.00    +0.132 C 
ATOM      8  C   UNL     1     -37.057  22.243  -1.264  0.00  0.00    +0.142 C 
ATOM      9  C   UNL     1     -36.053  23.591   2.828  0.00  0.00    +0.038 C 
ATOM     10  C   UNL     1     -37.272  24.125   0.460  0.00  0.00    +0.153 C 
ATOM     11  C   UNL     1     -37.883  23.435  -0.780  0.00  0.00    +0.220 C 
ATOM     12  C   UNL     1     -36.168  20.644   2.004  0.00  0.00    +0.114 C 
ATOM     13  C   UNL     1     -35.168  21.894   0.017  0.00  0.00    +0.145 C 
ATOM     14  C   UNL     1     -35.994  22.393   3.851  0.00  0.00    +0.024 C 
ATOM     15  C   UNL     1     -35.358  21.139   3.206  0.00  0.00    +0.033 C 
ATOM     16  C   UNL     1     -38.854  21.562   0.080  0.00  0.00    +0.319 C 
ATOM     17  C   UNL     1     -36.821  24.744   3.544  0.00  0.00    +0.172 C 
ATOM     18  C   UNL     1     -37.435  21.770  -2.660  0.00  0.00    +0.034 C 
ATOM     19  C   UNL     1     -34.617  24.080   2.491  0.00  0.00    +0.003 C 
ATOM     20  C   UNL     1     -35.411  22.796   5.201  0.00  0.00    -0.041 C 
ATOM     21  C   UNL     1     -36.229  25.100   4.902  0.00  0.00    +0.199 C 
ATOM     22  C   UNL     1     -35.537  24.044   5.678  0.00  0.00    +0.031 C 
ATOM     23  C   UNL     1     -34.752  21.745   6.051  0.00  0.00    +0.026 C 
ENDROOT
BRANCH  10  24
ATOM     24  O   UNL     1     -36.166  24.908   0.041  0.00  0.00    -0.381 OA
ATOM     25  H   UNL     1     -35.451  24.324  -0.257  0.00  0.00    +0.210 HD
ENDBRANCH  10  24
BRANCH  12  26
ATOM     26  O   UNL     1     -37.434  20.178   2.481  0.00  0.00    -0.384 OA
ATOM     27  H   UNL     1     -37.901  20.905   2.922  0.00  0.00    +0.210 HD
ENDBRANCH  12  26
BRANCH  17  28
ATOM     28  O   UNL     1     -36.871  25.942   2.785  0.00  0.00    -0.377 OA
ATOM     29  H   UNL     1     -37.440  25.811   2.011  0.00  0.00    +0.211 HD
ENDBRANCH  17  28
TORSDOF 3
ENDMDL
MODEL 5
REMARK VINA RESULT:      -6.5      2.309      5.800
REMARK  Name = 21574500
REMARK  3 active torsions:
REMARK  status: ('A' for Active; 'I' for Inactive)
REMARK    1  A    between atoms: C_10  and  O_24
REMARK    2  A    between atoms: C_12  and  O_26
REMARK    3  A    between atoms: C_17  and  O_28
REMARK                            x       y       z     vdW  Elec       q    Type
REMARK                         _______ _______ _______ _____ _____    ______ ____
ROOT
ATOM      1  O   UNL     1     -36.304  22.428   4.116  0.00  0.00    -0.354 OA
ATOM      2  O   UNL     1     -35.342  25.520   5.650  0.00  0.00    -0.447 OA
ATOM      3  O   UNL     1     -33.212  25.898   4.869  0.00  0.00    -0.250 OA
ATOM      4  O   UNL     1     -39.086  28.210   0.043  0.00  0.00    -0.289 OA
ATOM      5  C   UNL     1     -35.172  24.047   2.784  0.00  0.00    +0.067 C 
ATOM      6  C   UNL     1     -36.232  25.225   2.815  0.00  0.00    +0.039 C 
ATOM      7  C   UNL     1     -34.471  23.932   4.159  0.00  0.00    +0.132 C 
ATOM      8  C   UNL     1     -35.588  23.313   4.978  0.00  0.00    +0.142 C 
ATOM      9  C   UNL     1     -36.903  25.584   1.417  0.00  0.00    +0.038 C 
ATOM     10  C   UNL     1     -37.145  25.140   4.086  0.00  0.00    +0.153 C 
ATOM     11  C   UNL     1     -36.376  24.580   5.303  0.00  0.00    +0.220 C 
ATOM     12  C   UNL     1     -34.169  24.219   1.631  0.00  0.00    +0.114 C 
ATOM     13  C   UNL     1     -35.831  22.657   2.777  0.00  0.00    +0.145 C 
ATOM     14  C   UNL     1     -35.730  25.804   0.386  0.00  0.00    +0.024 C 
ATOM     15  C   UNL     1     -34.830  24.550   0.290  0.00  0.00    +0.033 C 
ATOM     16  C   UNL     1     -34.224  25.219   4.911  0.00  0.00    +0.319 C 
ATOM     17  C   UNL     1     -37.658  26.945   1.521  0.00  0.00    +0.172 C 
ATOM     18  C   UNL     1     -35.114  22.558   6.212  0.00  0.00    +0.034 C 
ATOM     19  C   UNL     1     -37.887  24.504   0.888  0.00  0.00    +0.003 C 
ATOM     20  C   UNL     1     -36.214  26.361  -0.949  0.00  0.00    -0.041 C 
ATOM     21  C   UNL     1     -38.100  27.485   0.168  0.00  0.00    +0.199 C 
ATOM     22  C   UNL     1     -37.301  27.144  -1.033  0.00  0.00    +0.031 C 
ATOM     23  C   UNL     1     -35.403  26.091  -2.186  0.00  0.00    +0.026 C 
ENDROOT
BRANCH  10  24
ATOM     24  O   UNL     1     -38.294  24.336   3.871  0.00  0.00    -0.381 OA
ATOM     25  H   UNL     1     -39.025  24.893   3.563  0.00  0.00    +0.210 HD
ENDBRANCH  10  24
BRANCH  12  26
ATOM     26  O   UNL     1     -33.256  25.273   1.952  0.00  0.00    -0.384 OA
ATOM     27  H   UNL     1     -32.376  25.054   1.608  0.00  0.00    +0.210 HD
ENDBRANCH  12  26
BRANCH  17  28
ATOM     28  O   UNL     1     -38.814  26.884   2.342  0.00  0.00    -0.377 OA
ATOM     29  H   UNL     1     -39.210  27.767   2.409  0.00  0.00    +0.211 HD
ENDBRANCH  17  28
TORSDOF 3
ENDMDL
MODEL 6
REMARK VINA RESULT:      -6.4      2.324      4.347
REMARK  Name = 21574500
REMARK  3 active torsions:
REMARK  status: ('A' for Active; 'I' for Inactive)
REMARK    1  A    between atoms: C_10  and  O_24
REMARK    2  A    between atoms: C_12  and  O_26
REMARK    3  A    between atoms: C_17  and  O_28
REMARK                            x       y       z     vdW  Elec       q    Type
REMARK                         _______ _______ _______ _____ _____    ______ ____
ROOT
ATOM      1  O   UNL     1     -37.600  22.073   1.037  0.00  0.00    -0.354 OA
ATOM      2  O   UNL     1     -34.810  20.177   2.245  0.00  0.00    -0.447 OA
ATOM      3  O   UNL     1     -33.160  20.547   0.686  0.00  0.00    -0.250 OA
ATOM      4  O   UNL     1     -33.896  26.144   6.278  0.00  0.00    -0.289 OA
ATOM      5  C   UNL     1     -35.437  23.068   0.956  0.00  0.00    +0.067 C 
ATOM      6  C   UNL     1     -35.103  23.138   2.503  0.00  0.00    +0.039 C 
ATOM      7  C   UNL     1     -35.348  21.603   0.462  0.00  0.00    +0.132 C 
ATOM      8  C   UNL     1     -36.617  21.038   1.071  0.00  0.00    +0.142 C 
ATOM      9  C   UNL     1     -34.975  24.602   3.115  0.00  0.00    +0.038 C 
ATOM     10  C   UNL     1     -35.898  22.055   3.309  0.00  0.00    +0.153 C 
ATOM     11  C   UNL     1     -36.102  20.765   2.484  0.00  0.00    +0.220 C 
ATOM     12  C   UNL     1     -34.540  24.013   0.140  0.00  0.00    +0.114 C 
ATOM     13  C   UNL     1     -36.931  23.289   0.661  0.00  0.00    +0.145 C 
ATOM     14  C   UNL     1     -33.961  25.394   2.203  0.00  0.00    +0.024 C 
ATOM     15  C   UNL     1     -34.437  25.422   0.732  0.00  0.00    +0.033 C 
ATOM     16  C   UNL     1     -34.292  20.730   1.099  0.00  0.00    +0.319 C 
ATOM     17  C   UNL     1     -34.331  24.533   4.533  0.00  0.00    +0.172 C 
ATOM     18  C   UNL     1     -37.150  19.798   0.368  0.00  0.00    +0.034 C 
ATOM     19  C   UNL     1     -36.322  25.370   3.212  0.00  0.00    +0.003 C 
ATOM     20  C   UNL     1     -33.577  26.750   2.787  0.00  0.00    -0.041 C 
ATOM     21  C   UNL     1     -33.934  25.901   5.072  0.00  0.00    +0.199 C 
ATOM     22  C   UNL     1     -33.557  26.966   4.112  0.00  0.00    +0.031 C 
ATOM     23  C   UNL     1     -33.131  27.843   1.856  0.00  0.00    +0.026 C 
ENDROOT
BRANCH  10  24
ATOM     24  O   UNL     1     -37.168  22.523   3.733  0.00  0.00    -0.381 OA
ATOM     25  H   UNL     1     -37.834  22.303   3.064  0.00  0.00    +0.210 HD
ENDBRANCH  10  24
BRANCH  12  26
ATOM     26  O   UNL     1     -33.221  23.464   0.063  0.00  0.00    -0.384 OA
ATOM     27  H   UNL     1     -32.706  23.951  -0.599  0.00  0.00    +0.210 HD
ENDBRANCH  12  26
BRANCH  17  28
ATOM     28  O   UNL     1     -35.174  23.933   5.504  0.00  0.00    -0.377 OA
ATOM     29  H   UNL     1     -35.298  24.543   6.247  0.00  0.00    +0.211 HD
ENDBRANCH  17  28
TORSDOF 3
ENDMDL
MODEL 7
REMARK VINA RESULT:      -6.3      2.648      4.664
REMARK  Name = 21574500
REMARK  3 active torsions:
REMARK  status: ('A' for Active; 'I' for Inactive)
REMARK    1  A    between atoms: C_10  and  O_24
REMARK    2  A    between atoms: C_12  and  O_26
REMARK    3  A    between atoms: C_17  and  O_28
REMARK                            x       y       z     vdW  Elec       q    Type
REMARK                         _______ _______ _______ _____ _____    ______ ____
ROOT
ATOM      1  O   UNL     1     -38.644  22.925   0.893  0.00  0.00    -0.354 OA
ATOM      2  O   UNL     1     -36.681  24.990   3.067  0.00  0.00    -0.447 OA
ATOM      3  O   UNL     1     -36.280  23.658   4.899  0.00  0.00    -0.250 OA
ATOM      4  O   UNL     1     -31.359  22.591  -1.248  0.00  0.00    -0.289 OA
ATOM      5  C   UNL     1     -36.768  21.949   1.991  0.00  0.00    +0.067 C 
ATOM      6  C   UNL     1     -35.595  22.801   1.351  0.00  0.00    +0.039 C 
ATOM      7  C   UNL     1     -37.560  22.816   3.000  0.00  0.00    +0.132 C 
ATOM      8  C   UNL     1     -38.324  23.710   2.042  0.00  0.00    +0.142 C 
ATOM      9  C   UNL     1     -34.580  21.991   0.430  0.00  0.00    +0.038 C 
ATOM     10  C   UNL     1     -36.106  24.197   0.857  0.00  0.00    +0.153 C 
ATOM     11  C   UNL     1     -37.234  24.744   1.760  0.00  0.00    +0.220 C 
ATOM     12  C   UNL     1     -36.243  20.650   2.625  0.00  0.00    +0.114 C 
ATOM     13  C   UNL     1     -37.918  21.688   1.004  0.00  0.00    +0.145 C 
ATOM     14  C   UNL     1     -34.087  20.750   1.269  0.00  0.00    +0.024 C 
ATOM     15  C   UNL     1     -35.279  19.875   1.723  0.00  0.00    +0.033 C 
ATOM     16  C   UNL     1     -36.772  23.830   3.796  0.00  0.00    +0.319 C 
ATOM     17  C   UNL     1     -33.315  22.857   0.141  0.00  0.00    +0.172 C 
ATOM     18  C   UNL     1     -39.595  24.311   2.625  0.00  0.00    +0.034 C 
ATOM     19  C   UNL     1     -35.184  21.520  -0.921  0.00  0.00    +0.003 C 
ATOM     20  C   UNL     1     -32.947  19.995   0.593  0.00  0.00    -0.041 C 
ATOM     21  C   UNL     1     -32.187  22.064  -0.507  0.00  0.00    +0.199 C 
ATOM     22  C   UNL     1     -32.072  20.616  -0.214  0.00  0.00    +0.031 C 
ATOM     23  C   UNL     1     -32.754  18.537   0.905  0.00  0.00    +0.026 C 
ENDROOT
BRANCH  10  24
ATOM     24  O   UNL     1     -36.580  24.156  -0.479  0.00  0.00    -0.381 OA
ATOM     25  H   UNL     1     -37.549  24.130  -0.479  0.00  0.00    +0.210 HD
ENDBRANCH  10  24
BRANCH  12  26
ATOM     26  O   UNL     1     -35.562  20.962   3.844  0.00  0.00    -0.384 OA
ATOM     27  H   UNL     1     -34.608  21.010   3.678  0.00  0.00    +0.210 HD
ENDBRANCH  12  26
BRANCH  17  28
ATOM     28  O   UNL     1     -33.577  23.970  -0.699  0.00  0.00    -0.377 OA
ATOM     29  H   UNL     1     -32.784  24.526  -0.756  0.00  0.00    +0.211 HD
ENDBRANCH  17  28
TORSDOF 3
ENDMDL
MODEL 8
REMARK VINA RESULT:      -6.2      2.476      4.471
REMARK  Name = 21574500
REMARK  3 active torsions:
REMARK  status: ('A' for Active; 'I' for Inactive)
REMARK    1  A    between atoms: C_10  and  O_24
REMARK    2  A    between atoms: C_12  and  O_26
REMARK    3  A    between atoms: C_17  and  O_28
REMARK                            x       y       z     vdW  Elec       q    Type
REMARK                         _______ _______ _______ _____ _____    ______ ____
ROOT
ATOM      1  O   UNL     1     -36.463  22.188  -1.073  0.00  0.00    -0.354 OA
ATOM      2  O   UNL     1     -33.298  20.741  -0.220  0.00  0.00    -0.447 OA
ATOM      3  O   UNL     1     -31.821  22.499  -0.354  0.00  0.00    -0.250 OA
ATOM      4  O   UNL     1     -35.807  21.901   6.493  0.00  0.00    -0.289 OA
ATOM      5  C   UNL     1     -35.023  23.401   0.386  0.00  0.00    +0.067 C 
ATOM      6  C   UNL     1     -34.967  22.403   1.616  0.00  0.00    +0.039 C 
ATOM      7  C   UNL     1     -34.197  22.831  -0.793  0.00  0.00    +0.132 C 
ATOM      8  C   UNL     1     -35.126  21.725  -1.258  0.00  0.00    +0.142 C 
ATOM      9  C   UNL     1     -35.617  22.939   2.967  0.00  0.00    +0.038 C 
ATOM     10  C   UNL     1     -35.265  20.931   1.173  0.00  0.00    +0.153 C 
ATOM     11  C   UNL     1     -34.734  20.645  -0.250  0.00  0.00    +0.220 C 
ATOM     12  C   UNL     1     -34.570  24.815   0.784  0.00  0.00    +0.114 C 
ATOM     13  C   UNL     1     -36.394  23.406  -0.311  0.00  0.00    +0.145 C 
ATOM     14  C   UNL     1     -34.978  24.352   3.257  0.00  0.00    +0.024 C 
ATOM     15  C   UNL     1     -35.213  25.323   2.077  0.00  0.00    +0.033 C 
ATOM     16  C   UNL     1     -32.952  22.052  -0.443  0.00  0.00    +0.319 C 
ATOM     17  C   UNL     1     -35.208  22.019   4.157  0.00  0.00    +0.172 C 
ATOM     18  C   UNL     1     -34.922  21.305  -2.707  0.00  0.00    +0.034 C 
ATOM     19  C   UNL     1     -37.166  23.049   2.927  0.00  0.00    +0.003 C 
ATOM     20  C   UNL     1     -35.350  24.897   4.632  0.00  0.00    -0.041 C 
ATOM     21  C   UNL     1     -35.568  22.608   5.515  0.00  0.00    +0.199 C 
ATOM     22  C   UNL     1     -35.608  24.082   5.667  0.00  0.00    +0.031 C 
ATOM     23  C   UNL     1     -35.345  26.385   4.849  0.00  0.00    +0.026 C 
ENDROOT
BRANCH  10  24
ATOM     24  O   UNL     1     -36.651  20.628   1.205  0.00  0.00    -0.381 OA
ATOM     25  H   UNL     1     -37.108  21.266   1.775  0.00  0.00    +0.210 HD
ENDBRANCH  10  24
BRANCH  12  26
ATOM     26  O   UNL     1     -33.150  24.825   0.957  0.00  0.00    -0.384 OA
ATOM     27  H   UNL     1     -32.724  25.088   0.126  0.00  0.00    +0.210 HD
ENDBRANCH  12  26
BRANCH  17  28
ATOM     28  O   UNL     1     -35.795  20.728   4.096  0.00  0.00    -0.377 OA
ATOM     29  H   UNL     1     -35.101  20.054   4.165  0.00  0.00    +0.211 HD
ENDBRANCH  17  28
TORSDOF 3
ENDMDL
MODEL 9
REMARK VINA RESULT:      -6.1      2.105      3.224
REMARK  Name = 21574500
REMARK  3 active torsions:
REMARK  status: ('A' for Active; 'I' for Inactive)
REMARK    1  A    between atoms: C_10  and  O_24
REMARK    2  A    between atoms: C_12  and  O_26
REMARK    3  A    between atoms: C_17  and  O_28
REMARK                            x       y       z     vdW  Elec       q    Type
REMARK                         _______ _______ _______ _____ _____    ______ ____
ROOT
ATOM      1  O   UNL     1     -39.685  25.845   0.774  0.00  0.00    -0.354 OA
ATOM      2  O   UNL     1     -39.640  23.006   2.959  0.00  0.00    -0.447 OA
ATOM      3  O   UNL     1     -38.465  21.412   1.789  0.00  0.00    -0.250 OA
ATOM      4  O   UNL     1     -34.046  26.654   5.806  0.00  0.00    -0.289 OA
ATOM      5  C   UNL     1     -37.650  24.627   1.003  0.00  0.00    +0.067 C 
ATOM      6  C   UNL     1     -37.348  24.874   2.539  0.00  0.00    +0.039 C 
ATOM      7  C   UNL     1     -38.829  23.634   0.850  0.00  0.00    +0.132 C 
ATOM      8  C   UNL     1     -39.986  24.532   1.245  0.00  0.00    +0.142 C 
ATOM      9  C   UNL     1     -36.044  25.729   2.855  0.00  0.00    +0.038 C 
ATOM     10  C   UNL     1     -38.660  25.183   3.337  0.00  0.00    +0.153 C 
ATOM     11  C   UNL     1     -39.871  24.414   2.765  0.00  0.00    +0.220 C 
ATOM     12  C   UNL     1     -36.395  24.161   0.247  0.00  0.00    +0.114 C 
ATOM     13  C   UNL     1     -38.317  25.837   0.328  0.00  0.00    +0.145 C 
ATOM     14  C   UNL     1     -34.852  25.061   2.066  0.00  0.00    +0.024 C 
ATOM     15  C   UNL     1     -35.151  25.001   0.550  0.00  0.00    +0.033 C 
ATOM     16  C   UNL     1     -38.934  22.534   1.879  0.00  0.00    +0.319 C 
ATOM     17  C   UNL     1     -35.686  25.618   4.369  0.00  0.00    +0.172 C 
ATOM     18  C   UNL     1     -41.337  24.087   0.702  0.00  0.00    +0.034 C 
ATOM     19  C   UNL     1     -36.162  27.231   2.477  0.00  0.00    +0.003 C 
ATOM     20  C   UNL     1     -33.495  25.648   2.439  0.00  0.00    -0.041 C 
ATOM     21  C   UNL     1     -34.312  26.187   4.699  0.00  0.00    +0.199 C 
ATOM     22  C   UNL     1     -33.256  26.153   3.660  0.00  0.00    +0.031 C 
ATOM     23  C   UNL     1     -32.375  25.582   1.437  0.00  0.00    +0.026 C 
ENDROOT
BRANCH  10  24
ATOM     24  O   UNL     1     -38.970  26.567   3.348  0.00  0.00    -0.381 OA
ATOM     25  H   UNL     1     -38.444  27.012   4.030  0.00  0.00    +0.210 HD
ENDBRANCH  10  24
BRANCH  12  26
ATOM     26  O   UNL     1     -36.111  22.802   0.594  0.00  0.00    -0.384 OA
ATOM     27  H   UNL     1     -35.652  22.776   1.449  0.00  0.00    +0.210 HD
ENDBRANCH  12  26
BRANCH  17  28
ATOM     28  O   UNL     1     -36.620  26.269   5.216  0.00  0.00    -0.377 OA
ATOM     29  H   UNL     1     -37.134  25.606   5.702  0.00  0.00    +0.211 HD
ENDBRANCH  17  28
TORSDOF 3
ENDMDL
