MODEL 1
REMARK VINA RESULT:      -6.3      0.000      0.000
REMARK  Name = 189795
REMARK  8 active torsions:
REMARK  status: ('A' for Active; 'I' for Inactive)
REMARK    1  A    between atoms: N_2  and  C_5
REMARK    2  A    between atoms: C_3  and  C_19
REMARK    3  A    between atoms: C_6  and  C_15
REMARK    4  A    between atoms: C_8  and  N_11
REMARK    5  A    between atoms: C_15  and  O_16
REMARK    6  A    between atoms: O_16  and  C_17
REMARK    7  A    between atoms: C_22  and  C_26
REMARK    8  A    between atoms: C_26  and  O_27
REMARK                            x       y       z     vdW  Elec       q    Type
REMARK                         _______ _______ _______ _____ _____    ______ ____
ROOT
ATOM      1  O   UNL     1     -35.300  22.718  -0.087  0.00  0.00    -0.270 OA
ATOM      2  N   UNL     1     -36.188  21.744   1.853  0.00  0.00    -0.280 N 
ATOM      3  C   UNL     1     -35.256  21.865   0.813  0.00  0.00    +0.249 C 
ATOM      4  H   UNL     1     -36.020  21.016   2.496  0.00  0.00    +0.155 HD
ENDROOT
BRANCH   2   5
ATOM      5  C   UNL     1     -37.338  22.532   2.103  0.00  0.00    +0.058 C 
ATOM      6  C   UNL     1     -37.301  23.545   3.048  0.00  0.00    +0.089 C 
ATOM      7  C   UNL     1     -38.491  22.261   1.381  0.00  0.00    +0.029 C 
ATOM      8  C   UNL     1     -39.636  23.024   1.612  0.00  0.00    +0.043 C 
ATOM      9  C   UNL     1     -38.445  24.307   3.278  0.00  0.00    +0.009 C 
ATOM     10  C   UNL     1     -39.613  24.047   2.560  0.00  0.00    +0.014 C 
BRANCH   8  11
ATOM     11  N   UNL     1     -40.816  22.762   0.885  0.00  0.00    -0.357 N 
ATOM     12  H   UNL     1     -40.807  22.104   0.154  0.00  0.00    +0.142 HD
ATOM     13  H   UNL     1     -41.648  23.239   1.110  0.00  0.00    +0.142 HD
ENDBRANCH   8  11
BRANCH   6  15
ATOM     14  O   UNL     1     -35.032  24.225   3.320  0.00  0.00    -0.245 OA
ATOM     15  C   UNL     1     -36.098  23.841   3.816  0.00  0.00    +0.342 C 
BRANCH  15  16
ATOM     16  O   UNL     1     -36.298  23.645   5.154  0.00  0.00    -0.445 OA
BRANCH  16  17
ATOM     17  C   UNL     1     -35.195  23.120   5.900  0.00  0.00    +0.209 C 
ATOM     18  C   UNL     1     -35.162  21.615   5.737  0.00  0.00    +0.051 C 
ENDBRANCH  16  17
ENDBRANCH  15  16
ENDBRANCH   6  15
ENDBRANCH   2   5
BRANCH   3  19
ATOM     19  C   UNL     1     -34.183  20.883   0.805  0.00  0.00    +0.054 C 
ATOM     20  C   UNL     1     -33.015  21.133   0.087  0.00  0.00    +0.005 C 
ATOM     21  C   UNL     1     -34.323  19.690   1.515  0.00  0.00    +0.005 C 
ATOM     22  C   UNL     1     -32.126  18.998   0.788  0.00  0.00    +0.075 C 
ATOM     23  C   UNL     1     -31.986  20.192   0.077  0.00  0.00    +0.007 C 
ATOM     24  C   UNL     1     -33.295  18.748   1.507  0.00  0.00    +0.007 C 
BRANCH  22  26
ATOM     25  O   UNL     1     -29.846  18.277   0.766  0.00  0.00    -0.245 OA
ATOM     26  C   UNL     1     -31.054  18.018   0.779  0.00  0.00    +0.338 C 
BRANCH  26  27
ATOM     27  O   UNL     1     -31.518  16.737   0.789  0.00  0.00    -0.477 OA
ATOM     28  H   UNL     1     -32.395  16.559   1.066  0.00  0.00    +0.295 HD
ENDBRANCH  26  27
ENDBRANCH  22  26
ENDBRANCH   3  19
TORSDOF 8
ENDMDL
MODEL 2
REMARK VINA RESULT:      -6.2      4.132      6.388
REMARK  Name = 189795
REMARK  8 active torsions:
REMARK  status: ('A' for Active; 'I' for Inactive)
REMARK    1  A    between atoms: N_2  and  C_5
REMARK    2  A    between atoms: C_3  and  C_19
REMARK    3  A    between atoms: C_6  and  C_15
REMARK    4  A    between atoms: C_8  and  N_11
REMARK    5  A    between atoms: C_15  and  O_16
REMARK    6  A    between atoms: O_16  and  C_17
REMARK    7  A    between atoms: C_22  and  C_26
REMARK    8  A    between atoms: C_26  and  O_27
REMARK                            x       y       z     vdW  Elec       q    Type
REMARK                         _______ _______ _______ _____ _____    ______ ____
ROOT
ATOM      1  O   UNL     1     -35.342  25.814   1.880  0.00  0.00    -0.270 OA
ATOM      2  N   UNL     1     -36.839  25.668   3.681  0.00  0.00    -0.280 N 
ATOM      3  C   UNL     1     -35.616  25.993   3.077  0.00  0.00    +0.249 C 
ATOM      4  H   UNL     1     -36.909  25.870   4.643  0.00  0.00    +0.155 HD
ENDROOT
BRANCH   2   5
ATOM      5  C   UNL     1     -37.988  25.089   3.089  0.00  0.00    +0.058 C 
ATOM      6  C   UNL     1     -38.044  23.724   2.859  0.00  0.00    +0.089 C 
ATOM      7  C   UNL     1     -39.045  25.921   2.752  0.00  0.00    +0.029 C 
ATOM      8  C   UNL     1     -40.187  25.372   2.167  0.00  0.00    +0.043 C 
ATOM      9  C   UNL     1     -39.185  23.176   2.275  0.00  0.00    +0.009 C 
ATOM     10  C   UNL     1     -40.257  23.999   1.929  0.00  0.00    +0.014 C 
BRANCH   8  11
ATOM     11  N   UNL     1     -41.270  26.204   1.818  0.00  0.00    -0.357 N 
ATOM     12  H   UNL     1     -41.216  26.773   1.017  0.00  0.00    +0.142 HD
ATOM     13  H   UNL     1     -42.081  26.217   2.377  0.00  0.00    +0.142 HD
ENDBRANCH   8  11
BRANCH   6  15
ATOM     14  O   UNL     1     -36.355  22.105   2.401  0.00  0.00    -0.245 OA
ATOM     15  C   UNL     1     -36.942  22.836   3.207  0.00  0.00    +0.342 C 
BRANCH  15  16
ATOM     16  O   UNL     1     -36.637  22.915   4.538  0.00  0.00    -0.445 OA
BRANCH  16  17
ATOM     17  C   UNL     1     -35.317  22.516   4.920  0.00  0.00    +0.209 C 
ATOM     18  C   UNL     1     -35.321  22.141   6.387  0.00  0.00    +0.051 C 
ENDBRANCH  16  17
ENDBRANCH  15  16
ENDBRANCH   6  15
ENDBRANCH   2   5
BRANCH   3  19
ATOM     19  C   UNL     1     -34.605  26.559   3.957  0.00  0.00    +0.054 C 
ATOM     20  C   UNL     1     -33.754  27.559   3.488  0.00  0.00    +0.005 C 
ATOM     21  C   UNL     1     -34.486  26.100   5.269  0.00  0.00    +0.005 C 
ATOM     22  C   UNL     1     -32.664  27.642   5.643  0.00  0.00    +0.075 C 
ATOM     23  C   UNL     1     -32.783  28.101   4.330  0.00  0.00    +0.007 C 
ATOM     24  C   UNL     1     -33.516  26.642   6.112  0.00  0.00    +0.007 C 
BRANCH  22  26
ATOM     25  O   UNL     1     -31.717  29.314   7.067  0.00  0.00    -0.245 OA
ATOM     26  C   UNL     1     -31.654  28.208   6.521  0.00  0.00    +0.338 C 
BRANCH  26  27
ATOM     27  O   UNL     1     -30.591  27.375   6.697  0.00  0.00    -0.477 OA
ATOM     28  H   UNL     1     -30.412  26.704   6.068  0.00  0.00    +0.295 HD
ENDBRANCH  26  27
ENDBRANCH  22  26
ENDBRANCH   3  19
TORSDOF 8
ENDMDL
MODEL 3
REMARK VINA RESULT:      -6.0      5.528      7.353
REMARK  Name = 189795
REMARK  8 active torsions:
REMARK  status: ('A' for Active; 'I' for Inactive)
REMARK    1  A    between atoms: N_2  and  C_5
REMARK    2  A    between atoms: C_3  and  C_19
REMARK    3  A    between atoms: C_6  and  C_15
REMARK    4  A    between atoms: C_8  and  N_11
REMARK    5  A    between atoms: C_15  and  O_16
REMARK    6  A    between atoms: O_16  and  C_17
REMARK    7  A    between atoms: C_22  and  C_26
REMARK    8  A    between atoms: C_26  and  O_27
REMARK                            x       y       z     vdW  Elec       q    Type
REMARK                         _______ _______ _______ _____ _____    ______ ____
ROOT
ATOM      1  O   UNL     1     -34.313  26.958   1.486  0.00  0.00    -0.270 OA
ATOM      2  N   UNL     1     -34.773  28.181   3.435  0.00  0.00    -0.280 N 
ATOM      3  C   UNL     1     -34.617  27.004   2.688  0.00  0.00    +0.249 C 
ATOM      4  H   UNL     1     -35.017  28.058   4.381  0.00  0.00    +0.155 HD
ENDROOT
BRANCH   2   5
ATOM      5  C   UNL     1     -34.623  29.523   3.007  0.00  0.00    +0.058 C 
ATOM      6  C   UNL     1     -33.471  30.230   3.310  0.00  0.00    +0.089 C 
ATOM      7  C   UNL     1     -35.656  30.101   2.285  0.00  0.00    +0.029 C 
ATOM      8  C   UNL     1     -35.531  31.423   1.854  0.00  0.00    +0.043 C 
ATOM      9  C   UNL     1     -33.346  31.550   2.879  0.00  0.00    +0.009 C 
ATOM     10  C   UNL     1     -34.376  32.147   2.151  0.00  0.00    +0.014 C 
BRANCH   8  11
ATOM     11  N   UNL     1     -36.571  32.026   1.117  0.00  0.00    -0.357 N 
ATOM     12  H   UNL     1     -37.254  32.563   1.580  0.00  0.00    +0.142 HD
ATOM     13  H   UNL     1     -36.614  31.909   0.141  0.00  0.00    +0.142 HD
ENDBRANCH   8  11
BRANCH   6  15
ATOM     14  O   UNL     1     -31.325  29.224   3.569  0.00  0.00    -0.245 OA
ATOM     15  C   UNL     1     -32.378  29.636   4.069  0.00  0.00    +0.342 C 
BRANCH  15  16
ATOM     16  O   UNL     1     -32.662  29.596   5.407  0.00  0.00    -0.445 OA
BRANCH  16  17
ATOM     17  C   UNL     1     -31.762  28.851   6.233  0.00  0.00    +0.209 C 
ATOM     18  C   UNL     1     -32.428  27.555   6.644  0.00  0.00    +0.051 C 
ENDBRANCH  16  17
ENDBRANCH  15  16
ENDBRANCH   6  15
ENDBRANCH   2   5
BRANCH   3  19
ATOM     19  C   UNL     1     -34.864  25.762   3.403  0.00  0.00    +0.054 C 
ATOM     20  C   UNL     1     -34.950  24.559   2.702  0.00  0.00    +0.005 C 
ATOM     21  C   UNL     1     -35.017  25.773   4.789  0.00  0.00    +0.005 C 
ATOM     22  C   UNL     1     -35.341  23.379   4.774  0.00  0.00    +0.075 C 
ATOM     23  C   UNL     1     -35.188  23.368   3.387  0.00  0.00    +0.007 C 
ATOM     24  C   UNL     1     -35.255  24.582   5.475  0.00  0.00    +0.007 C 
BRANCH  22  26
ATOM     25  O   UNL     1     -36.008  22.048   6.646  0.00  0.00    -0.245 OA
ATOM     26  C   UNL     1     -35.587  22.137   5.488  0.00  0.00    +0.338 C 
BRANCH  26  27
ATOM     27  O   UNL     1     -35.303  21.038   4.736  0.00  0.00    -0.477 OA
ATOM     28  H   UNL     1     -35.667  20.952   3.877  0.00  0.00    +0.295 HD
ENDBRANCH  26  27
ENDBRANCH  22  26
ENDBRANCH   3  19
TORSDOF 8
ENDMDL
MODEL 4
REMARK VINA RESULT:      -6.0      5.220      7.490
REMARK  Name = 189795
REMARK  8 active torsions:
REMARK  status: ('A' for Active; 'I' for Inactive)
REMARK    1  A    between atoms: N_2  and  C_5
REMARK    2  A    between atoms: C_3  and  C_19
REMARK    3  A    between atoms: C_6  and  C_15
REMARK    4  A    between atoms: C_8  and  N_11
REMARK    5  A    between atoms: C_15  and  O_16
REMARK    6  A    between atoms: O_16  and  C_17
REMARK    7  A    between atoms: C_22  and  C_26
REMARK    8  A    between atoms: C_26  and  O_27
REMARK                            x       y       z     vdW  Elec       q    Type
REMARK                         _______ _______ _______ _____ _____    ______ ____
ROOT
ATOM      1  O   UNL     1     -35.033  26.245   5.969  0.00  0.00    -0.270 OA
ATOM      2  N   UNL     1     -33.422  26.606   4.302  0.00  0.00    -0.280 N 
ATOM      3  C   UNL     1     -34.435  25.881   4.944  0.00  0.00    +0.249 C 
ATOM      4  H   UNL     1     -33.040  26.186   3.496  0.00  0.00    +0.155 HD
ENDROOT
BRANCH   2   5
ATOM      5  C   UNL     1     -32.875  27.863   4.658  0.00  0.00    +0.058 C 
ATOM      6  C   UNL     1     -33.004  28.949   3.809  0.00  0.00    +0.089 C 
ATOM      7  C   UNL     1     -32.212  27.971   5.872  0.00  0.00    +0.029 C 
ATOM      8  C   UNL     1     -31.665  29.200   6.243  0.00  0.00    +0.043 C 
ATOM      9  C   UNL     1     -32.458  30.176   4.180  0.00  0.00    +0.009 C 
ATOM     10  C   UNL     1     -31.788  30.302   5.397  0.00  0.00    +0.014 C 
BRANCH   8  11
ATOM     11  N   UNL     1     -30.989  29.328   7.474  0.00  0.00    -0.357 N 
ATOM     12  H   UNL     1     -30.312  28.663   7.735  0.00  0.00    +0.142 HD
ATOM     13  H   UNL     1     -31.195  30.082   8.072  0.00  0.00    +0.142 HD
ENDBRANCH   8  11
BRANCH   6  15
ATOM     14  O   UNL     1     -33.129  28.768   1.434  0.00  0.00    -0.245 OA
ATOM     15  C   UNL     1     -33.697  28.851   2.530  0.00  0.00    +0.342 C 
BRANCH  15  16
ATOM     16  O   UNL     1     -35.054  28.859   2.694  0.00  0.00    -0.445 OA
BRANCH  16  17
ATOM     17  C   UNL     1     -35.804  29.708   1.819  0.00  0.00    +0.209 C 
ATOM     18  C   UNL     1     -35.842  31.105   2.402  0.00  0.00    +0.051 C 
ENDBRANCH  16  17
ENDBRANCH  15  16
ENDBRANCH   6  15
ENDBRANCH   2   5
BRANCH   3  19
ATOM     19  C   UNL     1     -34.768  24.595   4.352  0.00  0.00    +0.054 C 
ATOM     20  C   UNL     1     -35.188  23.541   5.163  0.00  0.00    +0.005 C 
ATOM     21  C   UNL     1     -34.666  24.415   2.972  0.00  0.00    +0.005 C 
ATOM     22  C   UNL     1     -35.405  22.127   3.215  0.00  0.00    +0.075 C 
ATOM     23  C   UNL     1     -35.507  22.307   4.596  0.00  0.00    +0.007 C 
ATOM     24  C   UNL     1     -34.985  23.182   2.404  0.00  0.00    +0.007 C 
BRANCH  22  26
ATOM     25  O   UNL     1     -34.932  20.060   2.110  0.00  0.00    -0.245 OA
ATOM     26  C   UNL     1     -35.738  20.842   2.624  0.00  0.00    +0.338 C 
BRANCH  26  27
ATOM     27  O   UNL     1     -37.070  20.567   2.690  0.00  0.00    -0.477 OA
ATOM     28  H   UNL     1     -37.500  20.154   1.967  0.00  0.00    +0.295 HD
ENDBRANCH  26  27
ENDBRANCH  22  26
ENDBRANCH   3  19
TORSDOF 8
ENDMDL
MODEL 5
REMARK VINA RESULT:      -6.0      6.396      8.536
REMARK  Name = 189795
REMARK  8 active torsions:
REMARK  status: ('A' for Active; 'I' for Inactive)
REMARK    1  A    between atoms: N_2  and  C_5
REMARK    2  A    between atoms: C_3  and  C_19
REMARK    3  A    between atoms: C_6  and  C_15
REMARK    4  A    between atoms: C_8  and  N_11
REMARK    5  A    between atoms: C_15  and  O_16
REMARK    6  A    between atoms: O_16  and  C_17
REMARK    7  A    between atoms: C_22  and  C_26
REMARK    8  A    between atoms: C_26  and  O_27
REMARK                            x       y       z     vdW  Elec       q    Type
REMARK                         _______ _______ _______ _____ _____    ______ ____
ROOT
ATOM      1  O   UNL     1     -32.196  27.218   2.571  0.00  0.00    -0.270 OA
ATOM      2  N   UNL     1     -33.057  28.419   4.393  0.00  0.00    -0.280 N 
ATOM      3  C   UNL     1     -32.907  27.283   3.586  0.00  0.00    +0.249 C 
ATOM      4  H   UNL     1     -33.657  28.318   5.168  0.00  0.00    +0.155 HD
ENDROOT
BRANCH   2   5
ATOM      5  C   UNL     1     -32.458  29.693   4.243  0.00  0.00    +0.058 C 
ATOM      6  C   UNL     1     -31.527  30.143   5.165  0.00  0.00    +0.089 C 
ATOM      7  C   UNL     1     -32.828  30.469   3.155  0.00  0.00    +0.029 C 
ATOM      8  C   UNL     1     -32.251  31.729   2.987  0.00  0.00    +0.043 C 
ATOM      9  C   UNL     1     -30.950  31.401   4.996  0.00  0.00    +0.009 C 
ATOM     10  C   UNL     1     -31.312  32.194   3.907  0.00  0.00    +0.014 C 
BRANCH   8  11
ATOM     11  N   UNL     1     -32.616  32.530   1.885  0.00  0.00    -0.357 N 
ATOM     12  H   UNL     1     -33.527  32.474   1.515  0.00  0.00    +0.142 HD
ATOM     13  H   UNL     1     -31.960  33.146   1.486  0.00  0.00    +0.142 HD
ENDBRANCH   8  11
BRANCH   6  15
ATOM     14  O   UNL     1     -31.355  29.645   7.490  0.00  0.00    -0.245 OA
ATOM     15  C   UNL     1     -31.128  29.340   6.314  0.00  0.00    +0.342 C 
BRANCH  15  16
ATOM     16  O   UNL     1     -30.473  28.203   5.927  0.00  0.00    -0.445 OA
BRANCH  16  17
ATOM     17  C   UNL     1     -29.051  28.293   5.793  0.00  0.00    +0.209 C 
ATOM     18  C   UNL     1     -28.401  27.434   6.856  0.00  0.00    +0.051 C 
ENDBRANCH  16  17
ENDBRANCH  15  16
ENDBRANCH   6  15
ENDBRANCH   2   5
BRANCH   3  19
ATOM     19  C   UNL     1     -33.679  26.116   3.984  0.00  0.00    +0.054 C 
ATOM     20  C   UNL     1     -34.074  25.961   5.312  0.00  0.00    +0.005 C 
ATOM     21  C   UNL     1     -34.023  25.150   3.038  0.00  0.00    +0.005 C 
ATOM     22  C   UNL     1     -35.157  23.876   4.748  0.00  0.00    +0.075 C 
ATOM     23  C   UNL     1     -34.813  24.841   5.695  0.00  0.00    +0.007 C 
ATOM     24  C   UNL     1     -34.761  24.031   3.419  0.00  0.00    +0.007 C 
BRANCH  22  26
ATOM     25  O   UNL     1     -35.961  22.227   6.282  0.00  0.00    -0.245 OA
ATOM     26  C   UNL     1     -35.928  22.710   5.146  0.00  0.00    +0.338 C 
BRANCH  26  27
ATOM     27  O   UNL     1     -36.638  22.177   4.113  0.00  0.00    -0.477 OA
ATOM     28  H   UNL     1     -36.618  21.254   3.958  0.00  0.00    +0.295 HD
ENDBRANCH  26  27
ENDBRANCH  22  26
ENDBRANCH   3  19
TORSDOF 8
ENDMDL
MODEL 6
REMARK VINA RESULT:      -5.8      5.018      6.534
REMARK  Name = 189795
REMARK  8 active torsions:
REMARK  status: ('A' for Active; 'I' for Inactive)
REMARK    1  A    between atoms: N_2  and  C_5
REMARK    2  A    between atoms: C_3  and  C_19
REMARK    3  A    between atoms: C_6  and  C_15
REMARK    4  A    between atoms: C_8  and  N_11
REMARK    5  A    between atoms: C_15  and  O_16
REMARK    6  A    between atoms: O_16  and  C_17
REMARK    7  A    between atoms: C_22  and  C_26
REMARK    8  A    between atoms: C_26  and  O_27
REMARK                            x       y       z     vdW  Elec       q    Type
REMARK                         _______ _______ _______ _____ _____    ______ ____
ROOT
ATOM      1  O   UNL     1     -35.608  26.463   4.939  0.00  0.00    -0.270 OA
ATOM      2  N   UNL     1     -34.632  26.936   2.859  0.00  0.00    -0.280 N 
ATOM      3  C   UNL     1     -35.193  26.094   3.829  0.00  0.00    +0.249 C 
ATOM      4  H   UNL     1     -34.348  26.496   2.024  0.00  0.00    +0.155 HD
ENDROOT
BRANCH   2   5
ATOM      5  C   UNL     1     -34.420  28.334   2.920  0.00  0.00    +0.058 C 
ATOM      6  C   UNL     1     -33.214  28.840   3.376  0.00  0.00    +0.089 C 
ATOM      7  C   UNL     1     -35.447  29.173   2.514  0.00  0.00    +0.029 C 
ATOM      8  C   UNL     1     -35.260  30.555   2.566  0.00  0.00    +0.043 C 
ATOM      9  C   UNL     1     -33.028  30.221   3.428  0.00  0.00    +0.009 C 
ATOM     10  C   UNL     1     -34.051  31.079   3.023  0.00  0.00    +0.014 C 
BRANCH   8  11
ATOM     11  N   UNL     1     -36.294  31.423   2.156  0.00  0.00    -0.357 N 
ATOM     12  H   UNL     1     -36.489  32.235   2.676  0.00  0.00    +0.142 HD
ATOM     13  H   UNL     1     -36.820  31.214   1.351  0.00  0.00    +0.142 HD
ENDBRANCH   8  11
BRANCH   6  15
ATOM     14  O   UNL     1     -31.872  26.871   3.306  0.00  0.00    -0.245 OA
ATOM     15  C   UNL     1     -32.126  27.972   3.807  0.00  0.00    +0.342 C 
BRANCH  15  16
ATOM     16  O   UNL     1     -31.417  28.531   4.835  0.00  0.00    -0.445 OA
BRANCH  16  17
ATOM     17  C   UNL     1     -31.887  28.264   6.160  0.00  0.00    +0.209 C 
ATOM     18  C   UNL     1     -31.649  29.485   7.023  0.00  0.00    +0.051 C 
ENDBRANCH  16  17
ENDBRANCH  15  16
ENDBRANCH   6  15
ENDBRANCH   2   5
BRANCH   3  19
ATOM     19  C   UNL     1     -35.256  24.682   3.486  0.00  0.00    +0.054 C 
ATOM     20  C   UNL     1     -35.781  23.766   4.396  0.00  0.00    +0.005 C 
ATOM     21  C   UNL     1     -34.791  24.245   2.245  0.00  0.00    +0.005 C 
ATOM     22  C   UNL     1     -35.375  21.973   2.827  0.00  0.00    +0.075 C 
ATOM     23  C   UNL     1     -35.840  22.411   4.068  0.00  0.00    +0.007 C 
ATOM     24  C   UNL     1     -34.850  22.891   1.916  0.00  0.00    +0.007 C 
BRANCH  22  26
ATOM     25  O   UNL     1     -34.536  19.916   1.941  0.00  0.00    -0.245 OA
ATOM     26  C   UNL     1     -35.438  20.563   2.484  0.00  0.00    +0.338 C 
BRANCH  26  27
ATOM     27  O   UNL     1     -36.626  19.995   2.830  0.00  0.00    -0.477 OA
ATOM     28  H   UNL     1     -36.642  19.148   3.230  0.00  0.00    +0.295 HD
ENDBRANCH  26  27
ENDBRANCH  22  26
ENDBRANCH   3  19
TORSDOF 8
ENDMDL
MODEL 7
REMARK VINA RESULT:      -5.6      6.153      9.108
REMARK  Name = 189795
REMARK  8 active torsions:
REMARK  status: ('A' for Active; 'I' for Inactive)
REMARK    1  A    between atoms: N_2  and  C_5
REMARK    2  A    between atoms: C_3  and  C_19
REMARK    3  A    between atoms: C_6  and  C_15
REMARK    4  A    between atoms: C_8  and  N_11
REMARK    5  A    between atoms: C_15  and  O_16
REMARK    6  A    between atoms: O_16  and  C_17
REMARK    7  A    between atoms: C_22  and  C_26
REMARK    8  A    between atoms: C_26  and  O_27
REMARK                            x       y       z     vdW  Elec       q    Type
REMARK                         _______ _______ _______ _____ _____    ______ ____
ROOT
ATOM      1  O   UNL     1     -32.037  26.690   3.336  0.00  0.00    -0.270 OA
ATOM      2  N   UNL     1     -32.985  28.097   4.956  0.00  0.00    -0.280 N 
ATOM      3  C   UNL     1     -32.999  27.037   4.039  0.00  0.00    +0.249 C 
ATOM      4  H   UNL     1     -33.827  28.253   5.443  0.00  0.00    +0.155 HD
ENDROOT
BRANCH   2   5
ATOM      5  C   UNL     1     -31.919  28.973   5.275  0.00  0.00    +0.058 C 
ATOM      6  C   UNL     1     -31.780  30.179   4.608  0.00  0.00    +0.089 C 
ATOM      7  C   UNL     1     -31.028  28.591   6.267  0.00  0.00    +0.029 C 
ATOM      8  C   UNL     1     -29.970  29.439   6.597  0.00  0.00    +0.043 C 
ATOM      9  C   UNL     1     -30.722  31.025   4.938  0.00  0.00    +0.009 C 
ATOM     10  C   UNL     1     -29.817  30.655   5.933  0.00  0.00    +0.014 C 
BRANCH   8  11
ATOM     11  N   UNL     1     -29.055  29.065   7.604  0.00  0.00    -0.357 N 
ATOM     12  H   UNL     1     -28.257  29.616   7.772  0.00  0.00    +0.142 HD
ATOM     13  H   UNL     1     -29.215  28.253   8.137  0.00  0.00    +0.142 HD
ENDBRANCH   8  11
BRANCH   6  15
ATOM     14  O   UNL     1     -32.365  30.954   2.430  0.00  0.00    -0.245 OA
ATOM     15  C   UNL     1     -32.707  30.595   3.562  0.00  0.00    +0.342 C 
BRANCH  15  16
ATOM     16  O   UNL     1     -34.004  30.533   3.991  0.00  0.00    -0.445 OA
BRANCH  16  17
ATOM     17  C   UNL     1     -35.018  30.789   3.014  0.00  0.00    +0.209 C 
ATOM     18  C   UNL     1     -35.399  29.485   2.346  0.00  0.00    +0.051 C 
ENDBRANCH  16  17
ENDBRANCH  15  16
ENDBRANCH   6  15
ENDBRANCH   2   5
BRANCH   3  19
ATOM     19  C   UNL     1     -34.262  26.327   3.910  0.00  0.00    +0.054 C 
ATOM     20  C   UNL     1     -34.613  25.746   2.691  0.00  0.00    +0.005 C 
ATOM     21  C   UNL     1     -35.122  26.228   5.003  0.00  0.00    +0.005 C 
ATOM     22  C   UNL     1     -36.686  24.967   3.660  0.00  0.00    +0.075 C 
ATOM     23  C   UNL     1     -35.825  25.067   2.566  0.00  0.00    +0.007 C 
ATOM     24  C   UNL     1     -36.333  25.548   4.879  0.00  0.00    +0.007 C 
BRANCH  22  26
ATOM     25  O   UNL     1     -38.085  23.119   3.071  0.00  0.00    -0.245 OA
ATOM     26  C   UNL     1     -37.947  24.258   3.530  0.00  0.00    +0.338 C 
BRANCH  26  27
ATOM     27  O   UNL     1     -39.005  24.989   3.977  0.00  0.00    -0.477 OA
ATOM     28  H   UNL     1     -39.612  25.359   3.366  0.00  0.00    +0.295 HD
ENDBRANCH  26  27
ENDBRANCH  22  26
ENDBRANCH   3  19
TORSDOF 8
ENDMDL
MODEL 8
REMARK VINA RESULT:      -5.6      3.308      8.012
REMARK  Name = 189795
REMARK  8 active torsions:
REMARK  status: ('A' for Active; 'I' for Inactive)
REMARK    1  A    between atoms: N_2  and  C_5
REMARK    2  A    between atoms: C_3  and  C_19
REMARK    3  A    between atoms: C_6  and  C_15
REMARK    4  A    between atoms: C_8  and  N_11
REMARK    5  A    between atoms: C_15  and  O_16
REMARK    6  A    between atoms: O_16  and  C_17
REMARK    7  A    between atoms: C_22  and  C_26
REMARK    8  A    between atoms: C_26  and  O_27
REMARK                            x       y       z     vdW  Elec       q    Type
REMARK                         _______ _______ _______ _____ _____    ______ ____
ROOT
ATOM      1  O   UNL     1     -38.302  24.108   0.193  0.00  0.00    -0.270 OA
ATOM      2  N   UNL     1     -38.304  23.132   2.326  0.00  0.00    -0.280 N 
ATOM      3  C   UNL     1     -38.730  24.050   1.357  0.00  0.00    +0.249 C 
ATOM      4  H   UNL     1     -38.737  23.209   3.208  0.00  0.00    +0.155 HD
ENDROOT
BRANCH   2   5
ATOM      5  C   UNL     1     -37.334  22.107   2.205  0.00  0.00    +0.058 C 
ATOM      6  C   UNL     1     -36.082  22.258   2.778  0.00  0.00    +0.089 C 
ATOM      7  C   UNL     1     -37.672  20.961   1.501  0.00  0.00    +0.029 C 
ATOM      8  C   UNL     1     -36.731  19.939   1.368  0.00  0.00    +0.043 C 
ATOM      9  C   UNL     1     -35.142  21.237   2.645  0.00  0.00    +0.009 C 
ATOM     10  C   UNL     1     -35.466  20.077   1.940  0.00  0.00    +0.014 C 
BRANCH   8  11
ATOM     11  N   UNL     1     -37.059  18.767   0.657  0.00  0.00    -0.357 N 
ATOM     12  H   UNL     1     -37.795  18.777   0.003  0.00  0.00    +0.142 HD
ATOM     13  H   UNL     1     -36.552  17.938   0.815  0.00  0.00    +0.142 HD
ENDBRANCH   8  11
BRANCH   6  15
ATOM     14  O   UNL     1     -34.943  24.328   3.095  0.00  0.00    -0.245 OA
ATOM     15  C   UNL     1     -35.710  23.456   3.519  0.00  0.00    +0.342 C 
BRANCH  15  16
ATOM     16  O   UNL     1     -36.321  23.497   4.742  0.00  0.00    -0.445 OA
BRANCH  16  17
ATOM     17  C   UNL     1     -35.465  23.497   5.889  0.00  0.00    +0.209 C 
ATOM     18  C   UNL     1     -35.274  22.072   6.362  0.00  0.00    +0.051 C 
ENDBRANCH  16  17
ENDBRANCH  15  16
ENDBRANCH   6  15
ENDBRANCH   2   5
BRANCH   3  19
ATOM     19  C   UNL     1     -39.733  25.010   1.789  0.00  0.00    +0.054 C 
ATOM     20  C   UNL     1     -40.025  25.150   3.146  0.00  0.00    +0.005 C 
ATOM     21  C   UNL     1     -40.405  25.790   0.848  0.00  0.00    +0.005 C 
ATOM     22  C   UNL     1     -41.660  26.850   2.620  0.00  0.00    +0.075 C 
ATOM     23  C   UNL     1     -40.988  26.069   3.562  0.00  0.00    +0.007 C 
ATOM     24  C   UNL     1     -41.368  26.710   1.263  0.00  0.00    +0.007 C 
BRANCH  22  26
ATOM     25  O   UNL     1     -42.436  28.967   3.417  0.00  0.00    -0.245 OA
ATOM     26  C   UNL     1     -42.662  27.809   3.053  0.00  0.00    +0.338 C 
BRANCH  26  27
ATOM     27  O   UNL     1     -43.923  27.296   3.019  0.00  0.00    -0.477 OA
ATOM     28  H   UNL     1     -44.427  27.342   2.230  0.00  0.00    +0.295 HD
ENDBRANCH  26  27
ENDBRANCH  22  26
ENDBRANCH   3  19
TORSDOF 8
ENDMDL
MODEL 9
REMARK VINA RESULT:      -5.6      4.047      6.580
REMARK  Name = 189795
REMARK  8 active torsions:
REMARK  status: ('A' for Active; 'I' for Inactive)
REMARK    1  A    between atoms: N_2  and  C_5
REMARK    2  A    between atoms: C_3  and  C_19
REMARK    3  A    between atoms: C_6  and  C_15
REMARK    4  A    between atoms: C_8  and  N_11
REMARK    5  A    between atoms: C_15  and  O_16
REMARK    6  A    between atoms: O_16  and  C_17
REMARK    7  A    between atoms: C_22  and  C_26
REMARK    8  A    between atoms: C_26  and  O_27
REMARK                            x       y       z     vdW  Elec       q    Type
REMARK                         _______ _______ _______ _____ _____    ______ ____
ROOT
ATOM      1  O   UNL     1     -34.853  24.814   1.613  0.00  0.00    -0.270 OA
ATOM      2  N   UNL     1     -36.050  23.998   3.458  0.00  0.00    -0.280 N 
ATOM      3  C   UNL     1     -35.089  24.802   2.831  0.00  0.00    +0.249 C 
ATOM      4  H   UNL     1     -36.122  24.099   4.435  0.00  0.00    +0.155 HD
ENDROOT
BRANCH   2   5
ATOM      5  C   UNL     1     -36.933  23.058   2.871  0.00  0.00    +0.058 C 
ATOM      6  C   UNL     1     -38.271  23.371   2.693  0.00  0.00    +0.089 C 
ATOM      7  C   UNL     1     -36.422  21.829   2.484  0.00  0.00    +0.029 C 
ATOM      8  C   UNL     1     -37.274  20.888   1.904  0.00  0.00    +0.043 C 
ATOM      9  C   UNL     1     -39.121  22.431   2.114  0.00  0.00    +0.009 C 
ATOM     10  C   UNL     1     -38.623  21.188   1.719  0.00  0.00    +0.014 C 
BRANCH   8  11
ATOM     11  N   UNL     1     -36.770  19.633   1.503  0.00  0.00    -0.357 N 
ATOM     12  H   UNL     1     -37.112  19.203   0.686  0.00  0.00    +0.142 HD
ATOM     13  H   UNL     1     -36.077  19.186   2.042  0.00  0.00    +0.142 HD
ENDBRANCH   8  11
BRANCH   6  15
ATOM     14  O   UNL     1     -39.804  24.794   3.837  0.00  0.00    -0.245 OA
ATOM     15  C   UNL     1     -38.823  24.658   3.096  0.00  0.00    +0.342 C 
BRANCH  15  16
ATOM     16  O   UNL     1     -38.118  25.697   2.554  0.00  0.00    -0.445 OA
BRANCH  16  17
ATOM     17  C   UNL     1     -38.590  26.214   1.306  0.00  0.00    +0.209 C 
ATOM     18  C   UNL     1     -37.518  27.094   0.700  0.00  0.00    +0.051 C 
ENDBRANCH  16  17
ENDBRANCH  15  16
ENDBRANCH   6  15
ENDBRANCH   2   5
BRANCH   3  19
ATOM     19  C   UNL     1     -34.308  25.659   3.710  0.00  0.00    +0.054 C 
ATOM     20  C   UNL     1     -33.437  26.604   3.168  0.00  0.00    +0.005 C 
ATOM     21  C   UNL     1     -34.428  25.534   5.094  0.00  0.00    +0.005 C 
ATOM     22  C   UNL     1     -32.807  27.300   5.395  0.00  0.00    +0.075 C 
ATOM     23  C   UNL     1     -32.687  27.425   4.010  0.00  0.00    +0.007 C 
ATOM     24  C   UNL     1     -33.678  26.354   5.936  0.00  0.00    +0.007 C 
BRANCH  22  26
ATOM     25  O   UNL     1     -32.225  29.361   6.460  0.00  0.00    -0.245 OA
ATOM     26  C   UNL     1     -32.027  28.156   6.273  0.00  0.00    +0.338 C 
BRANCH  26  27
ATOM     27  O   UNL     1     -31.019  27.484   6.895  0.00  0.00    -0.477 OA
ATOM     28  H   UNL     1     -30.128  27.736   6.751  0.00  0.00    +0.295 HD
ENDBRANCH  26  27
ENDBRANCH  22  26
ENDBRANCH   3  19
TORSDOF 8
ENDMDL
