MODEL 1
REMARK VINA RESULT:      -6.3      0.000      0.000
REMARK  Name = 191170
REMARK  7 active torsions:
REMARK  status: ('A' for Active; 'I' for Inactive)
REMARK    1  A    between atoms: C_2  and  O_20
REMARK    2  A    between atoms: C_3  and  O_22
REMARK    3  A    between atoms: C_4  and  O_24
REMARK    4  A    between atoms: C_5  and  C_26
REMARK    5  A    between atoms: C_6  and  N_8
REMARK    6  A    between atoms: C_12  and  C_15
REMARK    7  A    between atoms: C_26  and  O_27
REMARK                            x       y       z     vdW  Elec       q    Type
REMARK                         _______ _______ _______ _____ _____    ______ ____
ROOT
ATOM      1  O   UNL     1     -34.798  23.873   3.235  0.00  0.00    -0.333 OA
ATOM      2  C   UNL     1     -37.440  24.722   3.952  0.00  0.00    +0.171 C 
ATOM      3  C   UNL     1     -37.189  23.490   3.082  0.00  0.00    +0.169 C 
ATOM      4  C   UNL     1     -36.260  25.695   3.906  0.00  0.00    +0.186 C 
ATOM      5  C   UNL     1     -35.818  22.884   3.396  0.00  0.00    +0.175 C 
ATOM      6  C   UNL     1     -34.937  24.965   4.144  0.00  0.00    +0.222 C 
ENDROOT
BRANCH   6   8
ATOM      7  O   UNL     1     -32.255  27.438   4.592  0.00  0.00    -0.405 OA
ATOM      8  N   UNL     1     -33.835  25.885   3.955  0.00  0.00    -0.263 N 
ATOM      9  N   UNL     1     -33.595  26.686   6.218  0.00  0.00    -0.092 NA
ATOM     10  N   UNL     1     -32.720  27.600   6.774  0.00  0.00    -0.106 NA
ATOM     11  C   UNL     1     -33.283  26.630   4.952  0.00  0.00    +0.310 A 
ATOM     12  C   UNL     1     -31.956  28.012   5.790  0.00  0.00    +0.253 A 
ATOM     13  H   UNL     1     -33.462  25.976   3.049  0.00  0.00    +0.153 HD
BRANCH  12  15
ATOM     14  N   UNL     1     -28.599  29.504   6.398  0.00  0.00    -0.242 NA
ATOM     15  C   UNL     1     -30.877  28.957   5.781  0.00  0.00    +0.074 C 
ATOM     16  C   UNL     1     -31.015  30.206   5.180  0.00  0.00    +0.008 C 
ATOM     17  C   UNL     1     -29.656  28.661   6.371  0.00  0.00    +0.104 C 
ATOM     18  C   UNL     1     -29.951  31.101   5.186  0.00  0.00    +0.021 C 
ATOM     19  C   UNL     1     -28.775  30.705   5.804  0.00  0.00    +0.099 C 
ENDBRANCH  12  15
ENDBRANCH   6   8
BRANCH   2  20
ATOM     20  O   UNL     1     -38.619  25.391   3.498  0.00  0.00    -0.379 OA
ATOM     21  H   UNL     1     -38.701  26.245   3.948  0.00  0.00    +0.211 HD
ENDBRANCH   2  20
BRANCH   3  22
ATOM     22  O   UNL     1     -38.223  22.545   3.343  0.00  0.00    -0.379 OA
ATOM     23  H   UNL     1     -37.835  21.732   3.705  0.00  0.00    +0.211 HD
ENDBRANCH   3  22
BRANCH   4  24
ATOM     24  O   UNL     1     -36.436  26.681   4.923  0.00  0.00    -0.378 OA
ATOM     25  H   UNL     1     -37.179  26.429   5.493  0.00  0.00    +0.211 HD
ENDBRANCH   4  24
BRANCH   5  26
ATOM     26  C   UNL     1     -35.472  21.725   2.465  0.00  0.00    +0.169 C 
BRANCH  26  27
ATOM     27  O   UNL     1     -35.965  20.526   3.036  0.00  0.00    -0.379 OA
ATOM     28  H   UNL     1     -36.589  20.109   2.421  0.00  0.00    +0.211 HD
ENDBRANCH  26  27
ENDBRANCH   5  26
TORSDOF 7
ENDMDL
MODEL 2
REMARK VINA RESULT:      -6.3      1.550      1.834
REMARK  Name = 191170
REMARK  7 active torsions:
REMARK  status: ('A' for Active; 'I' for Inactive)
REMARK    1  A    between atoms: C_2  and  O_20
REMARK    2  A    between atoms: C_3  and  O_22
REMARK    3  A    between atoms: C_4  and  O_24
REMARK    4  A    between atoms: C_5  and  C_26
REMARK    5  A    between atoms: C_6  and  N_8
REMARK    6  A    between atoms: C_12  and  C_15
REMARK    7  A    between atoms: C_26  and  O_27
REMARK                            x       y       z     vdW  Elec       q    Type
REMARK                         _______ _______ _______ _____ _____    ______ ____
ROOT
ATOM      1  O   UNL     1     -34.810  24.200   5.610  0.00  0.00    -0.333 OA
ATOM      2  C   UNL     1     -36.566  24.149   3.344  0.00  0.00    +0.171 C 
ATOM      3  C   UNL     1     -35.853  22.894   3.850  0.00  0.00    +0.169 C 
ATOM      4  C   UNL     1     -35.841  25.423   3.780  0.00  0.00    +0.186 C 
ATOM      5  C   UNL     1     -35.562  23.011   5.349  0.00  0.00    +0.175 C 
ATOM      6  C   UNL     1     -35.524  25.390   5.276  0.00  0.00    +0.222 C 
ENDROOT
BRANCH   6   8
ATOM      7  O   UNL     1     -32.938  27.996   5.452  0.00  0.00    -0.405 OA
ATOM      8  N   UNL     1     -34.717  26.541   5.625  0.00  0.00    -0.263 N 
ATOM      9  N   UNL     1     -32.954  26.298   3.996  0.00  0.00    -0.092 NA
ATOM     10  N   UNL     1     -31.828  27.061   3.750  0.00  0.00    -0.106 NA
ATOM     11  C   UNL     1     -33.561  26.884   4.992  0.00  0.00    +0.310 A 
ATOM     12  C   UNL     1     -31.859  28.041   4.622  0.00  0.00    +0.253 A 
ATOM     13  H   UNL     1     -35.025  27.112   6.366  0.00  0.00    +0.153 HD
BRANCH  12  15
ATOM     14  N   UNL     1     -28.726  29.887   5.423  0.00  0.00    -0.242 NA
ATOM     15  C   UNL     1     -30.950  29.130   4.832  0.00  0.00    +0.074 C 
ATOM     16  C   UNL     1     -31.356  30.452   4.665  0.00  0.00    +0.008 C 
ATOM     17  C   UNL     1     -29.633  28.907   5.210  0.00  0.00    +0.104 C 
ATOM     18  C   UNL     1     -30.452  31.488   4.875  0.00  0.00    +0.021 C 
ATOM     19  C   UNL     1     -29.161  31.154   5.250  0.00  0.00    +0.099 C 
ENDBRANCH  12  15
ENDBRANCH   6   8
BRANCH   2  20
ATOM     20  O   UNL     1     -36.636  24.111   1.917  0.00  0.00    -0.379 OA
ATOM     21  H   UNL     1     -36.761  25.010   1.575  0.00  0.00    +0.211 HD
ENDBRANCH   2  20
BRANCH   3  22
ATOM     22  O   UNL     1     -36.693  21.772   3.592  0.00  0.00    -0.379 OA
ATOM     23  H   UNL     1     -37.604  21.983   3.852  0.00  0.00    +0.211 HD
ENDBRANCH   3  22
BRANCH   4  24
ATOM     24  O   UNL     1     -36.679  26.546   3.508  0.00  0.00    -0.378 OA
ATOM     25  H   UNL     1     -36.727  26.689   2.549  0.00  0.00    +0.211 HD
ENDBRANCH   4  24
BRANCH   5  26
ATOM     26  C   UNL     1     -34.741  21.836   5.872  0.00  0.00    +0.169 C 
BRANCH  26  27
ATOM     27  O   UNL     1     -35.563  20.682   5.883  0.00  0.00    -0.379 OA
ATOM     28  H   UNL     1     -35.669  20.353   4.976  0.00  0.00    +0.211 HD
ENDBRANCH  26  27
ENDBRANCH   5  26
TORSDOF 7
ENDMDL
MODEL 3
REMARK VINA RESULT:      -6.3      1.757      2.580
REMARK  Name = 191170
REMARK  7 active torsions:
REMARK  status: ('A' for Active; 'I' for Inactive)
REMARK    1  A    between atoms: C_2  and  O_20
REMARK    2  A    between atoms: C_3  and  O_22
REMARK    3  A    between atoms: C_4  and  O_24
REMARK    4  A    between atoms: C_5  and  C_26
REMARK    5  A    between atoms: C_6  and  N_8
REMARK    6  A    between atoms: C_12  and  C_15
REMARK    7  A    between atoms: C_26  and  O_27
REMARK                            x       y       z     vdW  Elec       q    Type
REMARK                         _______ _______ _______ _____ _____    ______ ____
ROOT
ATOM      1  O   UNL     1     -36.612  23.430   2.919  0.00  0.00    -0.333 OA
ATOM      2  C   UNL     1     -39.468  23.410   2.667  0.00  0.00    +0.171 C 
ATOM      3  C   UNL     1     -38.591  22.302   2.082  0.00  0.00    +0.169 C 
ATOM      4  C   UNL     1     -38.680  24.707   2.865  0.00  0.00    +0.186 C 
ATOM      5  C   UNL     1     -37.290  22.171   2.880  0.00  0.00    +0.175 C 
ATOM      6  C   UNL     1     -37.361  24.441   3.593  0.00  0.00    +0.222 C 
ENDROOT
BRANCH   6   8
ATOM      7  O   UNL     1     -34.789  26.992   4.216  0.00  0.00    -0.405 OA
ATOM      8  N   UNL     1     -36.579  25.659   3.639  0.00  0.00    -0.263 N 
ATOM      9  N   UNL     1     -34.710  24.881   4.950  0.00  0.00    -0.092 NA
ATOM     10  N   UNL     1     -33.567  25.527   5.385  0.00  0.00    -0.106 NA
ATOM     11  C   UNL     1     -35.383  25.775   4.278  0.00  0.00    +0.310 A 
ATOM     12  C   UNL     1     -33.656  26.756   4.933  0.00  0.00    +0.253 A 
ATOM     13  H   UNL     1     -36.935  26.453   3.179  0.00  0.00    +0.153 HD
BRANCH  12  15
ATOM     14  N   UNL     1     -31.672  29.791   4.084  0.00  0.00    -0.242 NA
ATOM     15  C   UNL     1     -32.760  27.867   5.076  0.00  0.00    +0.074 C 
ATOM     16  C   UNL     1     -32.115  28.125   6.284  0.00  0.00    +0.008 C 
ATOM     17  C   UNL     1     -32.504  28.727   4.017  0.00  0.00    +0.104 C 
ATOM     18  C   UNL     1     -31.253  29.210   6.393  0.00  0.00    +0.021 C 
ATOM     19  C   UNL     1     -31.067  30.005   5.273  0.00  0.00    +0.099 C 
ENDBRANCH  12  15
ENDBRANCH   6   8
BRANCH   2  20
ATOM     20  O   UNL     1     -40.567  23.658   1.788  0.00  0.00    -0.379 OA
ATOM     21  H   UNL     1     -41.332  23.958   2.303  0.00  0.00    +0.211 HD
ENDBRANCH   2  20
BRANCH   3  22
ATOM     22  O   UNL     1     -39.328  21.084   2.127  0.00  0.00    -0.379 OA
ATOM     23  H   UNL     1     -39.735  20.984   3.003  0.00  0.00    +0.211 HD
ENDBRANCH   3  22
BRANCH   4  24
ATOM     24  O   UNL     1     -39.466  25.609   3.643  0.00  0.00    -0.378 OA
ATOM     25  H   UNL     1     -39.201  25.548   4.574  0.00  0.00    +0.211 HD
ENDBRANCH   4  24
BRANCH   5  26
ATOM     26  C   UNL     1     -36.330  21.162   2.258  0.00  0.00    +0.169 C 
BRANCH  26  27
ATOM     27  O   UNL     1     -36.712  19.862   2.672  0.00  0.00    -0.379 OA
ATOM     28  H   UNL     1     -36.500  19.748   3.612  0.00  0.00    +0.211 HD
ENDBRANCH  26  27
ENDBRANCH   5  26
TORSDOF 7
ENDMDL
MODEL 4
REMARK VINA RESULT:      -6.0      5.703      9.107
REMARK  Name = 191170
REMARK  7 active torsions:
REMARK  status: ('A' for Active; 'I' for Inactive)
REMARK    1  A    between atoms: C_2  and  O_20
REMARK    2  A    between atoms: C_3  and  O_22
REMARK    3  A    between atoms: C_4  and  O_24
REMARK    4  A    between atoms: C_5  and  C_26
REMARK    5  A    between atoms: C_6  and  N_8
REMARK    6  A    between atoms: C_12  and  C_15
REMARK    7  A    between atoms: C_26  and  O_27
REMARK                            x       y       z     vdW  Elec       q    Type
REMARK                         _______ _______ _______ _____ _____    ______ ____
ROOT
ATOM      1  O   UNL     1     -38.567  23.190   2.854  0.00  0.00    -0.333 OA
ATOM      2  C   UNL     1     -35.977  24.208   3.543  0.00  0.00    +0.171 C 
ATOM      3  C   UNL     1     -36.185  22.773   3.055  0.00  0.00    +0.169 C 
ATOM      4  C   UNL     1     -37.261  24.795   4.130  0.00  0.00    +0.186 C 
ATOM      5  C   UNL     1     -37.423  22.687   2.158  0.00  0.00    +0.175 C 
ATOM      6  C   UNL     1     -38.447  24.573   3.190  0.00  0.00    +0.222 C 
ENDROOT
BRANCH   6   8
ATOM      7  O   UNL     1     -41.607  26.236   4.058  0.00  0.00    -0.405 OA
ATOM      8  N   UNL     1     -39.667  25.013   3.835  0.00  0.00    -0.263 N 
ATOM      9  N   UNL     1     -40.423  26.617   2.199  0.00  0.00    -0.092 NA
ATOM     10  N   UNL     1     -41.542  27.428   2.166  0.00  0.00    -0.106 NA
ATOM     11  C   UNL     1     -40.510  25.948   3.316  0.00  0.00    +0.310 A 
ATOM     12  C   UNL     1     -42.204  27.172   3.270  0.00  0.00    +0.253 A 
ATOM     13  H   UNL     1     -39.900  24.610   4.702  0.00  0.00    +0.153 HD
BRANCH  12  15
ATOM     14  N   UNL     1     -44.898  29.631   4.024  0.00  0.00    -0.242 NA
ATOM     15  C   UNL     1     -43.436  27.716   3.764  0.00  0.00    +0.074 C 
ATOM     16  C   UNL     1     -44.356  26.920   4.443  0.00  0.00    +0.008 C 
ATOM     17  C   UNL     1     -43.756  29.055   3.585  0.00  0.00    +0.104 C 
ATOM     18  C   UNL     1     -45.543  27.476   4.910  0.00  0.00    +0.021 C 
ATOM     19  C   UNL     1     -45.763  28.824   4.677  0.00  0.00    +0.099 C 
ENDBRANCH  12  15
ENDBRANCH   6   8
BRANCH   2  20
ATOM     20  O   UNL     1     -34.953  24.225   4.540  0.00  0.00    -0.379 OA
ATOM     21  H   UNL     1     -34.963  25.078   5.000  0.00  0.00    +0.211 HD
ENDBRANCH   2  20
BRANCH   3  22
ATOM     22  O   UNL     1     -35.021  22.376   2.336  0.00  0.00    -0.379 OA
ATOM     23  H   UNL     1     -34.228  22.641   2.831  0.00  0.00    +0.211 HD
ENDBRANCH   3  22
BRANCH   4  24
ATOM     24  O   UNL     1     -37.080  26.197   4.325  0.00  0.00    -0.378 OA
ATOM     25  H   UNL     1     -36.168  26.440   4.098  0.00  0.00    +0.211 HD
ENDBRANCH   4  24
BRANCH   5  26
ATOM     26  C   UNL     1     -37.741  21.252   1.748  0.00  0.00    +0.169 C 
BRANCH  26  27
ATOM     27  O   UNL     1     -37.071  20.372   2.632  0.00  0.00    -0.379 OA
ATOM     28  H   UNL     1     -36.847  20.844   3.450  0.00  0.00    +0.211 HD
ENDBRANCH  26  27
ENDBRANCH   5  26
TORSDOF 7
ENDMDL
MODEL 5
REMARK VINA RESULT:      -6.0      4.951      8.621
REMARK  Name = 191170
REMARK  7 active torsions:
REMARK  status: ('A' for Active; 'I' for Inactive)
REMARK    1  A    between atoms: C_2  and  O_20
REMARK    2  A    between atoms: C_3  and  O_22
REMARK    3  A    between atoms: C_4  and  O_24
REMARK    4  A    between atoms: C_5  and  C_26
REMARK    5  A    between atoms: C_6  and  N_8
REMARK    6  A    between atoms: C_12  and  C_15
REMARK    7  A    between atoms: C_26  and  O_27
REMARK                            x       y       z     vdW  Elec       q    Type
REMARK                         _______ _______ _______ _____ _____    ______ ____
ROOT
ATOM      1  O   UNL     1     -36.894  23.566   3.465  0.00  0.00    -0.333 OA
ATOM      2  C   UNL     1     -35.407  24.824   5.569  0.00  0.00    +0.171 C 
ATOM      3  C   UNL     1     -36.108  25.629   4.473  0.00  0.00    +0.169 C 
ATOM      4  C   UNL     1     -35.121  23.390   5.119  0.00  0.00    +0.186 C 
ATOM      5  C   UNL     1     -37.311  24.854   3.927  0.00  0.00    +0.175 C 
ATOM      6  C   UNL     1     -36.368  22.747   4.510  0.00  0.00    +0.222 C 
ENDROOT
BRANCH   6   8
ATOM      7  O   UNL     1     -35.105  19.971   2.458  0.00  0.00    -0.405 OA
ATOM      8  N   UNL     1     -36.028  21.447   3.969  0.00  0.00    -0.263 N 
ATOM      9  N   UNL     1     -34.853  22.142   1.980  0.00  0.00    -0.092 NA
ATOM     10  N   UNL     1     -34.244  21.410   0.977  0.00  0.00    -0.106 NA
ATOM     11  C   UNL     1     -35.336  21.260   2.812  0.00  0.00    +0.310 A 
ATOM     12  C   UNL     1     -34.416  20.149   1.297  0.00  0.00    +0.253 A 
ATOM     13  H   UNL     1     -36.315  20.650   4.470  0.00  0.00    +0.153 HD
BRANCH  12  15
ATOM     14  N   UNL     1     -34.330  17.360  -1.168  0.00  0.00    -0.242 NA
ATOM     15  C   UNL     1     -33.997  18.953   0.626  0.00  0.00    +0.074 C 
ATOM     16  C   UNL     1     -32.896  18.223   1.071  0.00  0.00    +0.008 C 
ATOM     17  C   UNL     1     -34.672  18.478  -0.490  0.00  0.00    +0.104 C 
ATOM     18  C   UNL     1     -32.513  17.067   0.399  0.00  0.00    +0.021 C 
ATOM     19  C   UNL     1     -33.257  16.682  -0.704  0.00  0.00    +0.099 C 
ENDBRANCH  12  15
ENDBRANCH   6   8
BRANCH   2  20
ATOM     20  O   UNL     1     -34.175  25.464   5.911  0.00  0.00    -0.379 OA
ATOM     21  H   UNL     1     -34.059  26.256   5.365  0.00  0.00    +0.211 HD
ENDBRANCH   2  20
BRANCH   3  22
ATOM     22  O   UNL     1     -36.528  26.869   5.035  0.00  0.00    -0.379 OA
ATOM     23  H   UNL     1     -37.249  27.239   4.500  0.00  0.00    +0.211 HD
ENDBRANCH   3  22
BRANCH   4  24
ATOM     24  O   UNL     1     -34.710  22.625   6.252  0.00  0.00    -0.378 OA
ATOM     25  H   UNL     1     -34.171  21.874   5.957  0.00  0.00    +0.211 HD
ENDBRANCH   4  24
BRANCH   5  26
ATOM     26  C   UNL     1     -37.968  25.564   2.747  0.00  0.00    +0.169 C 
BRANCH  26  27
ATOM     27  O   UNL     1     -38.920  26.485   3.249  0.00  0.00    -0.379 OA
ATOM     28  H   UNL     1     -38.531  26.982   3.986  0.00  0.00    +0.211 HD
ENDBRANCH  26  27
ENDBRANCH   5  26
TORSDOF 7
ENDMDL
MODEL 6
REMARK VINA RESULT:      -5.6      3.106      4.049
REMARK  Name = 191170
REMARK  7 active torsions:
REMARK  status: ('A' for Active; 'I' for Inactive)
REMARK    1  A    between atoms: C_2  and  O_20
REMARK    2  A    between atoms: C_3  and  O_22
REMARK    3  A    between atoms: C_4  and  O_24
REMARK    4  A    between atoms: C_5  and  C_26
REMARK    5  A    between atoms: C_6  and  N_8
REMARK    6  A    between atoms: C_12  and  C_15
REMARK    7  A    between atoms: C_26  and  O_27
REMARK                            x       y       z     vdW  Elec       q    Type
REMARK                         _______ _______ _______ _____ _____    ______ ____
ROOT
ATOM      1  O   UNL     1     -36.704  26.303   3.350  0.00  0.00    -0.333 OA
ATOM      2  C   UNL     1     -35.193  24.227   4.626  0.00  0.00    +0.171 C 
ATOM      3  C   UNL     1     -36.664  24.049   4.248  0.00  0.00    +0.169 C 
ATOM      4  C   UNL     1     -34.823  25.705   4.770  0.00  0.00    +0.186 C 
ATOM      5  C   UNL     1     -37.022  24.941   3.055  0.00  0.00    +0.175 C 
ATOM      6  C   UNL     1     -35.308  26.512   3.564  0.00  0.00    +0.222 C 
ENDROOT
BRANCH   6   8
ATOM      7  O   UNL     1     -34.120  29.987   3.413  0.00  0.00    -0.405 OA
ATOM      8  N   UNL     1     -35.068  27.921   3.796  0.00  0.00    -0.263 N 
ATOM      9  N   UNL     1     -33.477  28.347   2.034  0.00  0.00    -0.092 NA
ATOM     10  N   UNL     1     -32.815  29.502   1.661  0.00  0.00    -0.106 NA
ATOM     11  C   UNL     1     -34.219  28.683   3.053  0.00  0.00    +0.310 A 
ATOM     12  C   UNL     1     -33.221  30.433   2.492  0.00  0.00    +0.253 A 
ATOM     13  H   UNL     1     -35.550  28.355   4.537  0.00  0.00    +0.153 HD
BRANCH  12  15
ATOM     14  N   UNL     1     -31.273  33.516   3.247  0.00  0.00    -0.242 NA
ATOM     15  C   UNL     1     -32.870  31.821   2.579  0.00  0.00    +0.074 C 
ATOM     16  C   UNL     1     -33.727  32.814   2.108  0.00  0.00    +0.008 C 
ATOM     17  C   UNL     1     -31.665  32.227   3.136  0.00  0.00    +0.104 C 
ATOM     18  C   UNL     1     -33.360  34.151   2.205  0.00  0.00    +0.021 C 
ATOM     19  C   UNL     1     -32.134  34.446   2.779  0.00  0.00    +0.099 C 
ENDBRANCH  12  15
ENDBRANCH   6   8
BRANCH   2  20
ATOM     20  O   UNL     1     -34.937  23.556   5.862  0.00  0.00    -0.379 OA
ATOM     21  H   UNL     1     -35.186  24.132   6.600  0.00  0.00    +0.211 HD
ENDBRANCH   2  20
BRANCH   3  22
ATOM     22  O   UNL     1     -36.875  22.677   3.925  0.00  0.00    -0.379 OA
ATOM     23  H   UNL     1     -36.443  22.472   3.081  0.00  0.00    +0.211 HD
ENDBRANCH   3  22
BRANCH   4  24
ATOM     24  O   UNL     1     -33.404  25.818   4.864  0.00  0.00    -0.378 OA
ATOM     25  H   UNL     1     -33.095  26.517   4.266  0.00  0.00    +0.211 HD
ENDBRANCH   4  24
BRANCH   5  26
ATOM     26  C   UNL     1     -38.510  24.888   2.721  0.00  0.00    +0.169 C 
BRANCH  26  27
ATOM     27  O   UNL     1     -39.240  24.790   3.930  0.00  0.00    -0.379 OA
ATOM     28  H   UNL     1     -40.177  24.635   3.730  0.00  0.00    +0.211 HD
ENDBRANCH  26  27
ENDBRANCH   5  26
TORSDOF 7
ENDMDL
MODEL 7
REMARK VINA RESULT:      -5.5      4.259      8.439
REMARK  Name = 191170
REMARK  7 active torsions:
REMARK  status: ('A' for Active; 'I' for Inactive)
REMARK    1  A    between atoms: C_2  and  O_20
REMARK    2  A    between atoms: C_3  and  O_22
REMARK    3  A    between atoms: C_4  and  O_24
REMARK    4  A    between atoms: C_5  and  C_26
REMARK    5  A    between atoms: C_6  and  N_8
REMARK    6  A    between atoms: C_12  and  C_15
REMARK    7  A    between atoms: C_26  and  O_27
REMARK                            x       y       z     vdW  Elec       q    Type
REMARK                         _______ _______ _______ _____ _____    ______ ____
ROOT
ATOM      1  O   UNL     1     -34.601  24.669   3.020  0.00  0.00    -0.333 OA
ATOM      2  C   UNL     1     -37.381  25.195   3.486  0.00  0.00    +0.171 C 
ATOM      3  C   UNL     1     -36.302  25.551   4.510  0.00  0.00    +0.169 C 
ATOM      4  C   UNL     1     -36.912  24.093   2.533  0.00  0.00    +0.186 C 
ATOM      5  C   UNL     1     -34.963  25.805   3.811  0.00  0.00    +0.175 C 
ATOM      6  C   UNL     1     -35.528  24.412   1.965  0.00  0.00    +0.222 C 
ENDROOT
BRANCH   6   8
ATOM      7  O   UNL     1     -34.477  21.093   0.786  0.00  0.00    -0.405 OA
ATOM      8  N   UNL     1     -35.056  23.288   1.182  0.00  0.00    -0.263 N 
ATOM      9  N   UNL     1     -35.196  21.555   2.854  0.00  0.00    -0.092 NA
ATOM     10  N   UNL     1     -34.897  20.206   2.797  0.00  0.00    -0.106 NA
ATOM     11  C   UNL     1     -34.935  22.020   1.663  0.00  0.00    +0.310 A 
ATOM     12  C   UNL     1     -34.482  19.981   1.573  0.00  0.00    +0.253 A 
ATOM     13  H   UNL     1     -34.808  23.452   0.244  0.00  0.00    +0.153 HD
BRANCH  12  15
ATOM     14  N   UNL     1     -32.359  17.036   0.742  0.00  0.00    -0.242 NA
ATOM     15  C   UNL     1     -34.041  18.768   0.947  0.00  0.00    +0.074 C 
ATOM     16  C   UNL     1     -34.809  18.138  -0.030  0.00  0.00    +0.008 C 
ATOM     17  C   UNL     1     -32.833  18.177   1.291  0.00  0.00    +0.104 C 
ATOM     18  C   UNL     1     -34.356  16.962  -0.618  0.00  0.00    +0.021 C 
ATOM     19  C   UNL     1     -33.135  16.458  -0.201  0.00  0.00    +0.099 C 
ENDBRANCH  12  15
ENDBRANCH   6   8
BRANCH   2  20
ATOM     20  O   UNL     1     -38.557  24.756   4.170  0.00  0.00    -0.379 OA
ATOM     21  H   UNL     1     -39.023  24.103   3.626  0.00  0.00    +0.211 HD
ENDBRANCH   2  20
BRANCH   3  22
ATOM     22  O   UNL     1     -36.725  26.715   5.214  0.00  0.00    -0.379 OA
ATOM     23  H   UNL     1     -37.383  26.467   5.883  0.00  0.00    +0.211 HD
ENDBRANCH   3  22
BRANCH   4  24
ATOM     24  O   UNL     1     -37.843  23.989   1.456  0.00  0.00    -0.378 OA
ATOM     25  H   UNL     1     -37.908  24.843   1.001  0.00  0.00    +0.211 HD
ENDBRANCH   4  24
BRANCH   5  26
ATOM     26  C   UNL     1     -33.829  26.042   4.803  0.00  0.00    +0.169 C 
BRANCH  26  27
ATOM     27  O   UNL     1     -34.330  25.853   6.114  0.00  0.00    -0.379 OA
ATOM     28  H   UNL     1     -33.804  25.175   6.567  0.00  0.00    +0.211 HD
ENDBRANCH  26  27
ENDBRANCH   5  26
TORSDOF 7
ENDMDL
MODEL 8
REMARK VINA RESULT:      -5.5      5.173      9.664
REMARK  Name = 191170
REMARK  7 active torsions:
REMARK  status: ('A' for Active; 'I' for Inactive)
REMARK    1  A    between atoms: C_2  and  O_20
REMARK    2  A    between atoms: C_3  and  O_22
REMARK    3  A    between atoms: C_4  and  O_24
REMARK    4  A    between atoms: C_5  and  C_26
REMARK    5  A    between atoms: C_6  and  N_8
REMARK    6  A    between atoms: C_12  and  C_15
REMARK    7  A    between atoms: C_26  and  O_27
REMARK                            x       y       z     vdW  Elec       q    Type
REMARK                         _______ _______ _______ _____ _____    ______ ____
ROOT
ATOM      1  O   UNL     1     -36.911  23.706   3.071  0.00  0.00    -0.333 OA
ATOM      2  C   UNL     1     -35.510  24.543   5.428  0.00  0.00    +0.171 C 
ATOM      3  C   UNL     1     -36.227  25.535   4.511  0.00  0.00    +0.169 C 
ATOM      4  C   UNL     1     -35.159  23.248   4.693  0.00  0.00    +0.186 C 
ATOM      5  C   UNL     1     -37.388  24.850   3.784  0.00  0.00    +0.175 C 
ATOM      6  C   UNL     1     -36.369  22.704   3.931  0.00  0.00    +0.222 C 
ENDROOT
BRANCH   6   8
ATOM      7  O   UNL     1     -36.170  19.978   1.474  0.00  0.00    -0.405 OA
ATOM      8  N   UNL     1     -35.968  21.562   3.136  0.00  0.00    -0.263 N 
ATOM      9  N   UNL     1     -37.854  21.440   1.638  0.00  0.00    -0.092 NA
ATOM     10  N   UNL     1     -38.141  20.573   0.599  0.00  0.00    -0.106 NA
ATOM     11  C   UNL     1     -36.702  21.050   2.110  0.00  0.00    +0.310 A 
ATOM     12  C   UNL     1     -37.131  19.737   0.540  0.00  0.00    +0.253 A 
ATOM     13  H   UNL     1     -35.110  21.129   3.351  0.00  0.00    +0.153 HD
BRANCH  12  15
ATOM     14  N   UNL     1     -35.812  17.766  -2.331  0.00  0.00    -0.242 NA
ATOM     15  C   UNL     1     -36.888  18.631  -0.340  0.00  0.00    +0.074 C 
ATOM     16  C   UNL     1     -37.453  17.381  -0.102  0.00  0.00    +0.008 C 
ATOM     17  C   UNL     1     -36.082  18.766  -1.462  0.00  0.00    +0.104 C 
ATOM     18  C   UNL     1     -37.200  16.326  -0.972  0.00  0.00    +0.021 C 
ATOM     19  C   UNL     1     -36.380  16.570  -2.063  0.00  0.00    +0.099 C 
ENDBRANCH  12  15
ENDBRANCH   6   8
BRANCH   2  20
ATOM     20  O   UNL     1     -34.312  25.140   5.928  0.00  0.00    -0.379 OA
ATOM     21  H   UNL     1     -33.770  24.464   6.363  0.00  0.00    +0.211 HD
ENDBRANCH   2  20
BRANCH   3  22
ATOM     22  O   UNL     1     -36.706  26.612   5.312  0.00  0.00    -0.379 OA
ATOM     23  H   UNL     1     -37.676  26.587   5.341  0.00  0.00    +0.211 HD
ENDBRANCH   3  22
BRANCH   4  24
ATOM     24  O   UNL     1     -34.735  22.276   5.648  0.00  0.00    -0.378 OA
ATOM     25  H   UNL     1     -34.715  21.400   5.230  0.00  0.00    +0.211 HD
ENDBRANCH   4  24
BRANCH   5  26
ATOM     26  C   UNL     1     -38.054  25.770   2.766  0.00  0.00    +0.169 C 
BRANCH  26  27
ATOM     27  O   UNL     1     -39.127  26.443   3.400  0.00  0.00    -0.379 OA
ATOM     28  H   UNL     1     -39.924  25.891   3.357  0.00  0.00    +0.211 HD
ENDBRANCH  26  27
ENDBRANCH   5  26
TORSDOF 7
ENDMDL
MODEL 9
REMARK VINA RESULT:      -5.4      2.437      4.306
REMARK  Name = 191170
REMARK  7 active torsions:
REMARK  status: ('A' for Active; 'I' for Inactive)
REMARK    1  A    between atoms: C_2  and  O_20
REMARK    2  A    between atoms: C_3  and  O_22
REMARK    3  A    between atoms: C_4  and  O_24
REMARK    4  A    between atoms: C_5  and  C_26
REMARK    5  A    between atoms: C_6  and  N_8
REMARK    6  A    between atoms: C_12  and  C_15
REMARK    7  A    between atoms: C_26  and  O_27
REMARK                            x       y       z     vdW  Elec       q    Type
REMARK                         _______ _______ _______ _____ _____    ______ ____
ROOT
ATOM      1  O   UNL     1     -37.319  23.497   1.149  0.00  0.00    -0.333 OA
ATOM      2  C   UNL     1     -36.936  20.670   1.433  0.00  0.00    +0.171 C 
ATOM      3  C   UNL     1     -38.327  21.305   1.408  0.00  0.00    +0.169 C 
ATOM      4  C   UNL     1     -35.863  21.679   1.847  0.00  0.00    +0.186 C 
ATOM      5  C   UNL     1     -38.305  22.613   0.610  0.00  0.00    +0.175 C 
ATOM      6  C   UNL     1     -35.993  22.977   1.047  0.00  0.00    +0.222 C 
ENDROOT
BRANCH   6   8
ATOM      7  O   UNL     1     -34.134  25.366   3.132  0.00  0.00    -0.405 OA
ATOM      8  N   UNL     1     -35.057  23.957   1.558  0.00  0.00    -0.263 N 
ATOM      9  N   UNL     1     -35.914  24.188   3.802  0.00  0.00    -0.092 NA
ATOM     10  N   UNL     1     -35.496  24.970   4.862  0.00  0.00    -0.106 NA
ATOM     11  C   UNL     1     -35.091  24.456   2.825  0.00  0.00    +0.310 A 
ATOM     12  C   UNL     1     -34.455  25.640   4.426  0.00  0.00    +0.253 A 
ATOM     13  H   UNL     1     -34.353  24.281   0.952  0.00  0.00    +0.153 HD
BRANCH  12  15
ATOM     14  N   UNL     1     -32.252  28.594   4.964  0.00  0.00    -0.242 NA
ATOM     15  C   UNL     1     -33.619  26.598   5.090  0.00  0.00    +0.074 C 
ATOM     16  C   UNL     1     -33.352  26.501   6.454  0.00  0.00    +0.008 C 
ATOM     17  C   UNL     1     -33.047  27.657   4.399  0.00  0.00    +0.104 C 
ATOM     18  C   UNL     1     -32.539  27.445   7.071  0.00  0.00    +0.021 C 
ATOM     19  C   UNL     1     -32.018  28.463   6.288  0.00  0.00    +0.099 C 
ENDBRANCH  12  15
ENDBRANCH   6   8
BRANCH   2  20
ATOM     20  O   UNL     1     -36.932  19.576   2.353  0.00  0.00    -0.379 OA
ATOM     21  H   UNL     1     -36.229  19.706   3.008  0.00  0.00    +0.211 HD
ENDBRANCH   2  20
BRANCH   3  22
ATOM     22  O   UNL     1     -39.228  20.375   0.815  0.00  0.00    -0.379 OA
ATOM     23  H   UNL     1     -39.112  19.503   1.227  0.00  0.00    +0.211 HD
ENDBRANCH   3  22
BRANCH   4  24
ATOM     24  O   UNL     1     -34.577  21.110   1.603  0.00  0.00    -0.378 OA
ATOM     25  H   UNL     1     -34.586  20.643   0.752  0.00  0.00    +0.211 HD
ENDBRANCH   4  24
BRANCH   5  26
ATOM     26  C   UNL     1     -39.642  23.344   0.662  0.00  0.00    +0.169 C 
BRANCH  26  27
ATOM     27  O   UNL     1     -40.372  22.870   1.780  0.00  0.00    -0.379 OA
ATOM     28  H   UNL     1     -41.285  23.195   1.731  0.00  0.00    +0.211 HD
ENDBRANCH  26  27
ENDBRANCH   5  26
TORSDOF 7
ENDMDL
