MODEL 1
REMARK VINA RESULT:      -6.2      0.000      0.000
REMARK  Name = 54704420
REMARK  6 active torsions:
REMARK  status: ('A' for Active; 'I' for Inactive)
REMARK    1  A    between atoms: C_2  and  O_14
REMARK    2  A    between atoms: C_3  and  O_8
REMARK    3  A    between atoms: C_4  and  C_11
REMARK    4  A    between atoms: C_11  and  O_12
REMARK    5  A    between atoms: O_14  and  C_16
REMARK    6  A    between atoms: C_16  and  C_18
REMARK                            x       y       z     vdW  Elec       q    Type
REMARK                         _______ _______ _______ _____ _____    ______ ____
ROOT
ATOM      1  O   UNL     1     -34.732  23.919   1.552  0.00  0.00    -0.283 OA
ATOM      2  C   UNL     1     -35.505  23.254   3.648  0.00  0.00    +0.221 C 
ATOM      3  C   UNL     1     -35.564  23.495   5.020  0.00  0.00    +0.172 C 
ATOM      4  C   UNL     1     -34.212  25.476   4.731  0.00  0.00    +0.082 C 
ATOM      5  C   UNL     1     -34.798  24.124   2.817  0.00  0.00    +0.233 C 
ATOM      6  C   UNL     1     -34.918  24.607   5.561  0.00  0.00    +0.046 C 
ATOM      7  C   UNL     1     -34.152  25.236   3.358  0.00  0.00    +0.052 C 
ENDROOT
BRANCH   3   8
ATOM      8  O   UNL     1     -36.250  22.655   5.845  0.00  0.00    -0.503 OA
ATOM      9  H   UNL     1     -37.061  22.931   6.224  0.00  0.00    +0.292 HD
ENDBRANCH   3   8
BRANCH   4  11
ATOM     10  O   UNL     1     -32.965  26.667   6.391  0.00  0.00    -0.245 OA
ATOM     11  C   UNL     1     -33.538  26.635   5.297  0.00  0.00    +0.338 C 
BRANCH  11  12
ATOM     12  O   UNL     1     -33.598  27.722   4.480  0.00  0.00    -0.477 OA
ATOM     13  H   UNL     1     -33.558  27.612   3.550  0.00  0.00    +0.295 HD
ENDBRANCH  11  12
ENDBRANCH   4  11
BRANCH   2  14
ATOM     14  O   UNL     1     -36.163  22.133   3.137  0.00  0.00    -0.415 OA
BRANCH  14  16
ATOM     15  O   UNL     1     -34.955  20.562   4.366  0.00  0.00    -0.245 OA
ATOM     16  C   UNL     1     -35.465  20.937   3.299  0.00  0.00    +0.343 C 
BRANCH  16  18
ATOM     17  N   UNL     1     -36.491  19.264   0.171  0.00  0.00    -0.301 N 
ATOM     18  C   UNL     1     -35.404  20.194   2.053  0.00  0.00    +0.074 C 
ATOM     19  C   UNL     1     -36.558  19.950   1.321  0.00  0.00    +0.124 C 
ATOM     20  C   UNL     1     -34.190  19.713   1.571  0.00  0.00    +0.005 C 
ATOM     21  C   UNL     1     -35.336  18.790  -0.315  0.00  0.00    +0.062 C 
ATOM     22  C   UNL     1     -34.151  19.003   0.375  0.00  0.00    +0.016 C 
ATOM     23  C   UNL     1     -37.721  19.023  -0.576  0.00  0.00    +0.113 C 
ENDBRANCH  16  18
ENDBRANCH  14  16
ENDBRANCH   2  14
TORSDOF 6
ENDMDL
MODEL 2
REMARK VINA RESULT:      -6.1      1.431      1.715
REMARK  Name = 54704420
REMARK  6 active torsions:
REMARK  status: ('A' for Active; 'I' for Inactive)
REMARK    1  A    between atoms: C_2  and  O_14
REMARK    2  A    between atoms: C_3  and  O_8
REMARK    3  A    between atoms: C_4  and  C_11
REMARK    4  A    between atoms: C_11  and  O_12
REMARK    5  A    between atoms: O_14  and  C_16
REMARK    6  A    between atoms: C_16  and  C_18
REMARK                            x       y       z     vdW  Elec       q    Type
REMARK                         _______ _______ _______ _____ _____    ______ ____
ROOT
ATOM      1  O   UNL     1     -34.859  22.944   1.724  0.00  0.00    -0.283 OA
ATOM      2  C   UNL     1     -35.232  21.911   3.779  0.00  0.00    +0.221 C 
ATOM      3  C   UNL     1     -35.452  22.044   5.150  0.00  0.00    +0.172 C 
ATOM      4  C   UNL     1     -35.337  24.448   4.935  0.00  0.00    +0.082 C 
ATOM      5  C   UNL     1     -35.063  23.047   2.987  0.00  0.00    +0.233 C 
ATOM      6  C   UNL     1     -35.505  23.312   5.728  0.00  0.00    +0.046 C 
ATOM      7  C   UNL     1     -35.116  24.315   3.564  0.00  0.00    +0.052 C 
ENDROOT
BRANCH   3   8
ATOM      8  O   UNL     1     -35.619  20.945   5.937  0.00  0.00    -0.503 OA
ATOM      9  H   UNL     1     -35.527  20.088   5.571  0.00  0.00    +0.292 HD
ENDBRANCH   3   8
BRANCH   4  11
ATOM     10  O   UNL     1     -34.444  26.354   6.074  0.00  0.00    -0.245 OA
ATOM     11  C   UNL     1     -35.392  25.770   5.540  0.00  0.00    +0.338 C 
BRANCH  11  12
ATOM     12  O   UNL     1     -36.631  26.328   5.459  0.00  0.00    -0.477 OA
ATOM     13  H   UNL     1     -37.199  26.318   6.204  0.00  0.00    +0.295 HD
ENDBRANCH  11  12
ENDBRANCH   4  11
BRANCH   2  14
ATOM     14  O   UNL     1     -35.185  20.627   3.232  0.00  0.00    -0.415 OA
BRANCH  14  16
ATOM     15  O   UNL     1     -37.289  20.820   2.247  0.00  0.00    -0.245 OA
ATOM     16  C   UNL     1     -36.123  20.399   2.227  0.00  0.00    +0.343 C 
BRANCH  16  18
ATOM     17  N   UNL     1     -35.843  18.349  -0.832  0.00  0.00    -0.301 N 
ATOM     18  C   UNL     1     -35.559  19.594   1.158  0.00  0.00    +0.074 C 
ATOM     19  C   UNL     1     -36.373  19.090   0.151  0.00  0.00    +0.124 C 
ATOM     20  C   UNL     1     -34.197  19.311   1.122  0.00  0.00    +0.005 C 
ATOM     21  C   UNL     1     -34.535  18.062  -0.890  0.00  0.00    +0.062 C 
ATOM     22  C   UNL     1     -33.675  18.537   0.090  0.00  0.00    +0.016 C 
ATOM     23  C   UNL     1     -36.724  17.833  -1.876  0.00  0.00    +0.113 C 
ENDBRANCH  16  18
ENDBRANCH  14  16
ENDBRANCH   2  14
TORSDOF 6
ENDMDL
MODEL 3
REMARK VINA RESULT:      -5.8      1.071      2.078
REMARK  Name = 54704420
REMARK  6 active torsions:
REMARK  status: ('A' for Active; 'I' for Inactive)
REMARK    1  A    between atoms: C_2  and  O_14
REMARK    2  A    between atoms: C_3  and  O_8
REMARK    3  A    between atoms: C_4  and  C_11
REMARK    4  A    between atoms: C_11  and  O_12
REMARK    5  A    between atoms: O_14  and  C_16
REMARK    6  A    between atoms: C_16  and  C_18
REMARK                            x       y       z     vdW  Elec       q    Type
REMARK                         _______ _______ _______ _____ _____    ______ ____
ROOT
ATOM      1  O   UNL     1     -34.734  23.719   1.625  0.00  0.00    -0.283 OA
ATOM      2  C   UNL     1     -35.480  23.015   3.718  0.00  0.00    +0.221 C 
ATOM      3  C   UNL     1     -35.555  23.251   5.090  0.00  0.00    +0.172 C 
ATOM      4  C   UNL     1     -34.297  25.294   4.808  0.00  0.00    +0.082 C 
ATOM      5  C   UNL     1     -34.814  23.919   2.890  0.00  0.00    +0.233 C 
ATOM      6  C   UNL     1     -34.964  24.391   5.635  0.00  0.00    +0.046 C 
ATOM      7  C   UNL     1     -34.222  25.059   3.434  0.00  0.00    +0.052 C 
ENDROOT
BRANCH   3   8
ATOM      8  O   UNL     1     -36.202  22.378   5.912  0.00  0.00    -0.503 OA
ATOM      9  H   UNL     1     -35.843  21.527   6.067  0.00  0.00    +0.292 HD
ENDBRANCH   3   8
BRANCH   4  11
ATOM     10  O   UNL     1     -33.086  26.533   6.458  0.00  0.00    -0.245 OA
ATOM     11  C   UNL     1     -33.681  26.483   5.377  0.00  0.00    +0.338 C 
BRANCH  11  12
ATOM     12  O   UNL     1     -33.824  27.576   4.580  0.00  0.00    -0.477 OA
ATOM     13  H   UNL     1     -33.099  28.153   4.440  0.00  0.00    +0.295 HD
ENDBRANCH  11  12
ENDBRANCH   4  11
BRANCH   2  14
ATOM     14  O   UNL     1     -36.083  21.865   3.204  0.00  0.00    -0.415 OA
BRANCH  14  16
ATOM     15  O   UNL     1     -38.140  22.945   3.016  0.00  0.00    -0.245 OA
ATOM     16  C   UNL     1     -37.336  22.081   2.634  0.00  0.00    +0.343 C 
BRANCH  16  18
ATOM     17  N   UNL     1     -36.863  19.362   0.182  0.00  0.00    -0.301 N 
ATOM     18  C   UNL     1     -37.583  21.155   1.544  0.00  0.00    +0.074 C 
ATOM     19  C   UNL     1     -36.626  20.214   1.189  0.00  0.00    +0.124 C 
ATOM     20  C   UNL     1     -38.780  21.193   0.834  0.00  0.00    +0.005 C 
ATOM     21  C   UNL     1     -38.006  19.377  -0.517  0.00  0.00    +0.062 C 
ATOM     22  C   UNL     1     -38.998  20.297  -0.208  0.00  0.00    +0.016 C 
ATOM     23  C   UNL     1     -35.837  18.384  -0.168  0.00  0.00    +0.113 C 
ENDBRANCH  16  18
ENDBRANCH  14  16
ENDBRANCH   2  14
TORSDOF 6
ENDMDL
MODEL 4
REMARK VINA RESULT:      -5.8      4.070      7.906
REMARK  Name = 54704420
REMARK  6 active torsions:
REMARK  status: ('A' for Active; 'I' for Inactive)
REMARK    1  A    between atoms: C_2  and  O_14
REMARK    2  A    between atoms: C_3  and  O_8
REMARK    3  A    between atoms: C_4  and  C_11
REMARK    4  A    between atoms: C_11  and  O_12
REMARK    5  A    between atoms: O_14  and  C_16
REMARK    6  A    between atoms: C_16  and  C_18
REMARK                            x       y       z     vdW  Elec       q    Type
REMARK                         _______ _______ _______ _____ _____    ______ ____
ROOT
ATOM      1  O   UNL     1     -34.632  24.841   1.665  0.00  0.00    -0.283 OA
ATOM      2  C   UNL     1     -34.341  25.766   3.784  0.00  0.00    +0.221 C 
ATOM      3  C   UNL     1     -34.407  25.603   5.168  0.00  0.00    +0.172 C 
ATOM      4  C   UNL     1     -35.159  23.328   4.864  0.00  0.00    +0.082 C 
ATOM      5  C   UNL     1     -34.685  24.710   2.941  0.00  0.00    +0.233 C 
ATOM      6  C   UNL     1     -34.815  24.384   5.707  0.00  0.00    +0.046 C 
ATOM      7  C   UNL     1     -35.094  23.490   3.480  0.00  0.00    +0.052 C 
ENDROOT
BRANCH   3   8
ATOM      8  O   UNL     1     -34.074  26.625   6.005  0.00  0.00    -0.503 OA
ATOM      9  H   UNL     1     -33.587  27.357   5.681  0.00  0.00    +0.292 HD
ENDBRANCH   3   8
BRANCH   4  11
ATOM     10  O   UNL     1     -35.937  21.874   6.598  0.00  0.00    -0.245 OA
ATOM     11  C   UNL     1     -35.585  22.056   5.428  0.00  0.00    +0.338 C 
BRANCH  11  12
ATOM     12  O   UNL     1     -35.561  21.047   4.515  0.00  0.00    -0.477 OA
ATOM     13  H   UNL     1     -34.982  20.321   4.635  0.00  0.00    +0.295 HD
ENDBRANCH  11  12
ENDBRANCH   4  11
BRANCH   2  14
ATOM     14  O   UNL     1     -33.928  27.000   3.276  0.00  0.00    -0.415 OA
BRANCH  14  16
ATOM     15  O   UNL     1     -31.722  26.411   2.806  0.00  0.00    -0.245 OA
ATOM     16  C   UNL     1     -32.548  27.194   3.298  0.00  0.00    +0.343 C 
BRANCH  16  18
ATOM     17  N   UNL     1     -30.853  29.600   5.528  0.00  0.00    -0.301 N 
ATOM     18  C   UNL     1     -32.204  28.428   3.982  0.00  0.00    +0.074 C 
ATOM     19  C   UNL     1     -31.164  28.456   4.902  0.00  0.00    +0.124 C 
ATOM     20  C   UNL     1     -32.907  29.602   3.730  0.00  0.00    +0.005 C 
ATOM     21  C   UNL     1     -31.514  30.744   5.303  0.00  0.00    +0.062 C 
ATOM     22  C   UNL     1     -32.563  30.774   4.396  0.00  0.00    +0.016 C 
ATOM     23  C   UNL     1     -29.755  29.599   6.490  0.00  0.00    +0.113 C 
ENDBRANCH  16  18
ENDBRANCH  14  16
ENDBRANCH   2  14
TORSDOF 6
ENDMDL
MODEL 5
REMARK VINA RESULT:      -5.8      2.123      2.285
REMARK  Name = 54704420
REMARK  6 active torsions:
REMARK  status: ('A' for Active; 'I' for Inactive)
REMARK    1  A    between atoms: C_2  and  O_14
REMARK    2  A    between atoms: C_3  and  O_8
REMARK    3  A    between atoms: C_4  and  C_11
REMARK    4  A    between atoms: C_11  and  O_12
REMARK    5  A    between atoms: O_14  and  C_16
REMARK    6  A    between atoms: C_16  and  C_18
REMARK                            x       y       z     vdW  Elec       q    Type
REMARK                         _______ _______ _______ _____ _____    ______ ____
ROOT
ATOM      1  O   UNL     1     -37.096  23.580   1.622  0.00  0.00    -0.283 OA
ATOM      2  C   UNL     1     -36.195  22.291   3.341  0.00  0.00    +0.221 C 
ATOM      3  C   UNL     1     -35.615  22.244   4.608  0.00  0.00    +0.172 C 
ATOM      4  C   UNL     1     -35.768  24.649   4.768  0.00  0.00    +0.082 C 
ATOM      5  C   UNL     1     -36.561  23.517   2.787  0.00  0.00    +0.233 C 
ATOM      6  C   UNL     1     -35.402  23.423   5.322  0.00  0.00    +0.046 C 
ATOM      7  C   UNL     1     -36.349  24.697   3.500  0.00  0.00    +0.052 C 
ENDROOT
BRANCH   3   8
ATOM      8  O   UNL     1     -35.251  21.054   5.163  0.00  0.00    -0.503 OA
ATOM      9  H   UNL     1     -34.501  20.596   4.839  0.00  0.00    +0.292 HD
ENDBRANCH   3   8
BRANCH   4  11
ATOM     10  O   UNL     1     -34.480  26.213   6.041  0.00  0.00    -0.245 OA
ATOM     11  C   UNL     1     -35.545  25.879   5.513  0.00  0.00    +0.338 C 
BRANCH  11  12
ATOM     12  O   UNL     1     -36.659  26.658   5.576  0.00  0.00    -0.477 OA
ATOM     13  H   UNL     1     -36.578  27.592   5.583  0.00  0.00    +0.295 HD
ENDBRANCH  11  12
ENDBRANCH   4  11
BRANCH   2  14
ATOM     14  O   UNL     1     -36.395  21.091   2.653  0.00  0.00    -0.415 OA
BRANCH  14  16
ATOM     15  O   UNL     1     -34.484  19.758   2.596  0.00  0.00    -0.245 OA
ATOM     16  C   UNL     1     -35.246  20.575   2.058  0.00  0.00    +0.343 C 
BRANCH  16  18
ATOM     17  N   UNL     1     -35.764  21.366  -1.512  0.00  0.00    -0.301 N 
ATOM     18  C   UNL     1     -35.051  21.128   0.729  0.00  0.00    +0.074 C 
ATOM     19  C   UNL     1     -35.952  20.850  -0.289  0.00  0.00    +0.124 C 
ATOM     20  C   UNL     1     -33.959  21.946   0.452  0.00  0.00    +0.005 C 
ATOM     21  C   UNL     1     -34.722  22.156  -1.805  0.00  0.00    +0.062 C 
ATOM     22  C   UNL     1     -33.789  22.467  -0.827  0.00  0.00    +0.016 C 
ATOM     23  C   UNL     1     -36.729  21.054  -2.562  0.00  0.00    +0.113 C 
ENDBRANCH  16  18
ENDBRANCH  14  16
ENDBRANCH   2  14
TORSDOF 6
ENDMDL
MODEL 6
REMARK VINA RESULT:      -5.8      2.868      3.464
REMARK  Name = 54704420
REMARK  6 active torsions:
REMARK  status: ('A' for Active; 'I' for Inactive)
REMARK    1  A    between atoms: C_2  and  O_14
REMARK    2  A    between atoms: C_3  and  O_8
REMARK    3  A    between atoms: C_4  and  C_11
REMARK    4  A    between atoms: C_11  and  O_12
REMARK    5  A    between atoms: O_14  and  C_16
REMARK    6  A    between atoms: C_16  and  C_18
REMARK                            x       y       z     vdW  Elec       q    Type
REMARK                         _______ _______ _______ _____ _____    ______ ____
ROOT
ATOM      1  O   UNL     1     -37.090  26.211   2.669  0.00  0.00    -0.283 OA
ATOM      2  C   UNL     1     -36.558  24.609   4.276  0.00  0.00    +0.221 C 
ATOM      3  C   UNL     1     -35.717  24.202   5.311  0.00  0.00    +0.172 C 
ATOM      4  C   UNL     1     -34.414  26.219   5.045  0.00  0.00    +0.082 C 
ATOM      5  C   UNL     1     -36.327  25.820   3.625  0.00  0.00    +0.233 C 
ATOM      6  C   UNL     1     -34.645  25.007   5.696  0.00  0.00    +0.046 C 
ATOM      7  C   UNL     1     -35.255  26.626   4.009  0.00  0.00    +0.052 C 
ENDROOT
BRANCH   3   8
ATOM      8  O   UNL     1     -35.929  23.022   5.957  0.00  0.00    -0.503 OA
ATOM      9  H   UNL     1     -36.657  22.482   5.720  0.00  0.00    +0.292 HD
ENDBRANCH   3   8
BRANCH   4  11
ATOM     10  O   UNL     1     -32.573  26.866   6.430  0.00  0.00    -0.245 OA
ATOM     11  C   UNL     1     -33.295  27.058   5.446  0.00  0.00    +0.338 C 
BRANCH  11  12
ATOM     12  O   UNL     1     -33.108  28.113   4.608  0.00  0.00    -0.477 OA
ATOM     13  H   UNL     1     -33.623  28.189   3.828  0.00  0.00    +0.295 HD
ENDBRANCH  11  12
ENDBRANCH   4  11
BRANCH   2  14
ATOM     14  O   UNL     1     -37.622  23.779   3.916  0.00  0.00    -0.415 OA
BRANCH  14  16
ATOM     15  O   UNL     1     -36.211  22.197   2.945  0.00  0.00    -0.245 OA
ATOM     16  C   UNL     1     -37.294  22.802   2.978  0.00  0.00    +0.343 C 
BRANCH  16  18
ATOM     17  N   UNL     1     -40.338  23.374   0.968  0.00  0.00    -0.301 N 
ATOM     18  C   UNL     1     -38.381  22.592   2.038  0.00  0.00    +0.074 C 
ATOM     19  C   UNL     1     -39.340  23.576   1.839  0.00  0.00    +0.124 C 
ATOM     20  C   UNL     1     -38.482  21.404   1.320  0.00  0.00    +0.005 C 
ATOM     21  C   UNL     1     -40.459  22.240   0.265  0.00  0.00    +0.062 C 
ATOM     22  C   UNL     1     -39.530  21.221   0.424  0.00  0.00    +0.016 C 
ATOM     23  C   UNL     1     -41.332  24.427   0.781  0.00  0.00    +0.113 C 
ENDBRANCH  16  18
ENDBRANCH  14  16
ENDBRANCH   2  14
TORSDOF 6
ENDMDL
MODEL 7
REMARK VINA RESULT:      -5.7      2.167      2.885
REMARK  Name = 54704420
REMARK  6 active torsions:
REMARK  status: ('A' for Active; 'I' for Inactive)
REMARK    1  A    between atoms: C_2  and  O_14
REMARK    2  A    between atoms: C_3  and  O_8
REMARK    3  A    between atoms: C_4  and  C_11
REMARK    4  A    between atoms: C_11  and  O_12
REMARK    5  A    between atoms: O_14  and  C_16
REMARK    6  A    between atoms: C_16  and  C_18
REMARK                            x       y       z     vdW  Elec       q    Type
REMARK                         _______ _______ _______ _____ _____    ______ ____
ROOT
ATOM      1  O   UNL     1     -36.974  25.841   2.413  0.00  0.00    -0.283 OA
ATOM      2  C   UNL     1     -36.506  24.370   4.159  0.00  0.00    +0.221 C 
ATOM      3  C   UNL     1     -35.727  24.063   5.273  0.00  0.00    +0.172 C 
ATOM      4  C   UNL     1     -34.469  26.101   4.955  0.00  0.00    +0.082 C 
ATOM      5  C   UNL     1     -36.267  25.542   3.442  0.00  0.00    +0.233 C 
ATOM      6  C   UNL     1     -34.708  24.929   5.672  0.00  0.00    +0.046 C 
ATOM      7  C   UNL     1     -35.249  26.409   3.839  0.00  0.00    +0.052 C 
ENDROOT
BRANCH   3   8
ATOM      8  O   UNL     1     -35.947  22.922   5.984  0.00  0.00    -0.503 OA
ATOM      9  H   UNL     1     -35.795  22.910   6.909  0.00  0.00    +0.292 HD
ENDBRANCH   3   8
BRANCH   4  11
ATOM     10  O   UNL     1     -32.697  26.861   6.372  0.00  0.00    -0.245 OA
ATOM     11  C   UNL     1     -33.406  27.004   5.371  0.00  0.00    +0.338 C 
BRANCH  11  12
ATOM     12  O   UNL     1     -33.259  28.059   4.525  0.00  0.00    -0.477 OA
ATOM     13  H   UNL     1     -32.411  28.435   4.387  0.00  0.00    +0.295 HD
ENDBRANCH  11  12
ENDBRANCH   4  11
BRANCH   2  14
ATOM     14  O   UNL     1     -37.518  23.482   3.787  0.00  0.00    -0.415 OA
BRANCH  14  16
ATOM     15  O   UNL     1     -35.996  21.896   3.011  0.00  0.00    -0.245 OA
ATOM     16  C   UNL     1     -37.099  22.460   2.938  0.00  0.00    +0.343 C 
BRANCH  16  18
ATOM     17  N   UNL     1     -38.926  20.763   0.214  0.00  0.00    -0.301 N 
ATOM     18  C   UNL     1     -38.116  22.150   1.949  0.00  0.00    +0.074 C 
ATOM     19  C   UNL     1     -37.981  21.042   1.123  0.00  0.00    +0.124 C 
ATOM     20  C   UNL     1     -39.243  22.955   1.811  0.00  0.00    +0.005 C 
ATOM     21  C   UNL     1     -40.020  21.522   0.060  0.00  0.00    +0.062 C 
ATOM     22  C   UNL     1     -40.207  22.642   0.858  0.00  0.00    +0.016 C 
ATOM     23  C   UNL     1     -38.756  19.592  -0.641  0.00  0.00    +0.113 C 
ENDBRANCH  16  18
ENDBRANCH  14  16
ENDBRANCH   2  14
TORSDOF 6
ENDMDL
MODEL 8
REMARK VINA RESULT:      -5.7      2.990      5.120
REMARK  Name = 54704420
REMARK  6 active torsions:
REMARK  status: ('A' for Active; 'I' for Inactive)
REMARK    1  A    between atoms: C_2  and  O_14
REMARK    2  A    between atoms: C_3  and  O_8
REMARK    3  A    between atoms: C_4  and  C_11
REMARK    4  A    between atoms: C_11  and  O_12
REMARK    5  A    between atoms: O_14  and  C_16
REMARK    6  A    between atoms: C_16  and  C_18
REMARK                            x       y       z     vdW  Elec       q    Type
REMARK                         _______ _______ _______ _____ _____    ______ ____
ROOT
ATOM      1  O   UNL     1     -33.712  27.035   2.584  0.00  0.00    -0.283 OA
ATOM      2  C   UNL     1     -32.889  27.146   4.762  0.00  0.00    +0.221 C 
ATOM      3  C   UNL     1     -32.298  27.909   5.768  0.00  0.00    +0.172 C 
ATOM      4  C   UNL     1     -32.265  29.824   4.296  0.00  0.00    +0.082 C 
ATOM      5  C   UNL     1     -33.169  27.721   3.523  0.00  0.00    +0.233 C 
ATOM      6  C   UNL     1     -31.986  29.248   5.535  0.00  0.00    +0.046 C 
ATOM      7  C   UNL     1     -32.857  29.061   3.289  0.00  0.00    +0.052 C 
ENDROOT
BRANCH   3   8
ATOM      8  O   UNL     1     -32.019  27.361   6.984  0.00  0.00    -0.503 OA
ATOM      9  H   UNL     1     -32.601  26.729   7.357  0.00  0.00    +0.292 HD
ENDBRANCH   3   8
BRANCH   4  11
ATOM     10  O   UNL     1     -32.409  31.920   3.150  0.00  0.00    -0.245 OA
ATOM     11  C   UNL     1     -31.939  31.221   4.054  0.00  0.00    +0.338 C 
BRANCH  11  12
ATOM     12  O   UNL     1     -31.036  31.707   4.948  0.00  0.00    -0.477 OA
ATOM     13  H   UNL     1     -30.841  32.624   4.967  0.00  0.00    +0.295 HD
ENDBRANCH  11  12
ENDBRANCH   4  11
BRANCH   2  14
ATOM     14  O   UNL     1     -33.189  25.807   5.028  0.00  0.00    -0.415 OA
BRANCH  14  16
ATOM     15  O   UNL     1     -35.364  26.388   5.636  0.00  0.00    -0.245 OA
ATOM     16  C   UNL     1     -34.546  25.553   5.222  0.00  0.00    +0.343 C 
BRANCH  16  18
ATOM     17  N   UNL     1     -35.389  22.535   3.269  0.00  0.00    -0.301 N 
ATOM     18  C   UNL     1     -34.874  24.178   4.888  0.00  0.00    +0.074 C 
ATOM     19  C   UNL     1     -35.088  23.807   3.568  0.00  0.00    +0.124 C 
ATOM     20  C   UNL     1     -34.980  23.210   5.882  0.00  0.00    +0.005 C 
ATOM     21  C   UNL     1     -35.497  21.584   4.206  0.00  0.00    +0.062 C 
ATOM     22  C   UNL     1     -35.295  21.898   5.542  0.00  0.00    +0.016 C 
ATOM     23  C   UNL     1     -35.609  22.174   1.871  0.00  0.00    +0.113 C 
ENDBRANCH  16  18
ENDBRANCH  14  16
ENDBRANCH   2  14
TORSDOF 6
ENDMDL
MODEL 9
REMARK VINA RESULT:      -5.7      4.339      7.971
REMARK  Name = 54704420
REMARK  6 active torsions:
REMARK  status: ('A' for Active; 'I' for Inactive)
REMARK    1  A    between atoms: C_2  and  O_14
REMARK    2  A    between atoms: C_3  and  O_8
REMARK    3  A    between atoms: C_4  and  C_11
REMARK    4  A    between atoms: C_11  and  O_12
REMARK    5  A    between atoms: O_14  and  C_16
REMARK    6  A    between atoms: C_16  and  C_18
REMARK                            x       y       z     vdW  Elec       q    Type
REMARK                         _______ _______ _______ _____ _____    ______ ____
ROOT
ATOM      1  O   UNL     1     -33.196  26.476   5.623  0.00  0.00    -0.283 OA
ATOM      2  C   UNL     1     -35.170  26.528   4.385  0.00  0.00    +0.221 C 
ATOM      3  C   UNL     1     -36.295  25.848   3.920  0.00  0.00    +0.172 C 
ATOM      4  C   UNL     1     -35.556  23.847   5.055  0.00  0.00    +0.082 C 
ATOM      5  C   UNL     1     -34.238  25.867   5.185  0.00  0.00    +0.233 C 
ATOM      6  C   UNL     1     -36.489  24.508   4.255  0.00  0.00    +0.046 C 
ATOM      7  C   UNL     1     -34.430  24.527   5.521  0.00  0.00    +0.052 C 
ENDROOT
BRANCH   3   8
ATOM      8  O   UNL     1     -37.215  26.479   3.138  0.00  0.00    -0.503 OA
ATOM      9  H   UNL     1     -37.721  25.988   2.520  0.00  0.00    +0.292 HD
ENDBRANCH   3   8
BRANCH   4  11
ATOM     10  O   UNL     1     -35.923  22.013   6.547  0.00  0.00    -0.245 OA
ATOM     11  C   UNL     1     -35.759  22.449   5.403  0.00  0.00    +0.338 C 
BRANCH  11  12
ATOM     12  O   UNL     1     -35.752  21.635   4.313  0.00  0.00    -0.477 OA
ATOM     13  H   UNL     1     -36.485  21.626   3.730  0.00  0.00    +0.295 HD
ENDBRANCH  11  12
ENDBRANCH   4  11
BRANCH   2  14
ATOM     14  O   UNL     1     -35.007  27.869   4.032  0.00  0.00    -0.415 OA
BRANCH  14  16
ATOM     15  O   UNL     1     -34.352  27.386   1.847  0.00  0.00    -0.245 OA
ATOM     16  C   UNL     1     -34.252  28.069   2.878  0.00  0.00    +0.343 C 
BRANCH  16  18
ATOM     17  N   UNL     1     -31.134  29.959   3.462  0.00  0.00    -0.301 N 
ATOM     18  C   UNL     1     -33.324  29.173   3.043  0.00  0.00    +0.074 C 
ATOM     19  C   UNL     1     -31.984  28.933   3.312  0.00  0.00    +0.124 C 
ATOM     20  C   UNL     1     -33.760  30.491   2.937  0.00  0.00    +0.005 C 
ATOM     21  C   UNL     1     -31.528  31.237   3.364  0.00  0.00    +0.062 C 
ATOM     22  C   UNL     1     -32.856  31.537   3.098  0.00  0.00    +0.016 C 
ATOM     23  C   UNL     1     -29.731  29.675   3.745  0.00  0.00    +0.113 C 
ENDBRANCH  16  18
ENDBRANCH  14  16
ENDBRANCH   2  14
TORSDOF 6
ENDMDL
