MODEL 1
REMARK VINA RESULT:      -6.2      0.000      0.000
REMARK  Name = 5492328
REMARK  9 active torsions:
REMARK  status: ('A' for Active; 'I' for Inactive)
REMARK    1  A    between atoms: N_2  and  C_5
REMARK    2  A    between atoms: C_3  and  C_17
REMARK    3  A    between atoms: C_5  and  C_9
REMARK    4  A    between atoms: N_8  and  C_11
REMARK    5  A    between atoms: C_11  and  C_14
REMARK    6  A    between atoms: C_17  and  C_18
REMARK    7  A    between atoms: C_17  and  C_25
REMARK    8  A    between atoms: C_18  and  C_19
REMARK    9  A    between atoms: C_25  and  S_26
REMARK                            x       y       z     vdW  Elec       q    Type
REMARK                         _______ _______ _______ _____ _____    ______ ____
ROOT
ATOM      1  O   UNL     1     -37.477  21.636   2.343  0.00  0.00    -0.275 OA
ATOM      2  N   UNL     1     -35.515  21.297   3.532  0.00  0.00    -0.298 N 
ATOM      3  C   UNL     1     -36.360  21.134   2.444  0.00  0.00    +0.223 C 
ATOM      4  H   UNL     1     -34.637  20.854   3.518  0.00  0.00    +0.150 HD
ENDROOT
BRANCH   2   5
ATOM      5  C   UNL     1     -35.870  22.090   4.686  0.00  0.00    +0.149 C 
ATOM      6  C   UNL     1     -34.966  21.781   5.869  0.00  0.00    +0.031 C 
BRANCH   5   9
ATOM      7  O   UNL     1     -34.701  24.154   4.185  0.00  0.00    -0.273 OA
ATOM      8  N   UNL     1     -37.020  24.138   4.124  0.00  0.00    -0.295 N 
ATOM      9  C   UNL     1     -35.771  23.560   4.295  0.00  0.00    +0.241 C 
ATOM     10  H   UNL     1     -37.821  23.577   4.232  0.00  0.00    +0.150 HD
BRANCH   8  11
ATOM     11  C   UNL     1     -37.194  25.534   3.792  0.00  0.00    +0.175 C 
BRANCH  11  14
ATOM     12  O   UNL     1     -38.841  26.619   2.388  0.00  0.00    -0.273 OA
ATOM     13  N   UNL     1     -39.511  24.903   3.764  0.00  0.00    -0.327 N 
ATOM     14  C   UNL     1     -38.575  25.753   3.216  0.00  0.00    +0.239 C 
ATOM     15  H   UNL     1     -40.449  24.950   3.468  0.00  0.00    +0.145 HD
ATOM     16  H   UNL     1     -39.243  24.251   4.450  0.00  0.00    +0.145 HD
ENDBRANCH  11  14
ENDBRANCH   8  11
ENDBRANCH   5   9
ENDBRANCH   2   5
BRANCH   3  17
ATOM     17  C   UNL     1     -35.751  20.242   1.353  0.00  0.00    +0.091 C 
BRANCH  17  18
ATOM     18  C   UNL     1     -34.483  20.899   0.765  0.00  0.00    +0.036 C 
BRANCH  18  19
ATOM     19  C   UNL     1     -33.276  19.992   0.743  0.00  0.00    -0.022 C 
ATOM     20  C   UNL     1     -33.308  18.771   1.416  0.00  0.00    -0.004 C 
ATOM     21  C   UNL     1     -32.128  20.376   0.050  0.00  0.00    -0.004 C 
ATOM     22  C   UNL     1     -32.194  17.933   1.395  0.00  0.00    -0.000 C 
ATOM     23  C   UNL     1     -31.013  19.538   0.028  0.00  0.00    -0.000 C 
ATOM     24  C   UNL     1     -31.046  18.316   0.702  0.00  0.00    -0.000 C 
ENDBRANCH  18  19
ENDBRANCH  17  18
BRANCH  17  25
ATOM     25  C   UNL     1     -36.813  19.847   0.306  0.00  0.00    +0.063 C 
BRANCH  25  26
ATOM     26  S   UNL     1     -36.705  18.126  -0.280  0.00  0.00    -0.167 S 
ATOM     27  H   UNL     1     -35.794  18.046  -1.287  0.00  0.00    +0.102 HD
ENDBRANCH  25  26
ENDBRANCH  17  25
ENDBRANCH   3  17
TORSDOF 9
ENDMDL
MODEL 2
REMARK VINA RESULT:      -6.2      1.644      2.001
REMARK  Name = 5492328
REMARK  9 active torsions:
REMARK  status: ('A' for Active; 'I' for Inactive)
REMARK    1  A    between atoms: N_2  and  C_5
REMARK    2  A    between atoms: C_3  and  C_17
REMARK    3  A    between atoms: C_5  and  C_9
REMARK    4  A    between atoms: N_8  and  C_11
REMARK    5  A    between atoms: C_11  and  C_14
REMARK    6  A    between atoms: C_17  and  C_18
REMARK    7  A    between atoms: C_17  and  C_25
REMARK    8  A    between atoms: C_18  and  C_19
REMARK    9  A    between atoms: C_25  and  S_26
REMARK                            x       y       z     vdW  Elec       q    Type
REMARK                         _______ _______ _______ _____ _____    ______ ____
ROOT
ATOM      1  O   UNL     1     -37.640  21.255   2.272  0.00  0.00    -0.275 OA
ATOM      2  N   UNL     1     -35.572  21.270   3.322  0.00  0.00    -0.298 N 
ATOM      3  C   UNL     1     -36.440  20.988   2.277  0.00  0.00    +0.223 C 
ATOM      4  H   UNL     1     -34.626  21.016   3.229  0.00  0.00    +0.150 HD
ENDROOT
BRANCH   2   5
ATOM      5  C   UNL     1     -35.998  21.918   4.540  0.00  0.00    +0.149 C 
ATOM      6  C   UNL     1     -35.032  21.640   5.682  0.00  0.00    +0.031 C 
BRANCH   5   9
ATOM      7  O   UNL     1     -37.168  23.987   4.064  0.00  0.00    -0.273 OA
ATOM      8  N   UNL     1     -34.854  24.023   4.233  0.00  0.00    -0.295 N 
ATOM      9  C   UNL     1     -36.100  23.414   4.266  0.00  0.00    +0.241 C 
ATOM     10  H   UNL     1     -34.055  23.477   4.410  0.00  0.00    +0.150 HD
BRANCH   8  11
ATOM     11  C   UNL     1     -34.681  25.429   3.949  0.00  0.00    +0.175 C 
BRANCH  11  14
ATOM     12  O   UNL     1     -34.074  26.502   6.033  0.00  0.00    -0.273 OA
ATOM     13  N   UNL     1     -36.261  26.598   5.330  0.00  0.00    -0.327 N 
ATOM     14  C   UNL     1     -34.937  26.237   5.201  0.00  0.00    +0.239 C 
ATOM     15  H   UNL     1     -36.553  27.128   6.106  0.00  0.00    +0.145 HD
ATOM     16  H   UNL     1     -36.914  26.327   4.646  0.00  0.00    +0.145 HD
ENDBRANCH  11  14
ENDBRANCH   8  11
ENDBRANCH   5   9
ENDBRANCH   2   5
BRANCH   3  17
ATOM     17  C   UNL     1     -35.741  20.293   1.100  0.00  0.00    +0.091 C 
BRANCH  17  18
ATOM     18  C   UNL     1     -34.387  20.971   0.800  0.00  0.00    +0.036 C 
BRANCH  18  19
ATOM     19  C   UNL     1     -33.218  20.017   0.763  0.00  0.00    -0.022 C 
ATOM     20  C   UNL     1     -33.296  18.791   1.425  0.00  0.00    -0.004 C 
ATOM     21  C   UNL     1     -32.059  20.360   0.068  0.00  0.00    -0.004 C 
ATOM     22  C   UNL     1     -32.216  17.910   1.391  0.00  0.00    -0.000 C 
ATOM     23  C   UNL     1     -30.978  19.479   0.033  0.00  0.00    -0.000 C 
ATOM     24  C   UNL     1     -31.057  18.253   0.695  0.00  0.00    -0.000 C 
ENDBRANCH  18  19
ENDBRANCH  17  18
BRANCH  17  25
ATOM     25  C   UNL     1     -36.686  20.180  -0.115  0.00  0.00    +0.063 C 
BRANCH  25  26
ATOM     26  S   UNL     1     -37.373  18.517  -0.396  0.00  0.00    -0.167 S 
ATOM     27  H   UNL     1     -36.633  17.874  -1.339  0.00  0.00    +0.102 HD
ENDBRANCH  25  26
ENDBRANCH  17  25
ENDBRANCH   3  17
TORSDOF 9
ENDMDL
MODEL 3
REMARK VINA RESULT:      -5.8      1.537      1.990
REMARK  Name = 5492328
REMARK  9 active torsions:
REMARK  status: ('A' for Active; 'I' for Inactive)
REMARK    1  A    between atoms: N_2  and  C_5
REMARK    2  A    between atoms: C_3  and  C_17
REMARK    3  A    between atoms: C_5  and  C_9
REMARK    4  A    between atoms: N_8  and  C_11
REMARK    5  A    between atoms: C_11  and  C_14
REMARK    6  A    between atoms: C_17  and  C_18
REMARK    7  A    between atoms: C_17  and  C_25
REMARK    8  A    between atoms: C_18  and  C_19
REMARK    9  A    between atoms: C_25  and  S_26
REMARK                            x       y       z     vdW  Elec       q    Type
REMARK                         _______ _______ _______ _____ _____    ______ ____
ROOT
ATOM      1  O   UNL     1     -35.120  20.731   4.422  0.00  0.00    -0.275 OA
ATOM      2  N   UNL     1     -35.812  22.657   3.332  0.00  0.00    -0.298 N 
ATOM      3  C   UNL     1     -35.485  21.311   3.401  0.00  0.00    +0.223 C 
ATOM      4  H   UNL     1     -36.095  23.029   2.466  0.00  0.00    +0.150 HD
ENDROOT
BRANCH   2   5
ATOM      5  C   UNL     1     -35.756  23.536   4.476  0.00  0.00    +0.149 C 
ATOM      6  C   UNL     1     -34.362  24.116   4.661  0.00  0.00    +0.031 C 
BRANCH   5   9
ATOM      7  O   UNL     1     -36.624  25.790   4.683  0.00  0.00    -0.273 OA
ATOM      8  N   UNL     1     -37.914  24.188   3.608  0.00  0.00    -0.295 N 
ATOM      9  C   UNL     1     -36.783  24.643   4.271  0.00  0.00    +0.241 C 
ATOM     10  H   UNL     1     -37.945  23.249   3.315  0.00  0.00    +0.150 HD
BRANCH   8  11
ATOM     11  C   UNL     1     -39.049  25.037   3.331  0.00  0.00    +0.175 C 
BRANCH  11  14
ATOM     12  O   UNL     1     -38.455  26.923   1.933  0.00  0.00    -0.273 OA
ATOM     13  N   UNL     1     -39.172  24.980   0.933  0.00  0.00    -0.327 N 
ATOM     14  C   UNL     1     -38.837  25.759   2.020  0.00  0.00    +0.239 C 
ATOM     15  H   UNL     1     -39.076  25.341   0.022  0.00  0.00    +0.145 HD
ATOM     16  H   UNL     1     -39.505  24.064   1.067  0.00  0.00    +0.145 HD
ENDBRANCH  11  14
ENDBRANCH   8  11
ENDBRANCH   5   9
ENDBRANCH   2   5
BRANCH   3  17
ATOM     17  C   UNL     1     -35.622  20.600   2.048  0.00  0.00    +0.091 C 
BRANCH  17  18
ATOM     18  C   UNL     1     -34.540  21.097   1.065  0.00  0.00    +0.036 C 
BRANCH  18  19
ATOM     19  C   UNL     1     -33.381  20.145   0.895  0.00  0.00    -0.022 C 
ATOM     20  C   UNL     1     -32.277  20.520   0.129  0.00  0.00    -0.004 C 
ATOM     21  C   UNL     1     -33.413  18.891   1.503  0.00  0.00    -0.004 C 
ATOM     22  C   UNL     1     -31.206  19.641  -0.027  0.00  0.00    -0.000 C 
ATOM     23  C   UNL     1     -32.341  18.012   1.347  0.00  0.00    -0.000 C 
ATOM     24  C   UNL     1     -31.237  18.387   0.581  0.00  0.00    -0.000 C 
ENDBRANCH  18  19
ENDBRANCH  17  18
BRANCH  17  25
ATOM     25  C   UNL     1     -37.067  20.698   1.515  0.00  0.00    +0.063 C 
BRANCH  25  26
ATOM     26  S   UNL     1     -37.250  21.651  -0.025  0.00  0.00    -0.167 S 
ATOM     27  H   UNL     1     -36.920  22.951   0.204  0.00  0.00    +0.102 HD
ENDBRANCH  25  26
ENDBRANCH  17  25
ENDBRANCH   3  17
TORSDOF 9
ENDMDL
MODEL 4
REMARK VINA RESULT:      -5.7      3.720      6.985
REMARK  Name = 5492328
REMARK  9 active torsions:
REMARK  status: ('A' for Active; 'I' for Inactive)
REMARK    1  A    between atoms: N_2  and  C_5
REMARK    2  A    between atoms: C_3  and  C_17
REMARK    3  A    between atoms: C_5  and  C_9
REMARK    4  A    between atoms: N_8  and  C_11
REMARK    5  A    between atoms: C_11  and  C_14
REMARK    6  A    between atoms: C_17  and  C_18
REMARK    7  A    between atoms: C_17  and  C_25
REMARK    8  A    between atoms: C_18  and  C_19
REMARK    9  A    between atoms: C_25  and  S_26
REMARK                            x       y       z     vdW  Elec       q    Type
REMARK                         _______ _______ _______ _____ _____    ______ ____
ROOT
ATOM      1  O   UNL     1     -33.321  20.972   0.167  0.00  0.00    -0.275 OA
ATOM      2  N   UNL     1     -34.187  18.975   0.968  0.00  0.00    -0.298 N 
ATOM      3  C   UNL     1     -34.182  20.350   0.786  0.00  0.00    +0.223 C 
ATOM      4  H   UNL     1     -34.923  18.570   1.479  0.00  0.00    +0.150 HD
ENDROOT
BRANCH   2   5
ATOM      5  C   UNL     1     -33.158  18.112   0.437  0.00  0.00    +0.149 C 
ATOM      6  C   UNL     1     -32.004  17.960   1.416  0.00  0.00    +0.031 C 
BRANCH   5   9
ATOM      7  O   UNL     1     -33.135  15.729  -0.008  0.00  0.00    -0.273 OA
ATOM      8  N   UNL     1     -35.166  16.851  -0.020  0.00  0.00    -0.295 N 
ATOM      9  C   UNL     1     -33.790  16.760   0.127  0.00  0.00    +0.241 C 
ATOM     10  H   UNL     1     -35.600  17.725   0.109  0.00  0.00    +0.150 HD
BRANCH   8  11
ATOM     11  C   UNL     1     -35.991  15.714  -0.358  0.00  0.00    +0.175 C 
BRANCH  11  14
ATOM     12  O   UNL     1     -38.332  15.175  -0.060  0.00  0.00    -0.273 OA
ATOM     13  N   UNL     1     -37.635  17.337   0.297  0.00  0.00    -0.327 N 
ATOM     14  C   UNL     1     -37.433  16.010  -0.017  0.00  0.00    +0.239 C 
ATOM     15  H   UNL     1     -38.536  17.653   0.537  0.00  0.00    +0.145 HD
ATOM     16  H   UNL     1     -36.879  17.967   0.281  0.00  0.00    +0.145 HD
ENDBRANCH  11  14
ENDBRANCH   8  11
ENDBRANCH   5   9
ENDBRANCH   2   5
BRANCH   3  17
ATOM     17  C   UNL     1     -35.382  21.038   1.452  0.00  0.00    +0.091 C 
BRANCH  17  18
ATOM     18  C   UNL     1     -35.498  20.608   2.930  0.00  0.00    +0.036 C 
BRANCH  18  19
ATOM     19  C   UNL     1     -35.381  21.748   3.912  0.00  0.00    -0.022 C 
ATOM     20  C   UNL     1     -35.290  21.486   5.279  0.00  0.00    -0.004 C 
ATOM     21  C   UNL     1     -35.363  23.065   3.454  0.00  0.00    -0.004 C 
ATOM     22  C   UNL     1     -35.182  22.539   6.186  0.00  0.00    -0.000 C 
ATOM     23  C   UNL     1     -35.254  24.119   4.360  0.00  0.00    -0.000 C 
ATOM     24  C   UNL     1     -35.164  23.856   5.728  0.00  0.00    -0.000 C 
ENDBRANCH  18  19
ENDBRANCH  17  18
BRANCH  17  25
ATOM     25  C   UNL     1     -36.666  20.834   0.621  0.00  0.00    +0.063 C 
BRANCH  25  26
ATOM     26  S   UNL     1     -38.191  21.444   1.409  0.00  0.00    -0.167 S 
ATOM     27  H   UNL     1     -38.999  20.392   1.707  0.00  0.00    +0.102 HD
ENDBRANCH  25  26
ENDBRANCH  17  25
ENDBRANCH   3  17
TORSDOF 9
ENDMDL
MODEL 5
REMARK VINA RESULT:      -5.7      2.245      2.997
REMARK  Name = 5492328
REMARK  9 active torsions:
REMARK  status: ('A' for Active; 'I' for Inactive)
REMARK    1  A    between atoms: N_2  and  C_5
REMARK    2  A    between atoms: C_3  and  C_17
REMARK    3  A    between atoms: C_5  and  C_9
REMARK    4  A    between atoms: N_8  and  C_11
REMARK    5  A    between atoms: C_11  and  C_14
REMARK    6  A    between atoms: C_17  and  C_18
REMARK    7  A    between atoms: C_17  and  C_25
REMARK    8  A    between atoms: C_18  and  C_19
REMARK    9  A    between atoms: C_25  and  S_26
REMARK                            x       y       z     vdW  Elec       q    Type
REMARK                         _______ _______ _______ _____ _____    ______ ____
ROOT
ATOM      1  O   UNL     1     -37.742  21.658   2.522  0.00  0.00    -0.275 OA
ATOM      2  N   UNL     1     -35.600  22.105   3.292  0.00  0.00    -0.298 N 
ATOM      3  C   UNL     1     -36.532  21.757   2.325  0.00  0.00    +0.223 C 
ATOM      4  H   UNL     1     -34.652  22.158   3.035  0.00  0.00    +0.150 HD
ENDROOT
BRANCH   2   5
ATOM      5  C   UNL     1     -35.962  22.392   4.661  0.00  0.00    +0.149 C 
ATOM      6  C   UNL     1     -34.974  21.770   5.636  0.00  0.00    +0.031 C 
BRANCH   5   9
ATOM      7  O   UNL     1     -36.978  24.586   4.493  0.00  0.00    -0.273 OA
ATOM      8  N   UNL     1     -34.831  24.410   5.354  0.00  0.00    -0.295 N 
ATOM      9  C   UNL     1     -36.011  23.906   4.827  0.00  0.00    +0.241 C 
ATOM     10  H   UNL     1     -34.112  23.781   5.592  0.00  0.00    +0.150 HD
BRANCH   8  11
ATOM     11  C   UNL     1     -34.613  25.822   5.568  0.00  0.00    +0.175 C 
BRANCH  11  14
ATOM     12  O   UNL     1     -33.004  25.668   3.765  0.00  0.00    -0.273 OA
ATOM     13  N   UNL     1     -33.726  27.746   4.436  0.00  0.00    -0.327 N 
ATOM     14  C   UNL     1     -33.709  26.368   4.487  0.00  0.00    +0.239 C 
ATOM     15  H   UNL     1     -33.176  28.220   3.772  0.00  0.00    +0.145 HD
ATOM     16  H   UNL     1     -34.287  28.254   5.065  0.00  0.00    +0.145 HD
ENDBRANCH  11  14
ENDBRANCH   8  11
ENDBRANCH   5   9
ENDBRANCH   2   5
BRANCH   3  17
ATOM     17  C   UNL     1     -35.892  21.499   0.954  0.00  0.00    +0.091 C 
BRANCH  17  18
ATOM     18  C   UNL     1     -34.383  21.823   0.994  0.00  0.00    +0.036 C 
BRANCH  18  19
ATOM     19  C   UNL     1     -33.491  20.613   0.855  0.00  0.00    -0.022 C 
ATOM     20  C   UNL     1     -32.331  20.686   0.084  0.00  0.00    -0.004 C 
ATOM     21  C   UNL     1     -33.827  19.422   1.498  0.00  0.00    -0.004 C 
ATOM     22  C   UNL     1     -31.507  19.568  -0.044  0.00  0.00    -0.000 C 
ATOM     23  C   UNL     1     -33.003  18.304   1.371  0.00  0.00    -0.000 C 
ATOM     24  C   UNL     1     -31.842  18.377   0.599  0.00  0.00    -0.000 C 
ENDBRANCH  18  19
ENDBRANCH  17  18
BRANCH  17  25
ATOM     25  C   UNL     1     -36.674  22.217  -0.165  0.00  0.00    +0.063 C 
BRANCH  25  26
ATOM     26  S   UNL     1     -36.678  24.035  -0.049  0.00  0.00    -0.167 S 
ATOM     27  H   UNL     1     -36.259  24.565  -1.230  0.00  0.00    +0.102 HD
ENDBRANCH  25  26
ENDBRANCH  17  25
ENDBRANCH   3  17
TORSDOF 9
ENDMDL
MODEL 6
REMARK VINA RESULT:      -5.5      4.521      6.955
REMARK  Name = 5492328
REMARK  9 active torsions:
REMARK  status: ('A' for Active; 'I' for Inactive)
REMARK    1  A    between atoms: N_2  and  C_5
REMARK    2  A    between atoms: C_3  and  C_17
REMARK    3  A    between atoms: C_5  and  C_9
REMARK    4  A    between atoms: N_8  and  C_11
REMARK    5  A    between atoms: C_11  and  C_14
REMARK    6  A    between atoms: C_17  and  C_18
REMARK    7  A    between atoms: C_17  and  C_25
REMARK    8  A    between atoms: C_18  and  C_19
REMARK    9  A    between atoms: C_25  and  S_26
REMARK                            x       y       z     vdW  Elec       q    Type
REMARK                         _______ _______ _______ _____ _____    ______ ____
ROOT
ATOM      1  O   UNL     1     -34.715  26.859   1.388  0.00  0.00    -0.275 OA
ATOM      2  N   UNL     1     -35.216  28.164   3.238  0.00  0.00    -0.298 N 
ATOM      3  C   UNL     1     -35.291  27.016   2.462  0.00  0.00    +0.223 C 
ATOM      4  H   UNL     1     -35.715  28.192   4.086  0.00  0.00    +0.150 HD
ENDROOT
BRANCH   2   5
ATOM      5  C   UNL     1     -34.438  29.318   2.854  0.00  0.00    +0.149 C 
ATOM      6  C   UNL     1     -35.312  30.555   2.720  0.00  0.00    +0.031 C 
BRANCH   5   9
ATOM      7  O   UNL     1     -33.243  30.567   4.554  0.00  0.00    -0.273 OA
ATOM      8  N   UNL     1     -32.510  28.434   4.010  0.00  0.00    -0.295 N 
ATOM      9  C   UNL     1     -33.357  29.528   3.908  0.00  0.00    +0.241 C 
ATOM     10  H   UNL     1     -32.686  27.645   3.448  0.00  0.00    +0.150 HD
BRANCH   8  11
ATOM     11  C   UNL     1     -31.380  28.404   4.909  0.00  0.00    +0.175 C 
BRANCH  11  14
ATOM     12  O   UNL     1     -32.376  27.075   6.670  0.00  0.00    -0.273 OA
ATOM     13  N   UNL     1     -31.685  29.214   7.149  0.00  0.00    -0.327 N 
ATOM     14  C   UNL     1     -31.855  28.129   6.318  0.00  0.00    +0.239 C 
ATOM     15  H   UNL     1     -31.956  29.158   8.094  0.00  0.00    +0.145 HD
ATOM     16  H   UNL     1     -31.291  30.046   6.800  0.00  0.00    +0.145 HD
ENDBRANCH  11  14
ENDBRANCH   8  11
ENDBRANCH   5   9
ENDBRANCH   2   5
BRANCH   3  17
ATOM     17  C   UNL     1     -36.186  25.938   3.088  0.00  0.00    +0.091 C 
BRANCH  17  18
ATOM     18  C   UNL     1     -35.706  24.530   2.673  0.00  0.00    +0.036 C 
BRANCH  18  19
ATOM     19  C   UNL     1     -35.535  23.574   3.828  0.00  0.00    -0.022 C 
ATOM     20  C   UNL     1     -35.448  24.062   5.131  0.00  0.00    -0.004 C 
ATOM     21  C   UNL     1     -35.466  22.201   3.592  0.00  0.00    -0.004 C 
ATOM     22  C   UNL     1     -35.290  23.179   6.199  0.00  0.00    -0.000 C 
ATOM     23  C   UNL     1     -35.309  21.317   4.660  0.00  0.00    -0.000 C 
ATOM     24  C   UNL     1     -35.221  21.806   5.964  0.00  0.00    -0.000 C 
ENDBRANCH  18  19
ENDBRANCH  17  18
BRANCH  17  25
ATOM     25  C   UNL     1     -37.676  26.219   2.799  0.00  0.00    +0.063 C 
BRANCH  25  26
ATOM     26  S   UNL     1     -38.763  24.762   2.903  0.00  0.00    -0.167 S 
ATOM     27  H   UNL     1     -38.348  23.823   2.012  0.00  0.00    +0.102 HD
ENDBRANCH  25  26
ENDBRANCH  17  25
ENDBRANCH   3  17
TORSDOF 9
ENDMDL
MODEL 7
REMARK VINA RESULT:      -5.4      2.176      2.709
REMARK  Name = 5492328
REMARK  9 active torsions:
REMARK  status: ('A' for Active; 'I' for Inactive)
REMARK    1  A    between atoms: N_2  and  C_5
REMARK    2  A    between atoms: C_3  and  C_17
REMARK    3  A    between atoms: C_5  and  C_9
REMARK    4  A    between atoms: N_8  and  C_11
REMARK    5  A    between atoms: C_11  and  C_14
REMARK    6  A    between atoms: C_17  and  C_18
REMARK    7  A    between atoms: C_17  and  C_25
REMARK    8  A    between atoms: C_18  and  C_19
REMARK    9  A    between atoms: C_25  and  S_26
REMARK                            x       y       z     vdW  Elec       q    Type
REMARK                         _______ _______ _______ _____ _____    ______ ____
ROOT
ATOM      1  O   UNL     1     -37.222  20.998   1.980  0.00  0.00    -0.275 OA
ATOM      2  N   UNL     1     -35.272  21.193   3.220  0.00  0.00    -0.298 N 
ATOM      3  C   UNL     1     -36.029  20.750   2.145  0.00  0.00    +0.223 C 
ATOM      4  H   UNL     1     -34.322  20.941   3.261  0.00  0.00    +0.150 HD
ENDROOT
BRANCH   2   5
ATOM      5  C   UNL     1     -35.818  22.008   4.280  0.00  0.00    +0.149 C 
ATOM      6  C   UNL     1     -35.167  21.686   5.616  0.00  0.00    +0.031 C 
BRANCH   5   9
ATOM      7  O   UNL     1     -36.373  24.099   3.186  0.00  0.00    -0.273 OA
ATOM      8  N   UNL     1     -34.426  23.975   4.444  0.00  0.00    -0.295 N 
ATOM      9  C   UNL     1     -35.602  23.470   3.908  0.00  0.00    +0.241 C 
ATOM     10  H   UNL     1     -33.876  23.391   5.013  0.00  0.00    +0.150 HD
BRANCH   8  11
ATOM     11  C   UNL     1     -33.977  25.327   4.201  0.00  0.00    +0.175 C 
BRANCH  11  14
ATOM     12  O   UNL     1     -33.849  26.546   6.288  0.00  0.00    -0.273 OA
ATOM     13  N   UNL     1     -35.789  26.647   5.060  0.00  0.00    -0.327 N 
ATOM     14  C   UNL     1     -34.493  26.240   5.289  0.00  0.00    +0.239 C 
ATOM     15  H   UNL     1     -36.237  27.246   5.700  0.00  0.00    +0.145 HD
ATOM     16  H   UNL     1     -36.267  26.341   4.256  0.00  0.00    +0.145 HD
ENDBRANCH  11  14
ENDBRANCH   8  11
ENDBRANCH   5   9
ENDBRANCH   2   5
BRANCH   3  17
ATOM     17  C   UNL     1     -35.217  19.898   1.161  0.00  0.00    +0.091 C 
BRANCH  17  18
ATOM     18  C   UNL     1     -33.864  19.495   1.785  0.00  0.00    +0.036 C 
BRANCH  18  19
ATOM     19  C   UNL     1     -33.168  18.365   1.067  0.00  0.00    -0.022 C 
ATOM     20  C   UNL     1     -33.918  17.354   0.466  0.00  0.00    -0.004 C 
ATOM     21  C   UNL     1     -31.775  18.331   1.003  0.00  0.00    -0.004 C 
ATOM     22  C   UNL     1     -33.275  16.309  -0.198  0.00  0.00    -0.000 C 
ATOM     23  C   UNL     1     -31.132  17.287   0.339  0.00  0.00    -0.000 C 
ATOM     24  C   UNL     1     -31.883  16.275  -0.262  0.00  0.00    -0.000 C 
ENDBRANCH  18  19
ENDBRANCH  17  18
BRANCH  17  25
ATOM     25  C   UNL     1     -35.108  20.594  -0.213  0.00  0.00    +0.063 C 
BRANCH  25  26
ATOM     26  S   UNL     1     -33.893  21.948  -0.290  0.00  0.00    -0.167 S 
ATOM     27  H   UNL     1     -34.401  23.049   0.326  0.00  0.00    +0.102 HD
ENDBRANCH  25  26
ENDBRANCH  17  25
ENDBRANCH   3  17
TORSDOF 9
ENDMDL
MODEL 8
REMARK VINA RESULT:      -5.4      2.390      3.437
REMARK  Name = 5492328
REMARK  9 active torsions:
REMARK  status: ('A' for Active; 'I' for Inactive)
REMARK    1  A    between atoms: N_2  and  C_5
REMARK    2  A    between atoms: C_3  and  C_17
REMARK    3  A    between atoms: C_5  and  C_9
REMARK    4  A    between atoms: N_8  and  C_11
REMARK    5  A    between atoms: C_11  and  C_14
REMARK    6  A    between atoms: C_17  and  C_18
REMARK    7  A    between atoms: C_17  and  C_25
REMARK    8  A    between atoms: C_18  and  C_19
REMARK    9  A    between atoms: C_25  and  S_26
REMARK                            x       y       z     vdW  Elec       q    Type
REMARK                         _______ _______ _______ _____ _____    ______ ____
ROOT
ATOM      1  O   UNL     1     -34.518  23.545   1.378  0.00  0.00    -0.275 OA
ATOM      2  N   UNL     1     -36.063  23.038   3.033  0.00  0.00    -0.298 N 
ATOM      3  C   UNL     1     -35.176  22.723   2.013  0.00  0.00    +0.223 C 
ATOM      4  H   UNL     1     -36.543  22.307   3.482  0.00  0.00    +0.150 HD
ENDROOT
BRANCH   2   5
ATOM      5  C   UNL     1     -36.310  24.395   3.462  0.00  0.00    +0.149 C 
ATOM      6  C   UNL     1     -37.799  24.706   3.480  0.00  0.00    +0.031 C 
BRANCH   5   9
ATOM      7  O   UNL     1     -35.976  23.835   5.797  0.00  0.00    -0.273 OA
ATOM      8  N   UNL     1     -34.849  25.660   4.911  0.00  0.00    -0.295 N 
ATOM      9  C   UNL     1     -35.702  24.567   4.849  0.00  0.00    +0.241 C 
ATOM     10  H   UNL     1     -34.693  26.186   4.094  0.00  0.00    +0.150 HD
BRANCH   8  11
ATOM     11  C   UNL     1     -34.181  26.059   6.128  0.00  0.00    +0.175 C 
BRANCH  11  14
ATOM     12  O   UNL     1     -32.592  27.161   4.671  0.00  0.00    -0.273 OA
ATOM     13  N   UNL     1     -32.537  27.618   6.924  0.00  0.00    -0.327 N 
ATOM     14  C   UNL     1     -33.044  27.000   5.801  0.00  0.00    +0.239 C 
ATOM     15  H   UNL     1     -31.791  28.256   6.839  0.00  0.00    +0.145 HD
ATOM     16  H   UNL     1     -32.920  27.423   7.809  0.00  0.00    +0.145 HD
ENDBRANCH  11  14
ENDBRANCH   8  11
ENDBRANCH   5   9
ENDBRANCH   2   5
BRANCH   3  17
ATOM     17  C   UNL     1     -35.097  21.214   1.745  0.00  0.00    +0.091 C 
BRANCH  17  18
ATOM     18  C   UNL     1     -34.357  20.940   0.418  0.00  0.00    +0.036 C 
BRANCH  18  19
ATOM     19  C   UNL     1     -33.183  20.000   0.553  0.00  0.00    -0.022 C 
ATOM     20  C   UNL     1     -31.973  20.303  -0.071  0.00  0.00    -0.004 C 
ATOM     21  C   UNL     1     -33.308  18.830   1.300  0.00  0.00    -0.004 C 
ATOM     22  C   UNL     1     -30.888  19.435   0.054  0.00  0.00    -0.000 C 
ATOM     23  C   UNL     1     -32.224  17.962   1.426  0.00  0.00    -0.000 C 
ATOM     24  C   UNL     1     -31.013  18.265   0.802  0.00  0.00    -0.000 C 
ENDBRANCH  18  19
ENDBRANCH  17  18
BRANCH  17  25
ATOM     25  C   UNL     1     -36.491  20.560   1.849  0.00  0.00    +0.063 C 
BRANCH  25  26
ATOM     26  S   UNL     1     -37.180  19.972   0.269  0.00  0.00    -0.167 S 
ATOM     27  H   UNL     1     -36.567  18.812  -0.088  0.00  0.00    +0.102 HD
ENDBRANCH  25  26
ENDBRANCH  17  25
ENDBRANCH   3  17
TORSDOF 9
ENDMDL
MODEL 9
REMARK VINA RESULT:      -5.3      2.275      3.427
REMARK  Name = 5492328
REMARK  9 active torsions:
REMARK  status: ('A' for Active; 'I' for Inactive)
REMARK    1  A    between atoms: N_2  and  C_5
REMARK    2  A    between atoms: C_3  and  C_17
REMARK    3  A    between atoms: C_5  and  C_9
REMARK    4  A    between atoms: N_8  and  C_11
REMARK    5  A    between atoms: C_11  and  C_14
REMARK    6  A    between atoms: C_17  and  C_18
REMARK    7  A    between atoms: C_17  and  C_25
REMARK    8  A    between atoms: C_18  and  C_19
REMARK    9  A    between atoms: C_25  and  S_26
REMARK                            x       y       z     vdW  Elec       q    Type
REMARK                         _______ _______ _______ _____ _____    ______ ____
ROOT
ATOM      1  O   UNL     1     -35.894  22.602   0.368  0.00  0.00    -0.275 OA
ATOM      2  N   UNL     1     -37.284  20.913   1.139  0.00  0.00    -0.298 N 
ATOM      3  C   UNL     1     -36.078  21.592   1.045  0.00  0.00    +0.223 C 
ATOM      4  H   UNL     1     -37.330  20.113   1.710  0.00  0.00    +0.150 HD
ENDROOT
BRANCH   2   5
ATOM      5  C   UNL     1     -38.474  21.330   0.436  0.00  0.00    +0.149 C 
ATOM      6  C   UNL     1     -39.103  20.172  -0.323  0.00  0.00    +0.031 C 
BRANCH   5   9
ATOM      7  O   UNL     1     -40.372  21.253   1.942  0.00  0.00    -0.273 OA
ATOM      8  N   UNL     1     -39.188  23.238   1.734  0.00  0.00    -0.295 N 
ATOM      9  C   UNL     1     -39.448  21.903   1.458  0.00  0.00    +0.241 C 
ATOM     10  H   UNL     1     -38.421  23.671   1.295  0.00  0.00    +0.150 HD
BRANCH   8  11
ATOM     11  C   UNL     1     -39.998  24.019   2.640  0.00  0.00    +0.175 C 
BRANCH  11  14
ATOM     12  O   UNL     1     -39.382  26.349   2.408  0.00  0.00    -0.273 OA
ATOM     13  N   UNL     1     -38.414  25.105   4.081  0.00  0.00    -0.327 N 
ATOM     14  C   UNL     1     -39.266  25.288   3.014  0.00  0.00    +0.239 C 
ATOM     15  H   UNL     1     -37.880  25.860   4.419  0.00  0.00    +0.145 HD
ATOM     16  H   UNL     1     -38.339  24.220   4.506  0.00  0.00    +0.145 HD
ENDBRANCH  11  14
ENDBRANCH   8  11
ENDBRANCH   5   9
ENDBRANCH   2   5
BRANCH   3  17
ATOM     17  C   UNL     1     -34.968  20.945   1.884  0.00  0.00    +0.091 C 
BRANCH  17  18
ATOM     18  C   UNL     1     -34.659  19.524   1.364  0.00  0.00    +0.036 C 
BRANCH  18  19
ATOM     19  C   UNL     1     -33.219  19.318   0.960  0.00  0.00    -0.022 C 
ATOM     20  C   UNL     1     -32.546  18.159   1.344  0.00  0.00    -0.004 C 
ATOM     21  C   UNL     1     -32.562  20.286   0.201  0.00  0.00    -0.004 C 
ATOM     22  C   UNL     1     -31.216  17.968   0.970  0.00  0.00    -0.000 C 
ATOM     23  C   UNL     1     -31.232  20.096  -0.174  0.00  0.00    -0.000 C 
ATOM     24  C   UNL     1     -30.559  18.936   0.211  0.00  0.00    -0.000 C 
ENDBRANCH  18  19
ENDBRANCH  17  18
BRANCH  17  25
ATOM     25  C   UNL     1     -35.298  21.020   3.389  0.00  0.00    +0.063 C 
BRANCH  25  26
ATOM     26  S   UNL     1     -35.673  22.692   4.007  0.00  0.00    -0.167 S 
ATOM     27  H   UNL     1     -34.794  23.580   3.471  0.00  0.00    +0.102 HD
ENDBRANCH  25  26
ENDBRANCH  17  25
ENDBRANCH   3  17
TORSDOF 9
ENDMDL
