MODEL 1
REMARK VINA RESULT:      -7.6      0.000      0.000
REMARK  Name = 53762423
REMARK  7 active torsions:
REMARK  status: ('A' for Active; 'I' for Inactive)
REMARK    1  A    between atoms: C_2  and  O_15
REMARK    2  A    between atoms: C_2  and  C_19
REMARK    3  A    between atoms: C_3  and  O_17
REMARK    4  A    between atoms: C_4  and  N_8
REMARK    5  A    between atoms: C_5  and  C_36
REMARK    6  A    between atoms: C_19  and  C_20
REMARK    7  A    between atoms: C_36  and  O_37
REMARK                            x       y       z     vdW  Elec       q    Type
REMARK                         _______ _______ _______ _____ _____    ______ ____
ROOT
ATOM      1  O   UNL     1     -36.938  23.637   3.031  0.00  0.00    -0.333 OA
ATOM      2  C   UNL     1     -36.558  21.388   2.411  0.00  0.00    +0.162 C 
ATOM      3  C   UNL     1     -35.481  21.780   3.422  0.00  0.00    +0.169 C 
ATOM      4  C   UNL     1     -37.636  22.427   2.707  0.00  0.00    +0.227 C 
ATOM      5  C   UNL     1     -35.648  23.294   3.578  0.00  0.00    +0.175 C 
ENDROOT
BRANCH   4   8
ATOM      6  O   UNL     1     -40.068  21.051   2.306  0.00  0.00    -0.252 OA
ATOM      7  O   UNL     1     -41.022  23.479  -1.494  0.00  0.00    -0.270 OA
ATOM      8  N   UNL     1     -38.540  22.680   1.622  0.00  0.00    -0.217 N 
ATOM      9  N   UNL     1     -40.541  22.261   0.414  0.00  0.00    -0.236 N 
ATOM     10  C   UNL     1     -39.735  21.933   1.511  0.00  0.00    +0.315 C 
ATOM     11  C   UNL     1     -38.238  23.660   0.684  0.00  0.00    +0.076 C 
ATOM     12  C   UNL     1     -39.017  23.962  -0.356  0.00  0.00    +0.074 C 
ATOM     13  C   UNL     1     -40.283  23.227  -0.547  0.00  0.00    +0.254 C 
ATOM     14  H   UNL     1     -41.379  21.754   0.315  0.00  0.00    +0.159 HD
ENDBRANCH   4   8
BRANCH   2  15
ATOM     15  O   UNL     1     -37.053  20.077   2.651  0.00  0.00    -0.380 OA
ATOM     16  H   UNL     1     -37.239  19.642   1.805  0.00  0.00    +0.211 HD
ENDBRANCH   2  15
BRANCH   3  17
ATOM     17  O   UNL     1     -35.738  21.167   4.689  0.00  0.00    -0.379 OA
ATOM     18  H   UNL     1     -34.920  20.768   5.026  0.00  0.00    +0.211 HD
ENDBRANCH   3  17
BRANCH   2  19
ATOM     19  C   UNL     1     -36.032  21.436   0.972  0.00  0.00    +0.060 C 
BRANCH  19  20
ATOM     20  C   UNL     1     -34.716  20.738   0.829  0.00  0.00    -0.020 C 
ATOM     21  C   UNL     1     -33.618  21.338   0.195  0.00  0.00    -0.004 C 
ATOM     22  C   UNL     1     -32.401  20.624   0.094  0.00  0.00    -0.000 C 
ATOM     23  C   UNL     1     -34.614  19.451   1.353  0.00  0.00    -0.004 C 
ATOM     24  C   UNL     1     -32.300  19.319   0.626  0.00  0.00    -0.000 C 
ATOM     25  C   UNL     1     -31.282  21.218  -0.543  0.00  0.00    -0.000 C 
ATOM     26  C   UNL     1     -33.416  18.745   1.254  0.00  0.00    -0.000 C 
ATOM     27  C   UNL     1     -33.699  22.631  -0.338  0.00  0.00    -0.000 C 
ATOM     28  C   UNL     1     -31.383  22.524  -1.076  0.00  0.00    -0.000 C 
ATOM     29  C   UNL     1     -30.066  20.504  -0.645  0.00  0.00    -0.000 C 
ATOM     30  C   UNL     1     -32.597  23.216  -0.966  0.00  0.00    -0.000 C 
ATOM     31  C   UNL     1     -31.087  18.625   0.516  0.00  0.00    -0.000 C 
ATOM     32  C   UNL     1     -29.985  19.210  -0.111  0.00  0.00    -0.000 C 
ATOM     33  C   UNL     1     -30.267  23.097  -1.704  0.00  0.00    -0.000 C 
ATOM     34  C   UNL     1     -28.969  21.104  -1.278  0.00  0.00    -0.000 C 
ATOM     35  C   UNL     1     -29.069  22.392  -1.803  0.00  0.00    +0.000 C 
ENDBRANCH  19  20
ENDBRANCH   2  19
BRANCH   5  36
ATOM     36  C   UNL     1     -34.584  24.111   2.861  0.00  0.00    +0.169 C 
BRANCH  36  37
ATOM     37  O   UNL     1     -35.218  24.966   1.924  0.00  0.00    -0.379 OA
ATOM     38  H   UNL     1     -36.180  24.867   1.995  0.00  0.00    +0.211 HD
ENDBRANCH  36  37
ENDBRANCH   5  36
TORSDOF 7
ENDMDL
MODEL 2
REMARK VINA RESULT:      -7.4      2.026      2.560
REMARK  Name = 53762423
REMARK  7 active torsions:
REMARK  status: ('A' for Active; 'I' for Inactive)
REMARK    1  A    between atoms: C_2  and  O_15
REMARK    2  A    between atoms: C_2  and  C_19
REMARK    3  A    between atoms: C_3  and  O_17
REMARK    4  A    between atoms: C_4  and  N_8
REMARK    5  A    between atoms: C_5  and  C_36
REMARK    6  A    between atoms: C_19  and  C_20
REMARK    7  A    between atoms: C_36  and  O_37
REMARK                            x       y       z     vdW  Elec       q    Type
REMARK                         _______ _______ _______ _____ _____    ______ ____
ROOT
ATOM      1  O   UNL     1     -35.691  26.187   3.500  0.00  0.00    -0.333 OA
ATOM      2  C   UNL     1     -36.248  23.893   3.380  0.00  0.00    +0.162 C 
ATOM      3  C   UNL     1     -34.875  24.005   4.043  0.00  0.00    +0.169 C 
ATOM      4  C   UNL     1     -36.806  25.294   3.617  0.00  0.00    +0.227 C 
ATOM      5  C   UNL     1     -34.489  25.475   3.858  0.00  0.00    +0.175 C 
ENDROOT
BRANCH   4   8
ATOM      6  O   UNL     1     -39.493  24.439   3.750  0.00  0.00    -0.252 OA
ATOM      7  O   UNL     1     -40.647  26.893   0.023  0.00  0.00    -0.270 OA
ATOM      8  N   UNL     1     -37.830  25.695   2.695  0.00  0.00    -0.217 N 
ATOM      9  N   UNL     1     -40.065  25.662   1.894  0.00  0.00    -0.236 N 
ATOM     10  C   UNL     1     -39.148  25.208   2.850  0.00  0.00    +0.315 C 
ATOM     11  C   UNL     1     -37.522  26.561   1.653  0.00  0.00    +0.076 C 
ATOM     12  C   UNL     1     -38.408  26.985   0.750  0.00  0.00    +0.074 C 
ATOM     13  C   UNL     1     -39.808  26.523   0.838  0.00  0.00    +0.254 C 
ATOM     14  H   UNL     1     -40.991  25.335   1.981  0.00  0.00    +0.159 HD
ENDBRANCH   4   8
BRANCH   2  15
ATOM     15  O   UNL     1     -37.062  22.919   4.019  0.00  0.00    -0.380 OA
ATOM     16  H   UNL     1     -36.732  22.032   3.808  0.00  0.00    +0.211 HD
ENDBRANCH   2  15
BRANCH   3  17
ATOM     17  O   UNL     1     -34.973  23.739   5.445  0.00  0.00    -0.379 OA
ATOM     18  H   UNL     1     -34.083  23.644   5.819  0.00  0.00    +0.211 HD
ENDBRANCH   3  17
BRANCH   2  19
ATOM     19  C   UNL     1     -36.135  23.514   1.899  0.00  0.00    +0.060 C 
BRANCH  19  20
ATOM     20  C   UNL     1     -35.354  22.253   1.697  0.00  0.00    -0.020 C 
ATOM     21  C   UNL     1     -34.201  22.210   0.899  0.00  0.00    -0.004 C 
ATOM     22  C   UNL     1     -33.508  20.986   0.750  0.00  0.00    -0.000 C 
ATOM     23  C   UNL     1     -35.816  21.105   2.337  0.00  0.00    -0.004 C 
ATOM     24  C   UNL     1     -33.978  19.822   1.400  0.00  0.00    -0.000 C 
ATOM     25  C   UNL     1     -32.341  20.927  -0.053  0.00  0.00    -0.000 C 
ATOM     26  C   UNL     1     -35.135  19.898   2.191  0.00  0.00    -0.000 C 
ATOM     27  C   UNL     1     -33.719  23.353   0.247  0.00  0.00    -0.000 C 
ATOM     28  C   UNL     1     -31.870  22.091  -0.704  0.00  0.00    -0.000 C 
ATOM     29  C   UNL     1     -31.648  19.703  -0.203  0.00  0.00    -0.000 C 
ATOM     30  C   UNL     1     -32.570  23.295  -0.543  0.00  0.00    -0.000 C 
ATOM     31  C   UNL     1     -33.279  18.618   1.240  0.00  0.00    -0.000 C 
ATOM     32  C   UNL     1     -32.129  18.560   0.449  0.00  0.00    -0.000 C 
ATOM     33  C   UNL     1     -30.714  22.015  -1.495  0.00  0.00    -0.000 C 
ATOM     34  C   UNL     1     -30.496  19.660  -1.000  0.00  0.00    -0.000 C 
ATOM     35  C   UNL     1     -30.032  20.809  -1.641  0.00  0.00    +0.000 C 
ENDBRANCH  19  20
ENDBRANCH   2  19
BRANCH   5  36
ATOM     36  C   UNL     1     -33.445  25.709   2.776  0.00  0.00    +0.169 C 
BRANCH  36  37
ATOM     37  O   UNL     1     -32.279  26.251   3.375  0.00  0.00    -0.379 OA
ATOM     38  H   UNL     1     -32.312  27.219   3.329  0.00  0.00    +0.211 HD
ENDBRANCH  36  37
ENDBRANCH   5  36
TORSDOF 7
ENDMDL
MODEL 3
REMARK VINA RESULT:      -7.4      4.381      7.399
REMARK  Name = 53762423
REMARK  7 active torsions:
REMARK  status: ('A' for Active; 'I' for Inactive)
REMARK    1  A    between atoms: C_2  and  O_15
REMARK    2  A    between atoms: C_2  and  C_19
REMARK    3  A    between atoms: C_3  and  O_17
REMARK    4  A    between atoms: C_4  and  N_8
REMARK    5  A    between atoms: C_5  and  C_36
REMARK    6  A    between atoms: C_19  and  C_20
REMARK    7  A    between atoms: C_36  and  O_37
REMARK                            x       y       z     vdW  Elec       q    Type
REMARK                         _______ _______ _______ _____ _____    ______ ____
ROOT
ATOM      1  O   UNL     1     -37.389  24.892   0.023  0.00  0.00    -0.333 OA
ATOM      2  C   UNL     1     -36.470  26.329   1.658  0.00  0.00    +0.162 C 
ATOM      3  C   UNL     1     -36.897  27.190   0.469  0.00  0.00    +0.169 C 
ATOM      4  C   UNL     1     -37.321  25.081   1.442  0.00  0.00    +0.227 C 
ATOM      5  C   UNL     1     -37.245  26.174  -0.622  0.00  0.00    +0.175 C 
ENDROOT
BRANCH   4   8
ATOM      6  O   UNL     1     -37.892  24.269   4.085  0.00  0.00    -0.252 OA
ATOM      7  O   UNL     1     -35.279  20.494   3.681  0.00  0.00    -0.270 OA
ATOM      8  N   UNL     1     -36.804  23.890   2.052  0.00  0.00    -0.217 N 
ATOM      9  N   UNL     1     -36.590  22.391   3.882  0.00  0.00    -0.236 N 
ATOM     10  C   UNL     1     -37.152  23.574   3.386  0.00  0.00    +0.315 C 
ATOM     11  C   UNL     1     -35.964  23.051   1.330  0.00  0.00    +0.076 C 
ATOM     12  C   UNL     1     -35.437  21.926   1.817  0.00  0.00    +0.074 C 
ATOM     13  C   UNL     1     -35.748  21.522   3.203  0.00  0.00    +0.254 C 
ATOM     14  H   UNL     1     -36.816  22.149   4.809  0.00  0.00    +0.159 HD
ENDBRANCH   4   8
BRANCH   2  15
ATOM     15  O   UNL     1     -36.797  26.945   2.897  0.00  0.00    -0.380 OA
ATOM     16  H   UNL     1     -37.364  27.715   2.735  0.00  0.00    +0.211 HD
ENDBRANCH   2  15
BRANCH   3  17
ATOM     17  O   UNL     1     -38.080  27.930   0.787  0.00  0.00    -0.379 OA
ATOM     18  H   UNL     1     -38.846  27.511   0.364  0.00  0.00    +0.211 HD
ENDBRANCH   3  17
BRANCH   2  19
ATOM     19  C   UNL     1     -34.961  26.059   1.650  0.00  0.00    +0.060 C 
BRANCH  19  20
ATOM     20  C   UNL     1     -34.305  26.481   2.927  0.00  0.00    -0.020 C 
ATOM     21  C   UNL     1     -33.600  27.689   3.039  0.00  0.00    -0.004 C 
ATOM     22  C   UNL     1     -33.004  28.030   4.276  0.00  0.00    -0.000 C 
ATOM     23  C   UNL     1     -34.418  25.623   4.019  0.00  0.00    -0.004 C 
ATOM     24  C   UNL     1     -33.120  27.158   5.382  0.00  0.00    -0.000 C 
ATOM     25  C   UNL     1     -32.288  29.247   4.404  0.00  0.00    -0.000 C 
ATOM     26  C   UNL     1     -33.831  25.958   5.239  0.00  0.00    -0.000 C 
ATOM     27  C   UNL     1     -33.474  28.566   1.953  0.00  0.00    -0.000 C 
ATOM     28  C   UNL     1     -32.171  30.120   3.297  0.00  0.00    -0.000 C 
ATOM     29  C   UNL     1     -31.691  29.589   5.640  0.00  0.00    -0.000 C 
ATOM     30  C   UNL     1     -32.770  29.764   2.080  0.00  0.00    -0.000 C 
ATOM     31  C   UNL     1     -32.521  27.513   6.599  0.00  0.00    -0.000 C 
ATOM     32  C   UNL     1     -31.817  28.712   6.726  0.00  0.00    -0.000 C 
ATOM     33  C   UNL     1     -31.460  31.320   3.441  0.00  0.00    -0.000 C 
ATOM     34  C   UNL     1     -30.987  30.796   5.752  0.00  0.00    -0.000 C 
ATOM     35  C   UNL     1     -30.873  31.655   4.660  0.00  0.00    +0.000 C 
ENDBRANCH  19  20
ENDBRANCH   2  19
BRANCH   5  36
ATOM     36  C   UNL     1     -36.191  26.053  -1.712  0.00  0.00    +0.169 C 
BRANCH  36  37
ATOM     37  O   UNL     1     -35.652  24.741  -1.685  0.00  0.00    -0.379 OA
ATOM     38  H   UNL     1     -36.202  24.154  -2.225  0.00  0.00    +0.211 HD
ENDBRANCH  36  37
ENDBRANCH   5  36
TORSDOF 7
ENDMDL
MODEL 4
REMARK VINA RESULT:      -7.4      4.232      7.380
REMARK  Name = 53762423
REMARK  7 active torsions:
REMARK  status: ('A' for Active; 'I' for Inactive)
REMARK    1  A    between atoms: C_2  and  O_15
REMARK    2  A    between atoms: C_2  and  C_19
REMARK    3  A    between atoms: C_3  and  O_17
REMARK    4  A    between atoms: C_4  and  N_8
REMARK    5  A    between atoms: C_5  and  C_36
REMARK    6  A    between atoms: C_19  and  C_20
REMARK    7  A    between atoms: C_36  and  O_37
REMARK                            x       y       z     vdW  Elec       q    Type
REMARK                         _______ _______ _______ _____ _____    ______ ____
ROOT
ATOM      1  O   UNL     1     -39.308  23.893   1.890  0.00  0.00    -0.333 OA
ATOM      2  C   UNL     1     -37.806  25.421   2.887  0.00  0.00    +0.162 C 
ATOM      3  C   UNL     1     -39.023  26.211   2.405  0.00  0.00    +0.169 C 
ATOM      4  C   UNL     1     -38.385  24.012   2.981  0.00  0.00    +0.227 C 
ATOM      5  C   UNL     1     -39.815  25.204   1.568  0.00  0.00    +0.175 C 
ENDROOT
BRANCH   4   8
ATOM      6  O   UNL     1     -36.551  23.366   5.028  0.00  0.00    -0.252 OA
ATOM      7  O   UNL     1     -34.705  19.952   2.543  0.00  0.00    -0.270 OA
ATOM      8  N   UNL     1     -37.415  22.958   2.895  0.00  0.00    -0.217 N 
ATOM      9  N   UNL     1     -35.634  21.666   3.789  0.00  0.00    -0.236 N 
ATOM     10  C   UNL     1     -36.541  22.717   3.980  0.00  0.00    +0.315 C 
ATOM     11  C   UNL     1     -37.340  22.179   1.748  0.00  0.00    +0.076 C 
ATOM     12  C   UNL     1     -36.469  21.181   1.581  0.00  0.00    +0.074 C 
ATOM     13  C   UNL     1     -35.518  20.862   2.664  0.00  0.00    +0.254 C 
ATOM     14  H   UNL     1     -35.013  21.479   4.530  0.00  0.00    +0.159 HD
ENDBRANCH   4   8
BRANCH   2  15
ATOM     15  O   UNL     1     -37.365  25.862   4.165  0.00  0.00    -0.380 OA
ATOM     16  H   UNL     1     -37.430  25.131   4.799  0.00  0.00    +0.211 HD
ENDBRANCH   2  15
BRANCH   3  17
ATOM     17  O   UNL     1     -39.834  26.607   3.516  0.00  0.00    -0.379 OA
ATOM     18  H   UNL     1     -40.694  26.918   3.193  0.00  0.00    +0.211 HD
ENDBRANCH   3  17
BRANCH   2  19
ATOM     19  C   UNL     1     -36.628  25.543   1.914  0.00  0.00    +0.060 C 
BRANCH  19  20
ATOM     20  C   UNL     1     -35.497  26.333   2.493  0.00  0.00    -0.020 C 
ATOM     21  C   UNL     1     -35.374  27.716   2.292  0.00  0.00    -0.004 C 
ATOM     22  C   UNL     1     -34.281  28.405   2.868  0.00  0.00    -0.000 C 
ATOM     23  C   UNL     1     -34.554  25.641   3.250  0.00  0.00    -0.004 C 
ATOM     24  C   UNL     1     -33.326  27.701   3.636  0.00  0.00    -0.000 C 
ATOM     25  C   UNL     1     -34.144  29.803   2.675  0.00  0.00    -0.000 C 
ATOM     26  C   UNL     1     -33.476  26.318   3.819  0.00  0.00    -0.000 C 
ATOM     27  C   UNL     1     -36.311  28.431   1.534  0.00  0.00    -0.000 C 
ATOM     28  C   UNL     1     -35.100  30.508   1.906  0.00  0.00    -0.000 C 
ATOM     29  C   UNL     1     -33.051  30.492   3.250  0.00  0.00    -0.000 C 
ATOM     30  C   UNL     1     -36.176  29.808   1.343  0.00  0.00    -0.000 C 
ATOM     31  C   UNL     1     -32.249  28.400   4.199  0.00  0.00    -0.000 C 
ATOM     32  C   UNL     1     -32.114  29.777   4.008  0.00  0.00    -0.000 C 
ATOM     33  C   UNL     1     -34.949  31.890   1.723  0.00  0.00    -0.000 C 
ATOM     34  C   UNL     1     -32.929  31.874   3.048  0.00  0.00    -0.000 C 
ATOM     35  C   UNL     1     -33.872  32.567   2.291  0.00  0.00    +0.000 C 
ENDBRANCH  19  20
ENDBRANCH   2  19
BRANCH   5  36
ATOM     36  C   UNL     1     -39.692  25.416   0.066  0.00  0.00    +0.169 C 
BRANCH  36  37
ATOM     37  O   UNL     1     -39.006  24.310  -0.498  0.00  0.00    -0.379 OA
ATOM     38  H   UNL     1     -38.336  24.629  -1.122  0.00  0.00    +0.211 HD
ENDBRANCH  36  37
ENDBRANCH   5  36
TORSDOF 7
ENDMDL
MODEL 5
REMARK VINA RESULT:      -7.3      1.676      2.906
REMARK  Name = 53762423
REMARK  7 active torsions:
REMARK  status: ('A' for Active; 'I' for Inactive)
REMARK    1  A    between atoms: C_2  and  O_15
REMARK    2  A    between atoms: C_2  and  C_19
REMARK    3  A    between atoms: C_3  and  O_17
REMARK    4  A    between atoms: C_4  and  N_8
REMARK    5  A    between atoms: C_5  and  C_36
REMARK    6  A    between atoms: C_19  and  C_20
REMARK    7  A    between atoms: C_36  and  O_37
REMARK                            x       y       z     vdW  Elec       q    Type
REMARK                         _______ _______ _______ _____ _____    ______ ____
ROOT
ATOM      1  O   UNL     1     -36.893  25.861   0.755  0.00  0.00    -0.333 OA
ATOM      2  C   UNL     1     -35.178  24.292   1.182  0.00  0.00    +0.162 C 
ATOM      3  C   UNL     1     -34.515  25.610   0.780  0.00  0.00    +0.169 C 
ATOM      4  C   UNL     1     -36.554  24.777   1.629  0.00  0.00    +0.227 C 
ATOM      5  C   UNL     1     -35.676  26.479   0.291  0.00  0.00    +0.175 C 
ENDROOT
BRANCH   4   8
ATOM      6  O   UNL     1     -37.115  22.942   3.700  0.00  0.00    -0.252 OA
ATOM      7  O   UNL     1     -40.540  21.006   1.299  0.00  0.00    -0.270 OA
ATOM      8  N   UNL     1     -37.587  23.784   1.572  0.00  0.00    -0.217 N 
ATOM      9  N   UNL     1     -38.819  21.979   2.503  0.00  0.00    -0.236 N 
ATOM     10  C   UNL     1     -37.786  22.910   2.666  0.00  0.00    +0.315 C 
ATOM     11  C   UNL     1     -38.389  23.684   0.442  0.00  0.00    +0.076 C 
ATOM     12  C   UNL     1     -39.371  22.791   0.302  0.00  0.00    +0.074 C 
ATOM     13  C   UNL     1     -39.645  21.839   1.397  0.00  0.00    +0.254 C 
ATOM     14  H   UNL     1     -38.977  21.359   3.251  0.00  0.00    +0.159 HD
ENDBRANCH   4   8
BRANCH   2  15
ATOM     15  O   UNL     1     -34.495  23.668   2.261  0.00  0.00    -0.380 OA
ATOM     16  H   UNL     1     -33.942  22.948   1.920  0.00  0.00    +0.211 HD
ENDBRANCH   2  15
BRANCH   3  17
ATOM     17  O   UNL     1     -33.930  26.244   1.923  0.00  0.00    -0.379 OA
ATOM     18  H   UNL     1     -34.597  26.793   2.364  0.00  0.00    +0.211 HD
ENDBRANCH   3  17
BRANCH   2  19
ATOM     19  C   UNL     1     -35.221  23.300   0.014  0.00  0.00    +0.060 C 
BRANCH  19  20
ATOM     20  C   UNL     1     -34.579  21.993   0.360  0.00  0.00    -0.020 C 
ATOM     21  C   UNL     1     -33.262  21.687  -0.013  0.00  0.00    -0.004 C 
ATOM     22  C   UNL     1     -32.713  20.434   0.347  0.00  0.00    -0.000 C 
ATOM     23  C   UNL     1     -35.343  21.074   1.076  0.00  0.00    -0.004 C 
ATOM     24  C   UNL     1     -33.491  19.503   1.073  0.00  0.00    -0.000 C 
ATOM     25  C   UNL     1     -31.383  20.111  -0.023  0.00  0.00    -0.000 C 
ATOM     26  C   UNL     1     -34.805  19.838   1.431  0.00  0.00    -0.000 C 
ATOM     27  C   UNL     1     -32.476  22.597  -0.733  0.00  0.00    -0.000 C 
ATOM     28  C   UNL     1     -30.605  21.042  -0.750  0.00  0.00    -0.000 C 
ATOM     29  C   UNL     1     -30.835  18.858   0.336  0.00  0.00    -0.000 C 
ATOM     30  C   UNL     1     -31.166  22.279  -1.097  0.00  0.00    -0.000 C 
ATOM     31  C   UNL     1     -32.931  18.266   1.420  0.00  0.00    -0.000 C 
ATOM     32  C   UNL     1     -31.621  17.948   1.056  0.00  0.00    -0.000 C 
ATOM     33  C   UNL     1     -29.291  20.707  -1.109  0.00  0.00    -0.000 C 
ATOM     34  C   UNL     1     -29.518  18.553  -0.037  0.00  0.00    -0.000 C 
ATOM     35  C   UNL     1     -28.752  19.471  -0.754  0.00  0.00    +0.000 C 
ENDBRANCH  19  20
ENDBRANCH   2  19
BRANCH   5  36
ATOM     36  C   UNL     1     -35.748  26.618  -1.223  0.00  0.00    +0.169 C 
BRANCH  36  37
ATOM     37  O   UNL     1     -36.984  26.087  -1.672  0.00  0.00    -0.379 OA
ATOM     38  H   UNL     1     -37.364  26.675  -2.343  0.00  0.00    +0.211 HD
ENDBRANCH  36  37
ENDBRANCH   5  36
TORSDOF 7
ENDMDL
MODEL 6
REMARK VINA RESULT:      -7.3      1.938      3.939
REMARK  Name = 53762423
REMARK  7 active torsions:
REMARK  status: ('A' for Active; 'I' for Inactive)
REMARK    1  A    between atoms: C_2  and  O_15
REMARK    2  A    between atoms: C_2  and  C_19
REMARK    3  A    between atoms: C_3  and  O_17
REMARK    4  A    between atoms: C_4  and  N_8
REMARK    5  A    between atoms: C_5  and  C_36
REMARK    6  A    between atoms: C_19  and  C_20
REMARK    7  A    between atoms: C_36  and  O_37
REMARK                            x       y       z     vdW  Elec       q    Type
REMARK                         _______ _______ _______ _____ _____    ______ ____
ROOT
ATOM      1  O   UNL     1     -37.409  26.566   2.082  0.00  0.00    -0.333 OA
ATOM      2  C   UNL     1     -35.459  25.255   1.832  0.00  0.00    +0.162 C 
ATOM      3  C   UNL     1     -35.048  26.724   1.730  0.00  0.00    +0.169 C 
ATOM      4  C   UNL     1     -36.790  25.369   2.570  0.00  0.00    +0.227 C 
ATOM      5  C   UNL     1     -36.377  27.479   1.654  0.00  0.00    +0.175 C 
ENDROOT
BRANCH   4   8
ATOM      6  O   UNL     1     -36.640  22.931   3.986  0.00  0.00    -0.252 OA
ATOM      7  O   UNL     1     -40.263  21.192   1.730  0.00  0.00    -0.270 OA
ATOM      8  N   UNL     1     -37.682  24.263   2.374  0.00  0.00    -0.217 N 
ATOM      9  N   UNL     1     -38.444  22.067   2.861  0.00  0.00    -0.236 N 
ATOM     10  C   UNL     1     -37.520  23.084   3.136  0.00  0.00    +0.315 C 
ATOM     11  C   UNL     1     -38.702  24.355   1.435  0.00  0.00    +0.076 C 
ATOM     12  C   UNL     1     -39.575  23.377   1.185  0.00  0.00    +0.074 C 
ATOM     13  C   UNL     1     -39.476  22.110   1.936  0.00  0.00    +0.254 C 
ATOM     14  H   UNL     1     -38.351  21.235   3.379  0.00  0.00    +0.159 HD
ENDBRANCH   4   8
BRANCH   2  15
ATOM     15  O   UNL     1     -34.529  24.501   2.599  0.00  0.00    -0.380 OA
ATOM     16  H   UNL     1     -33.678  24.470   2.135  0.00  0.00    +0.211 HD
ENDBRANCH   2  15
BRANCH   3  17
ATOM     17  O   UNL     1     -34.365  27.135   2.918  0.00  0.00    -0.379 OA
ATOM     18  H   UNL     1     -35.011  27.290   3.625  0.00  0.00    +0.211 HD
ENDBRANCH   3  17
BRANCH   2  19
ATOM     19  C   UNL     1     -35.572  24.599   0.451  0.00  0.00    +0.060 C 
BRANCH  19  20
ATOM     20  C   UNL     1     -34.310  23.900   0.053  0.00  0.00    -0.020 C 
ATOM     21  C   UNL     1     -34.066  22.558   0.381  0.00  0.00    -0.004 C 
ATOM     22  C   UNL     1     -32.852  21.956  -0.027  0.00  0.00    -0.000 C 
ATOM     23  C   UNL     1     -33.369  24.636  -0.664  0.00  0.00    -0.004 C 
ATOM     24  C   UNL     1     -31.900  22.704  -0.754  0.00  0.00    -0.000 C 
ATOM     25  C   UNL     1     -32.592  20.600   0.296  0.00  0.00    -0.000 C 
ATOM     26  C   UNL     1     -32.173  24.045  -1.067  0.00  0.00    -0.000 C 
ATOM     27  C   UNL     1     -34.998  21.800   1.101  0.00  0.00    -0.000 C 
ATOM     28  C   UNL     1     -33.545  19.851   1.025  0.00  0.00    -0.000 C 
ATOM     29  C   UNL     1     -31.378  19.998  -0.110  0.00  0.00    -0.000 C 
ATOM     30  C   UNL     1     -34.741  20.465   1.420  0.00  0.00    -0.000 C 
ATOM     31  C   UNL     1     -30.702  22.091  -1.149  0.00  0.00    -0.000 C 
ATOM     32  C   UNL     1     -30.446  20.756  -0.831  0.00  0.00    -0.000 C 
ATOM     33  C   UNL     1     -33.271  18.511   1.337  0.00  0.00    -0.000 C 
ATOM     34  C   UNL     1     -31.135  18.656   0.218  0.00  0.00    -0.000 C 
ATOM     35  C   UNL     1     -32.075  17.919   0.935  0.00  0.00    +0.000 C 
ENDBRANCH  19  20
ENDBRANCH   2  19
BRANCH   5  36
ATOM     36  C   UNL     1     -36.722  27.984   0.261  0.00  0.00    +0.169 C 
BRANCH  36  37
ATOM     37  O   UNL     1     -37.996  28.607   0.303  0.00  0.00    -0.379 OA
ATOM     38  H   UNL     1     -38.013  29.261   1.019  0.00  0.00    +0.211 HD
ENDBRANCH  36  37
ENDBRANCH   5  36
TORSDOF 7
ENDMDL
MODEL 7
REMARK VINA RESULT:      -7.3     11.177     14.151
REMARK  Name = 53762423
REMARK  7 active torsions:
REMARK  status: ('A' for Active; 'I' for Inactive)
REMARK    1  A    between atoms: C_2  and  O_15
REMARK    2  A    between atoms: C_2  and  C_19
REMARK    3  A    between atoms: C_3  and  O_17
REMARK    4  A    between atoms: C_4  and  N_8
REMARK    5  A    between atoms: C_5  and  C_36
REMARK    6  A    between atoms: C_19  and  C_20
REMARK    7  A    between atoms: C_36  and  O_37
REMARK                            x       y       z     vdW  Elec       q    Type
REMARK                         _______ _______ _______ _____ _____    ______ ____
ROOT
ATOM      1  O   UNL     1     -44.870  30.908   6.404  0.00  0.00    -0.333 OA
ATOM      2  C   UNL     1     -46.442  29.159   6.165  0.00  0.00    +0.162 C 
ATOM      3  C   UNL     1     -46.820  29.957   7.412  0.00  0.00    +0.169 C 
ATOM      4  C   UNL     1     -45.595  30.177   5.407  0.00  0.00    +0.227 C 
ATOM      5  C   UNL     1     -45.632  30.897   7.629  0.00  0.00    +0.175 C 
ENDROOT
BRANCH   4   8
ATOM      6  O   UNL     1     -46.101  29.873   2.646  0.00  0.00    -0.252 OA
ATOM      7  O   UNL     1     -41.964  27.977   1.915  0.00  0.00    -0.270 OA
ATOM      8  N   UNL     1     -44.667  29.608   4.472  0.00  0.00    -0.217 N 
ATOM      9  N   UNL     1     -44.040  28.929   2.284  0.00  0.00    -0.236 N 
ATOM     10  C   UNL     1     -45.019  29.500   3.107  0.00  0.00    +0.315 C 
ATOM     11  C   UNL     1     -43.426  29.166   4.911  0.00  0.00    +0.076 C 
ATOM     12  C   UNL     1     -42.503  28.623   4.114  0.00  0.00    +0.074 C 
ATOM     13  C   UNL     1     -42.790  28.472   2.674  0.00  0.00    +0.254 C 
ATOM     14  H   UNL     1     -44.262  28.842   1.329  0.00  0.00    +0.159 HD
ENDBRANCH   4   8
BRANCH   2  15
ATOM     15  O   UNL     1     -47.587  28.799   5.403  0.00  0.00    -0.380 OA
ATOM     16  H   UNL     1     -47.723  27.840   5.458  0.00  0.00    +0.211 HD
ENDBRANCH   2  15
BRANCH   3  17
ATOM     17  O   UNL     1     -47.983  30.752   7.163  0.00  0.00    -0.379 OA
ATOM     18  H   UNL     1     -48.762  30.177   7.108  0.00  0.00    +0.211 HD
ENDBRANCH   3  17
BRANCH   2  19
ATOM     19  C   UNL     1     -45.689  27.871   6.521  0.00  0.00    +0.060 C 
BRANCH  19  20
ATOM     20  C   UNL     1     -46.534  26.651   6.324  0.00  0.00    -0.020 C 
ATOM     21  C   UNL     1     -46.466  25.879   5.155  0.00  0.00    -0.004 C 
ATOM     22  C   UNL     1     -47.290  24.736   5.031  0.00  0.00    -0.000 C 
ATOM     23  C   UNL     1     -47.403  26.301   7.355  0.00  0.00    -0.004 C 
ATOM     24  C   UNL     1     -48.172  24.383   6.078  0.00  0.00    -0.000 C 
ATOM     25  C   UNL     1     -47.233  23.945   3.856  0.00  0.00    -0.000 C 
ATOM     26  C   UNL     1     -48.216  25.175   7.235  0.00  0.00    -0.000 C 
ATOM     27  C   UNL     1     -45.599  26.214   4.106  0.00  0.00    -0.000 C 
ATOM     28  C   UNL     1     -46.352  24.299   2.808  0.00  0.00    -0.000 C 
ATOM     29  C   UNL     1     -48.058  22.803   3.732  0.00  0.00    -0.000 C 
ATOM     30  C   UNL     1     -45.542  25.435   2.949  0.00  0.00    -0.000 C 
ATOM     31  C   UNL     1     -48.982  23.247   5.938  0.00  0.00    -0.000 C 
ATOM     32  C   UNL     1     -48.925  22.468   4.780  0.00  0.00    -0.000 C 
ATOM     33  C   UNL     1     -46.308  23.507   1.651  0.00  0.00    -0.000 C 
ATOM     34  C   UNL     1     -47.990  22.032   2.563  0.00  0.00    -0.000 C 
ATOM     35  C   UNL     1     -47.120  22.381   1.531  0.00  0.00    +0.000 C 
ENDBRANCH  19  20
ENDBRANCH   2  19
BRANCH   5  36
ATOM     36  C   UNL     1     -44.714  30.482   8.769  0.00  0.00    +0.169 C 
BRANCH  36  37
ATOM     37  O   UNL     1     -43.386  30.393   8.277  0.00  0.00    -0.379 OA
ATOM     38  H   UNL     1     -43.149  29.461   8.155  0.00  0.00    +0.211 HD
ENDBRANCH  36  37
ENDBRANCH   5  36
TORSDOF 7
ENDMDL
MODEL 8
REMARK VINA RESULT:      -7.2      3.084      4.579
REMARK  Name = 53762423
REMARK  7 active torsions:
REMARK  status: ('A' for Active; 'I' for Inactive)
REMARK    1  A    between atoms: C_2  and  O_15
REMARK    2  A    between atoms: C_2  and  C_19
REMARK    3  A    between atoms: C_3  and  O_17
REMARK    4  A    between atoms: C_4  and  N_8
REMARK    5  A    between atoms: C_5  and  C_36
REMARK    6  A    between atoms: C_19  and  C_20
REMARK    7  A    between atoms: C_36  and  O_37
REMARK                            x       y       z     vdW  Elec       q    Type
REMARK                         _______ _______ _______ _____ _____    ______ ____
ROOT
ATOM      1  O   UNL     1     -36.052  25.761   4.285  0.00  0.00    -0.333 OA
ATOM      2  C   UNL     1     -36.520  23.557   3.572  0.00  0.00    +0.162 C 
ATOM      3  C   UNL     1     -35.358  23.489   4.563  0.00  0.00    +0.169 C 
ATOM      4  C   UNL     1     -37.145  24.900   3.939  0.00  0.00    +0.227 C 
ATOM      5  C   UNL     1     -34.965  24.952   4.779  0.00  0.00    +0.175 C 
ENDROOT
BRANCH   4   8
ATOM      6  O   UNL     1     -39.887  24.406   3.480  0.00  0.00    -0.252 OA
ATOM      7  O   UNL     1     -39.989  27.293  -0.111  0.00  0.00    -0.270 OA
ATOM      8  N   UNL     1     -37.913  25.510   2.892  0.00  0.00    -0.217 N 
ATOM      9  N   UNL     1     -39.936  25.844   1.693  0.00  0.00    -0.236 N 
ATOM     10  C   UNL     1     -39.284  25.193   2.748  0.00  0.00    +0.315 C 
ATOM     11  C   UNL     1     -37.308  26.410   2.024  0.00  0.00    +0.076 C 
ATOM     12  C   UNL     1     -37.943  27.022   1.023  0.00  0.00    +0.074 C 
ATOM     13  C   UNL     1     -39.376  26.747   0.801  0.00  0.00    +0.254 C 
ATOM     14  H   UNL     1     -40.891  25.639   1.571  0.00  0.00    +0.159 HD
ENDBRANCH   4   8
BRANCH   2  15
ATOM     15  O   UNL     1     -37.451  22.502   3.780  0.00  0.00    -0.380 OA
ATOM     16  H   UNL     1     -36.994  21.740   4.169  0.00  0.00    +0.211 HD
ENDBRANCH   2  15
BRANCH   3  17
ATOM     17  O   UNL     1     -35.799  22.953   5.815  0.00  0.00    -0.379 OA
ATOM     18  H   UNL     1     -35.822  21.984   5.761  0.00  0.00    +0.211 HD
ENDBRANCH   3  17
BRANCH   2  19
ATOM     19  C   UNL     1     -36.034  23.476   2.121  0.00  0.00    +0.060 C 
BRANCH  19  20
ATOM     20  C   UNL     1     -36.629  22.313   1.390  0.00  0.00    -0.020 C 
ATOM     21  C   UNL     1     -35.908  21.133   1.155  0.00  0.00    -0.004 C 
ATOM     22  C   UNL     1     -36.529  20.070   0.459  0.00  0.00    -0.000 C 
ATOM     23  C   UNL     1     -37.942  22.442   0.942  0.00  0.00    -0.004 C 
ATOM     24  C   UNL     1     -37.861  20.203   0.006  0.00  0.00    -0.000 C 
ATOM     25  C   UNL     1     -35.814  18.870   0.214  0.00  0.00    -0.000 C 
ATOM     26  C   UNL     1     -38.556  21.396   0.256  0.00  0.00    -0.000 C 
ATOM     27  C   UNL     1     -34.587  20.983   1.596  0.00  0.00    -0.000 C 
ATOM     28  C   UNL     1     -34.480  18.737   0.667  0.00  0.00    -0.000 C 
ATOM     29  C   UNL     1     -36.434  17.807  -0.483  0.00  0.00    -0.000 C 
ATOM     30  C   UNL     1     -33.882  19.801   1.355  0.00  0.00    -0.000 C 
ATOM     31  C   UNL     1     -38.460  19.139  -0.684  0.00  0.00    -0.000 C 
ATOM     32  C   UNL     1     -37.756  17.958  -0.924  0.00  0.00    -0.000 C 
ATOM     33  C   UNL     1     -33.786  17.544   0.416  0.00  0.00    -0.000 C 
ATOM     34  C   UNL     1     -35.714  16.628  -0.718  0.00  0.00    -0.000 C 
ATOM     35  C   UNL     1     -34.400  16.498  -0.270  0.00  0.00    +0.000 C 
ENDBRANCH  19  20
ENDBRANCH   2  19
BRANCH   5  36
ATOM     36  C   UNL     1     -33.689  25.362   4.060  0.00  0.00    +0.169 C 
BRANCH  36  37
ATOM     37  O   UNL     1     -33.029  26.355   4.830  0.00  0.00    -0.379 OA
ATOM     38  H   UNL     1     -32.934  26.045   5.743  0.00  0.00    +0.211 HD
ENDBRANCH  36  37
ENDBRANCH   5  36
TORSDOF 7
ENDMDL
MODEL 9
REMARK VINA RESULT:      -7.1      3.350      5.875
REMARK  Name = 53762423
REMARK  7 active torsions:
REMARK  status: ('A' for Active; 'I' for Inactive)
REMARK    1  A    between atoms: C_2  and  O_15
REMARK    2  A    between atoms: C_2  and  C_19
REMARK    3  A    between atoms: C_3  and  O_17
REMARK    4  A    between atoms: C_4  and  N_8
REMARK    5  A    between atoms: C_5  and  C_36
REMARK    6  A    between atoms: C_19  and  C_20
REMARK    7  A    between atoms: C_36  and  O_37
REMARK                            x       y       z     vdW  Elec       q    Type
REMARK                         _______ _______ _______ _____ _____    ______ ____
ROOT
ATOM      1  O   UNL     1     -38.850  26.612   2.566  0.00  0.00    -0.333 OA
ATOM      2  C   UNL     1     -38.652  24.737   1.140  0.00  0.00    +0.162 C 
ATOM      3  C   UNL     1     -40.030  25.356   0.907  0.00  0.00    +0.169 C 
ATOM      4  C   UNL     1     -37.898  25.915   1.752  0.00  0.00    +0.227 C 
ATOM      5  C   UNL     1     -40.169  26.392   2.025  0.00  0.00    +0.175 C 
ENDROOT
BRANCH   4   8
ATOM      6  O   UNL     1     -35.296  25.489   0.742  0.00  0.00    -0.252 OA
ATOM      7  O   UNL     1     -33.636  24.515   4.930  0.00  0.00    -0.270 OA
ATOM      8  N   UNL     1     -36.767  25.550   2.556  0.00  0.00    -0.217 N 
ATOM      9  N   UNL     1     -34.472  25.004   2.828  0.00  0.00    -0.236 N 
ATOM     10  C   UNL     1     -35.504  25.360   1.950  0.00  0.00    +0.315 C 
ATOM     11  C   UNL     1     -36.917  25.386   3.928  0.00  0.00    +0.076 C 
ATOM     12  C   UNL     1     -35.923  25.047   4.751  0.00  0.00    +0.074 C 
ATOM     13  C   UNL     1     -34.572  24.828   4.200  0.00  0.00    +0.254 C 
ATOM     14  H   UNL     1     -33.582  24.865   2.430  0.00  0.00    +0.159 HD
ENDBRANCH   4   8
BRANCH   2  15
ATOM     15  O   UNL     1     -38.042  24.337  -0.080  0.00  0.00    -0.380 OA
ATOM     16  H   UNL     1     -37.517  23.535   0.069  0.00  0.00    +0.211 HD
ENDBRANCH   2  15
BRANCH   3  17
ATOM     17  O   UNL     1     -40.064  26.042  -0.348  0.00  0.00    -0.379 OA
ATOM     18  H   UNL     1     -40.169  25.398  -1.066  0.00  0.00    +0.211 HD
ENDBRANCH   3  17
BRANCH   2  19
ATOM     19  C   UNL     1     -38.727  23.509   2.054  0.00  0.00    +0.060 C 
BRANCH  19  20
ATOM     20  C   UNL     1     -38.530  22.231   1.300  0.00  0.00    -0.020 C 
ATOM     21  C   UNL     1     -37.326  21.514   1.351  0.00  0.00    -0.004 C 
ATOM     22  C   UNL     1     -37.204  20.312   0.616  0.00  0.00    -0.000 C 
ATOM     23  C   UNL     1     -39.598  21.769   0.533  0.00  0.00    -0.004 C 
ATOM     24  C   UNL     1     -38.288  19.845  -0.162  0.00  0.00    -0.000 C 
ATOM     25  C   UNL     1     -35.994  19.575   0.658  0.00  0.00    -0.000 C 
ATOM     26  C   UNL     1     -39.480  20.585  -0.192  0.00  0.00    -0.000 C 
ATOM     27  C   UNL     1     -36.240  21.961   2.116  0.00  0.00    -0.000 C 
ATOM     28  C   UNL     1     -34.908  20.042   1.435  0.00  0.00    -0.000 C 
ATOM     29  C   UNL     1     -35.872  18.373  -0.078  0.00  0.00    -0.000 C 
ATOM     30  C   UNL     1     -35.048  21.235   2.158  0.00  0.00    -0.000 C 
ATOM     31  C   UNL     1     -38.150  18.652  -0.885  0.00  0.00    -0.000 C 
ATOM     32  C   UNL     1     -36.957  17.926  -0.843  0.00  0.00    -0.000 C 
ATOM     33  C   UNL     1     -33.717  19.302   1.466  0.00  0.00    -0.000 C 
ATOM     34  C   UNL     1     -34.668  17.657  -0.027  0.00  0.00    -0.000 C 
ATOM     35  C   UNL     1     -33.599  18.118   0.740  0.00  0.00    +0.000 C 
ENDBRANCH  19  20
ENDBRANCH   2  19
BRANCH   5  36
ATOM     36  C   UNL     1     -41.091  25.962   3.156  0.00  0.00    +0.169 C 
BRANCH  36  37
ATOM     37  O   UNL     1     -41.086  26.966   4.158  0.00  0.00    -0.379 OA
ATOM     38  H   UNL     1     -41.081  27.840   3.739  0.00  0.00    +0.211 HD
ENDBRANCH  36  37
ENDBRANCH   5  36
TORSDOF 7
ENDMDL
