MODEL 1
REMARK VINA RESULT:      -6.2      0.000      0.000
REMARK  Name = 193862
REMARK  10 active torsions:
REMARK  status: ('A' for Active; 'I' for Inactive)
REMARK    1  A    between atoms: P_1  and  O_3
REMARK    2  A    between atoms: P_1  and  O_5
REMARK    3  A    between atoms: P_1  and  O_16
REMARK    4  A    between atoms: O_5  and  C_8
REMARK    5  A    between atoms: O_16  and  P_17
REMARK    6  A    between atoms: P_17  and  O_19
REMARK    7  A    between atoms: P_17  and  O_21
REMARK    8  A    between atoms: O_21  and  P_22
REMARK    9  A    between atoms: P_22  and  O_24
REMARK   10  A    between atoms: P_22  and  O_26
REMARK                            x       y       z     vdW  Elec       q    Type
REMARK                         _______ _______ _______ _____ _____    ______ ____
ROOT
ATOM      1  P   UNL     1     -36.173  24.699   1.901  0.00  0.00    +0.539 P 
ATOM      2  O   UNL     1     -37.568  25.197   2.146  0.00  0.00    -0.215 OA
ENDROOT
BRANCH   1   3
ATOM      3  O   UNL     1     -35.101  25.828   1.459  0.00  0.00    -0.293 OA
ATOM      4  H   UNL     1     -34.205  25.461   1.514  0.00  0.00    +0.223 HD
ENDBRANCH   1   3
BRANCH   1   5
ATOM      5  O   UNL     1     -36.016  23.539   0.786  0.00  0.00    -0.402 OA
BRANCH   5   8
ATOM      6  C   UNL     1     -33.414  20.956   0.547  0.00  0.00    +0.003 C 
ATOM      7  C   UNL     1     -34.002  19.928   1.322  0.00  0.00    +0.000 C 
ATOM      8  C   UNL     1     -35.358  22.360   0.960  0.00  0.00    +0.149 C 
ATOM      9  C   UNL     1     -34.105  22.167   0.377  0.00  0.00    +0.037 C 
ATOM     10  C   UNL     1     -35.263  20.139   1.901  0.00  0.00    +0.003 C 
ATOM     11  C   UNL     1     -35.935  21.348   1.722  0.00  0.00    +0.037 C 
ATOM     12  C   UNL     1     -32.153  20.745  -0.033  0.00  0.00    +0.000 C 
ATOM     13  C   UNL     1     -33.310  18.717   1.492  0.00  0.00    +0.000 C 
ATOM     14  C   UNL     1     -31.480  19.536   0.148  0.00  0.00    +0.000 C 
ATOM     15  C   UNL     1     -32.057  18.524   0.909  0.00  0.00    +0.000 C 
ENDBRANCH   5   8
ENDBRANCH   1   5
BRANCH   1  16
ATOM     16  O   UNL     1     -35.472  24.047   3.204  0.00  0.00    -0.176 OA
BRANCH  16  17
ATOM     17  P   UNL     1     -35.940  24.009   4.751  0.00  0.00    +0.493 P 
ATOM     18  O   UNL     1     -36.164  22.635   5.308  0.00  0.00    -0.226 OA
BRANCH  17  19
ATOM     19  O   UNL     1     -37.236  24.975   4.770  0.00  0.00    -0.302 OA
ATOM     20  H   UNL     1     -36.967  25.881   4.550  0.00  0.00    +0.222 HD
ENDBRANCH  17  19
BRANCH  17  21
ATOM     21  O   UNL     1     -34.809  24.884   5.502  0.00  0.00    -0.186 OA
BRANCH  21  22
ATOM     22  P   UNL     1     -34.072  26.254   5.069  0.00  0.00    +0.481 P 
ATOM     23  O   UNL     1     -33.376  26.971   6.189  0.00  0.00    -0.227 OA
BRANCH  22  24
ATOM     24  O   UNL     1     -35.243  27.093   4.335  0.00  0.00    -0.302 OA
ATOM     25  H   UNL     1     -35.404  26.720   3.454  0.00  0.00    +0.222 HD
ENDBRANCH  22  24
BRANCH  22  26
ATOM     26  O   UNL     1     -33.118  25.790   3.850  0.00  0.00    -0.302 OA
ATOM     27  H   UNL     1     -33.604  25.176   3.275  0.00  0.00    +0.222 HD
ENDBRANCH  22  26
ENDBRANCH  21  22
ENDBRANCH  17  21
ENDBRANCH  16  17
ENDBRANCH   1  16
TORSDOF 10
ENDMDL
MODEL 2
REMARK VINA RESULT:      -6.1      3.997      5.886
REMARK  Name = 193862
REMARK  10 active torsions:
REMARK  status: ('A' for Active; 'I' for Inactive)
REMARK    1  A    between atoms: P_1  and  O_3
REMARK    2  A    between atoms: P_1  and  O_5
REMARK    3  A    between atoms: P_1  and  O_16
REMARK    4  A    between atoms: O_5  and  C_8
REMARK    5  A    between atoms: O_16  and  P_17
REMARK    6  A    between atoms: P_17  and  O_19
REMARK    7  A    between atoms: P_17  and  O_21
REMARK    8  A    between atoms: O_21  and  P_22
REMARK    9  A    between atoms: P_22  and  O_24
REMARK   10  A    between atoms: P_22  and  O_26
REMARK                            x       y       z     vdW  Elec       q    Type
REMARK                         _______ _______ _______ _____ _____    ______ ____
ROOT
ATOM      1  P   UNL     1     -32.916  28.377   3.727  0.00  0.00    +0.539 P 
ATOM      2  O   UNL     1     -32.877  29.376   2.607  0.00  0.00    -0.215 OA
ENDROOT
BRANCH   1   3
ATOM      3  O   UNL     1     -31.876  27.144   3.594  0.00  0.00    -0.293 OA
ATOM      4  H   UNL     1     -31.993  26.540   4.343  0.00  0.00    +0.223 HD
ENDBRANCH   1   3
BRANCH   1   5
ATOM      5  O   UNL     1     -34.343  27.670   4.003  0.00  0.00    -0.402 OA
BRANCH   5   8
ATOM      6  C   UNL     1     -34.920  24.143   4.855  0.00  0.00    +0.003 C 
ATOM      7  C   UNL     1     -35.150  23.602   3.567  0.00  0.00    +0.000 C 
ATOM      8  C   UNL     1     -34.606  26.341   3.861  0.00  0.00    +0.149 C 
ATOM      9  C   UNL     1     -34.650  25.515   4.984  0.00  0.00    +0.037 C 
ATOM     10  C   UNL     1     -35.103  24.448   2.448  0.00  0.00    +0.003 C 
ATOM     11  C   UNL     1     -34.833  25.808   2.595  0.00  0.00    +0.037 C 
ATOM     12  C   UNL     1     -34.967  23.297   5.974  0.00  0.00    +0.000 C 
ATOM     13  C   UNL     1     -35.421  22.230   3.438  0.00  0.00    +0.000 C 
ATOM     14  C   UNL     1     -35.238  21.936   5.827  0.00  0.00    +0.000 C 
ATOM     15  C   UNL     1     -35.465  21.403   4.561  0.00  0.00    +0.000 C 
ENDBRANCH   5   8
ENDBRANCH   1   5
BRANCH   1  16
ATOM     16  O   UNL     1     -32.534  28.997   5.171  0.00  0.00    -0.176 OA
BRANCH  16  17
ATOM     17  P   UNL     1     -31.650  28.394   6.383  0.00  0.00    +0.493 P 
ATOM     18  O   UNL     1     -32.020  27.003   6.802  0.00  0.00    -0.226 OA
BRANCH  17  19
ATOM     19  O   UNL     1     -31.790  29.516   7.538  0.00  0.00    -0.302 OA
ATOM     20  H   UNL     1     -31.437  30.360   7.213  0.00  0.00    +0.222 HD
ENDBRANCH  17  19
BRANCH  17  21
ATOM     21  O   UNL     1     -30.132  28.579   5.863  0.00  0.00    -0.186 OA
BRANCH  21  22
ATOM     22  P   UNL     1     -28.721  28.312   6.603  0.00  0.00    +0.481 P 
ATOM     23  O   UNL     1     -27.511  28.577   5.756  0.00  0.00    -0.227 OA
BRANCH  22  24
ATOM     24  O   UNL     1     -28.865  26.797   7.147  0.00  0.00    -0.302 OA
ATOM     25  H   UNL     1     -29.480  26.307   6.578  0.00  0.00    +0.222 HD
ENDBRANCH  22  24
BRANCH  22  26
ATOM     26  O   UNL     1     -28.833  29.208   7.944  0.00  0.00    -0.302 OA
ATOM     27  H   UNL     1     -28.663  30.138   7.726  0.00  0.00    +0.222 HD
ENDBRANCH  22  26
ENDBRANCH  21  22
ENDBRANCH  17  21
ENDBRANCH  16  17
ENDBRANCH   1  16
TORSDOF 10
ENDMDL
MODEL 3
REMARK VINA RESULT:      -6.1      1.871      3.573
REMARK  Name = 193862
REMARK  10 active torsions:
REMARK  status: ('A' for Active; 'I' for Inactive)
REMARK    1  A    between atoms: P_1  and  O_3
REMARK    2  A    between atoms: P_1  and  O_5
REMARK    3  A    between atoms: P_1  and  O_16
REMARK    4  A    between atoms: O_5  and  C_8
REMARK    5  A    between atoms: O_16  and  P_17
REMARK    6  A    between atoms: P_17  and  O_19
REMARK    7  A    between atoms: P_17  and  O_21
REMARK    8  A    between atoms: O_21  and  P_22
REMARK    9  A    between atoms: P_22  and  O_24
REMARK   10  A    between atoms: P_22  and  O_26
REMARK                            x       y       z     vdW  Elec       q    Type
REMARK                         _______ _______ _______ _____ _____    ______ ____
ROOT
ATOM      1  P   UNL     1     -35.835  20.794   2.492  0.00  0.00    +0.539 P 
ATOM      2  O   UNL     1     -35.003  20.795   3.741  0.00  0.00    -0.215 OA
ENDROOT
BRANCH   1   3
ATOM      3  O   UNL     1     -36.947  19.621   2.400  0.00  0.00    -0.293 OA
ATOM      4  H   UNL     1     -37.802  20.005   2.154  0.00  0.00    +0.223 HD
ENDBRANCH   1   3
BRANCH   1   5
ATOM      5  O   UNL     1     -35.026  20.689   1.096  0.00  0.00    -0.402 OA
BRANCH   5   8
ATOM      6  C   UNL     1     -31.556  20.122   0.029  0.00  0.00    +0.003 C 
ATOM      7  C   UNL     1     -31.325  18.839   0.582  0.00  0.00    +0.000 C 
ATOM      8  C   UNL     1     -33.817  20.085   0.928  0.00  0.00    +0.149 C 
ATOM      9  C   UNL     1     -32.808  20.731   0.212  0.00  0.00    +0.037 C 
ATOM     10  C   UNL     1     -32.351  18.204   1.299  0.00  0.00    +0.003 C 
ATOM     11  C   UNL     1     -33.588  18.825   1.471  0.00  0.00    +0.037 C 
ATOM     12  C   UNL     1     -30.531  20.757  -0.688  0.00  0.00    +0.000 C 
ATOM     13  C   UNL     1     -30.072  18.231   0.399  0.00  0.00    +0.000 C 
ATOM     14  C   UNL     1     -29.292  20.137  -0.859  0.00  0.00    +0.000 C 
ATOM     15  C   UNL     1     -29.063  18.876  -0.316  0.00  0.00    +0.000 C 
ENDBRANCH   5   8
ENDBRANCH   1   5
BRANCH   1  16
ATOM     16  O   UNL     1     -36.724  22.130   2.296  0.00  0.00    -0.176 OA
BRANCH  16  17
ATOM     17  P   UNL     1     -36.295  23.642   1.920  0.00  0.00    +0.493 P 
ATOM     18  O   UNL     1     -37.418  24.518   1.451  0.00  0.00    -0.226 OA
BRANCH  17  19
ATOM     19  O   UNL     1     -35.100  23.433   0.851  0.00  0.00    -0.302 OA
ATOM     20  H   UNL     1     -35.429  22.924   0.093  0.00  0.00    +0.222 HD
ENDBRANCH  17  19
BRANCH  17  21
ATOM     21  O   UNL     1     -35.527  24.152   3.245  0.00  0.00    -0.186 OA
BRANCH  21  22
ATOM     22  P   UNL     1     -36.076  24.466   4.731  0.00  0.00    +0.481 P 
ATOM     23  O   UNL     1     -35.245  25.441   5.512  0.00  0.00    -0.227 OA
BRANCH  22  24
ATOM     24  O   UNL     1     -36.224  22.999   5.393  0.00  0.00    -0.302 OA
ATOM     25  H   UNL     1     -36.809  23.051   6.166  0.00  0.00    +0.222 HD
ENDBRANCH  22  24
BRANCH  22  26
ATOM     26  O   UNL     1     -37.606  24.919   4.470  0.00  0.00    -0.302 OA
ATOM     27  H   UNL     1     -37.754  25.017   3.516  0.00  0.00    +0.222 HD
ENDBRANCH  22  26
ENDBRANCH  21  22
ENDBRANCH  17  21
ENDBRANCH  16  17
ENDBRANCH   1  16
TORSDOF 10
ENDMDL
MODEL 4
REMARK VINA RESULT:      -6.0      1.704      3.646
REMARK  Name = 193862
REMARK  10 active torsions:
REMARK  status: ('A' for Active; 'I' for Inactive)
REMARK    1  A    between atoms: P_1  and  O_3
REMARK    2  A    between atoms: P_1  and  O_5
REMARK    3  A    between atoms: P_1  and  O_16
REMARK    4  A    between atoms: O_5  and  C_8
REMARK    5  A    between atoms: O_16  and  P_17
REMARK    6  A    between atoms: P_17  and  O_19
REMARK    7  A    between atoms: P_17  and  O_21
REMARK    8  A    between atoms: O_21  and  P_22
REMARK    9  A    between atoms: P_22  and  O_24
REMARK   10  A    between atoms: P_22  and  O_26
REMARK                            x       y       z     vdW  Elec       q    Type
REMARK                         _______ _______ _______ _____ _____    ______ ____
ROOT
ATOM      1  P   UNL     1     -36.024  21.631   2.737  0.00  0.00    +0.539 P 
ATOM      2  O   UNL     1     -35.381  20.740   3.760  0.00  0.00    -0.215 OA
ENDROOT
BRANCH   1   3
ATOM      3  O   UNL     1     -37.639  21.555   2.668  0.00  0.00    -0.293 OA
ATOM      4  H   UNL     1     -37.917  21.432   1.748  0.00  0.00    +0.223 HD
ENDBRANCH   1   3
BRANCH   1   5
ATOM      5  O   UNL     1     -35.547  21.419   1.207  0.00  0.00    -0.402 OA
BRANCH   5   8
ATOM      6  C   UNL     1     -32.507  19.398   0.792  0.00  0.00    +0.003 C 
ATOM      7  C   UNL     1     -31.724  20.273  -0.000  0.00  0.00    +0.000 C 
ATOM      8  C   UNL     1     -34.298  21.044   0.813  0.00  0.00    +0.149 C 
ATOM      9  C   UNL     1     -33.793  19.800   1.189  0.00  0.00    +0.037 C 
ATOM     10  C   UNL     1     -32.248  21.521  -0.369  0.00  0.00    +0.003 C 
ATOM     11  C   UNL     1     -33.528  21.903   0.034  0.00  0.00    +0.037 C 
ATOM     12  C   UNL     1     -31.983  18.150   1.161  0.00  0.00    +0.000 C 
ATOM     13  C   UNL     1     -30.439  19.871  -0.398  0.00  0.00    +0.000 C 
ATOM     14  C   UNL     1     -30.703  17.767   0.756  0.00  0.00    +0.000 C 
ATOM     15  C   UNL     1     -29.932  18.626  -0.023  0.00  0.00    +0.000 C 
ENDBRANCH   5   8
ENDBRANCH   1   5
BRANCH   1  16
ATOM     16  O   UNL     1     -35.761  23.207   2.984  0.00  0.00    -0.176 OA
BRANCH  16  17
ATOM     17  P   UNL     1     -36.179  24.170   4.213  0.00  0.00    +0.493 P 
ATOM     18  O   UNL     1     -35.433  25.469   4.277  0.00  0.00    -0.226 OA
BRANCH  17  19
ATOM     19  O   UNL     1     -36.005  23.217   5.507  0.00  0.00    -0.302 OA
ATOM     20  H   UNL     1     -35.218  22.660   5.395  0.00  0.00    +0.222 HD
ENDBRANCH  17  19
BRANCH  17  21
ATOM     21  O   UNL     1     -37.781  24.300   4.056  0.00  0.00    -0.186 OA
BRANCH  21  22
ATOM     22  P   UNL     1     -38.676  25.081   2.962  0.00  0.00    +0.481 P 
ATOM     23  O   UNL     1     -40.154  25.044   3.222  0.00  0.00    -0.227 OA
BRANCH  22  24
ATOM     24  O   UNL     1     -38.206  24.429   1.559  0.00  0.00    -0.302 OA
ATOM     25  H   UNL     1     -37.602  23.690   1.734  0.00  0.00    +0.222 HD
ENDBRANCH  22  24
BRANCH  22  26
ATOM     26  O   UNL     1     -38.018  26.557   2.933  0.00  0.00    -0.302 OA
ATOM     27  H   UNL     1     -37.181  26.527   2.443  0.00  0.00    +0.222 HD
ENDBRANCH  22  26
ENDBRANCH  21  22
ENDBRANCH  17  21
ENDBRANCH  16  17
ENDBRANCH   1  16
TORSDOF 10
ENDMDL
MODEL 5
REMARK VINA RESULT:      -6.0      1.672      3.340
REMARK  Name = 193862
REMARK  10 active torsions:
REMARK  status: ('A' for Active; 'I' for Inactive)
REMARK    1  A    between atoms: P_1  and  O_3
REMARK    2  A    between atoms: P_1  and  O_5
REMARK    3  A    between atoms: P_1  and  O_16
REMARK    4  A    between atoms: O_5  and  C_8
REMARK    5  A    between atoms: O_16  and  P_17
REMARK    6  A    between atoms: P_17  and  O_19
REMARK    7  A    between atoms: P_17  and  O_21
REMARK    8  A    between atoms: O_21  and  P_22
REMARK    9  A    between atoms: P_22  and  O_24
REMARK   10  A    between atoms: P_22  and  O_26
REMARK                            x       y       z     vdW  Elec       q    Type
REMARK                         _______ _______ _______ _____ _____    ______ ____
ROOT
ATOM      1  P   UNL     1     -35.746  21.492   2.939  0.00  0.00    +0.539 P 
ATOM      2  O   UNL     1     -35.261  20.674   4.101  0.00  0.00    -0.215 OA
ENDROOT
BRANCH   1   3
ATOM      3  O   UNL     1     -37.347  21.717   2.871  0.00  0.00    -0.293 OA
ATOM      4  H   UNL     1     -37.717  21.684   3.766  0.00  0.00    +0.223 HD
ENDBRANCH   1   3
BRANCH   1   5
ATOM      5  O   UNL     1     -35.356  20.945   1.469  0.00  0.00    -0.402 OA
BRANCH   5   8
ATOM      6  C   UNL     1     -32.020  20.691  -0.051  0.00  0.00    +0.003 C 
ATOM      7  C   UNL     1     -31.642  19.395   0.375  0.00  0.00    +0.000 C 
ATOM      8  C   UNL     1     -34.143  20.439   1.111  0.00  0.00    +0.149 C 
ATOM      9  C   UNL     1     -33.274  21.199   0.327  0.00  0.00    +0.037 C 
ATOM     10  C   UNL     1     -32.529  18.645   1.163  0.00  0.00    +0.003 C 
ATOM     11  C   UNL     1     -33.770  19.165   1.529  0.00  0.00    +0.037 C 
ATOM     12  C   UNL     1     -31.134  21.442  -0.839  0.00  0.00    +0.000 C 
ATOM     13  C   UNL     1     -30.388  18.889  -0.003  0.00  0.00    +0.000 C 
ATOM     14  C   UNL     1     -29.891  20.922  -1.205  0.00  0.00    +0.000 C 
ATOM     15  C   UNL     1     -29.519  19.648  -0.787  0.00  0.00    +0.000 C 
ENDBRANCH   5   8
ENDBRANCH   1   5
BRANCH   1  16
ATOM     16  O   UNL     1     -35.182  23.007   2.924  0.00  0.00    -0.176 OA
BRANCH  16  17
ATOM     17  P   UNL     1     -35.165  24.143   4.075  0.00  0.00    +0.493 P 
ATOM     18  O   UNL     1     -33.799  24.534   4.554  0.00  0.00    -0.226 OA
BRANCH  17  19
ATOM     19  O   UNL     1     -36.140  23.533   5.211  0.00  0.00    -0.302 OA
ATOM     20  H   UNL     1     -36.547  22.715   4.883  0.00  0.00    +0.222 HD
ENDBRANCH  17  19
BRANCH  17  21
ATOM     21  O   UNL     1     -36.041  25.337   3.431  0.00  0.00    -0.186 OA
BRANCH  21  22
ATOM     22  P   UNL     1     -37.495  25.321   2.729  0.00  0.00    +0.481 P 
ATOM     23  O   UNL     1     -38.066  26.679   2.444  0.00  0.00    -0.227 OA
BRANCH  22  24
ATOM     24  O   UNL     1     -38.378  24.395   3.717  0.00  0.00    -0.302 OA
ATOM     25  H   UNL     1     -37.787  23.869   4.279  0.00  0.00    +0.222 HD
ENDBRANCH  22  24
BRANCH  22  26
ATOM     26  O   UNL     1     -37.268  24.383   1.432  0.00  0.00    -0.302 OA
ATOM     27  H   UNL     1     -37.563  24.856   0.637  0.00  0.00    +0.222 HD
ENDBRANCH  22  26
ENDBRANCH  21  22
ENDBRANCH  17  21
ENDBRANCH  16  17
ENDBRANCH   1  16
TORSDOF 10
ENDMDL
MODEL 6
REMARK VINA RESULT:      -6.0      1.156      1.512
REMARK  Name = 193862
REMARK  10 active torsions:
REMARK  status: ('A' for Active; 'I' for Inactive)
REMARK    1  A    between atoms: P_1  and  O_3
REMARK    2  A    between atoms: P_1  and  O_5
REMARK    3  A    between atoms: P_1  and  O_16
REMARK    4  A    between atoms: O_5  and  C_8
REMARK    5  A    between atoms: O_16  and  P_17
REMARK    6  A    between atoms: P_17  and  O_19
REMARK    7  A    between atoms: P_17  and  O_21
REMARK    8  A    between atoms: O_21  and  P_22
REMARK    9  A    between atoms: P_22  and  O_24
REMARK   10  A    between atoms: P_22  and  O_26
REMARK                            x       y       z     vdW  Elec       q    Type
REMARK                         _______ _______ _______ _____ _____    ______ ____
ROOT
ATOM      1  P   UNL     1     -35.598  23.450   1.687  0.00  0.00    +0.539 P 
ATOM      2  O   UNL     1     -36.722  24.399   1.388  0.00  0.00    -0.215 OA
ENDROOT
BRANCH   1   3
ATOM      3  O   UNL     1     -34.115  24.098   1.652  0.00  0.00    -0.293 OA
ATOM      4  H   UNL     1     -33.482  23.476   2.041  0.00  0.00    +0.223 HD
ENDBRANCH   1   3
BRANCH   1   5
ATOM      5  O   UNL     1     -35.489  22.150   0.732  0.00  0.00    -0.402 OA
BRANCH   5   8
ATOM      6  C   UNL     1     -32.277  20.472   0.124  0.00  0.00    +0.003 C 
ATOM      7  C   UNL     1     -32.459  19.288   0.879  0.00  0.00    +0.000 C 
ATOM      8  C   UNL     1     -34.499  21.215   0.779  0.00  0.00    +0.149 C 
ATOM      9  C   UNL     1     -33.307  21.426   0.085  0.00  0.00    +0.037 C 
ATOM     10  C   UNL     1     -33.665  19.093   1.571  0.00  0.00    +0.003 C 
ATOM     11  C   UNL     1     -34.677  20.052   1.521  0.00  0.00    +0.037 C 
ATOM     12  C   UNL     1     -31.072  20.667  -0.568  0.00  0.00    +0.000 C 
ATOM     13  C   UNL     1     -31.429  18.335   0.918  0.00  0.00    +0.000 C 
ATOM     14  C   UNL     1     -30.059  19.709  -0.518  0.00  0.00    +0.000 C 
ATOM     15  C   UNL     1     -30.237  18.545   0.224  0.00  0.00    +0.000 C 
ENDBRANCH   5   8
ENDBRANCH   1   5
BRANCH   1  16
ATOM     16  O   UNL     1     -35.660  22.806   3.169  0.00  0.00    -0.176 OA
BRANCH  16  17
ATOM     17  P   UNL     1     -35.978  23.480   4.604  0.00  0.00    +0.493 P 
ATOM     18  O   UNL     1     -36.004  22.522   5.757  0.00  0.00    -0.226 OA
BRANCH  17  19
ATOM     19  O   UNL     1     -37.361  24.274   4.342  0.00  0.00    -0.302 OA
ATOM     20  H   UNL     1     -38.100  23.767   4.714  0.00  0.00    +0.222 HD
ENDBRANCH  17  19
BRANCH  17  21
ATOM     21  O   UNL     1     -34.882  24.661   4.710  0.00  0.00    -0.186 OA
BRANCH  21  22
ATOM     22  P   UNL     1     -35.050  26.267   4.665  0.00  0.00    +0.481 P 
ATOM     23  O   UNL     1     -33.852  27.035   5.140  0.00  0.00    -0.227 OA
BRANCH  22  24
ATOM     24  O   UNL     1     -36.410  26.524   5.499  0.00  0.00    -0.302 OA
ATOM     25  H   UNL     1     -37.142  26.684   4.882  0.00  0.00    +0.222 HD
ENDBRANCH  22  24
BRANCH  22  26
ATOM     26  O   UNL     1     -35.486  26.548   3.134  0.00  0.00    -0.302 OA
ATOM     27  H   UNL     1     -34.692  26.631   2.582  0.00  0.00    +0.222 HD
ENDBRANCH  22  26
ENDBRANCH  21  22
ENDBRANCH  17  21
ENDBRANCH  16  17
ENDBRANCH   1  16
TORSDOF 10
ENDMDL
MODEL 7
REMARK VINA RESULT:      -5.9      1.677      2.901
REMARK  Name = 193862
REMARK  10 active torsions:
REMARK  status: ('A' for Active; 'I' for Inactive)
REMARK    1  A    between atoms: P_1  and  O_3
REMARK    2  A    between atoms: P_1  and  O_5
REMARK    3  A    between atoms: P_1  and  O_16
REMARK    4  A    between atoms: O_5  and  C_8
REMARK    5  A    between atoms: O_16  and  P_17
REMARK    6  A    between atoms: P_17  and  O_19
REMARK    7  A    between atoms: P_17  and  O_21
REMARK    8  A    between atoms: O_21  and  P_22
REMARK    9  A    between atoms: P_22  and  O_24
REMARK   10  A    between atoms: P_22  and  O_26
REMARK                            x       y       z     vdW  Elec       q    Type
REMARK                         _______ _______ _______ _____ _____    ______ ____
ROOT
ATOM      1  P   UNL     1     -35.983  21.262   2.616  0.00  0.00    +0.539 P 
ATOM      2  O   UNL     1     -35.255  20.511   3.693  0.00  0.00    -0.215 OA
ENDROOT
BRANCH   1   3
ATOM      3  O   UNL     1     -37.579  21.003   2.547  0.00  0.00    -0.293 OA
ATOM      4  H   UNL     1     -37.800  20.569   1.709  0.00  0.00    +0.223 HD
ENDBRANCH   1   3
BRANCH   1   5
ATOM      5  O   UNL     1     -35.472  21.014   1.103  0.00  0.00    -0.402 OA
BRANCH   5   8
ATOM      6  C   UNL     1     -32.284  19.219   0.762  0.00  0.00    +0.003 C 
ATOM      7  C   UNL     1     -31.549  20.148  -0.013  0.00  0.00    +0.000 C 
ATOM      8  C   UNL     1     -34.190  20.731   0.739  0.00  0.00    +0.149 C 
ATOM      9  C   UNL     1     -33.604  19.526   1.129  0.00  0.00    +0.037 C 
ATOM     10  C   UNL     1     -32.154  21.355  -0.397  0.00  0.00    +0.003 C 
ATOM     11  C   UNL     1     -33.466  21.643  -0.024  0.00  0.00    +0.037 C 
ATOM     12  C   UNL     1     -31.679  18.012   1.146  0.00  0.00    +0.000 C 
ATOM     13  C   UNL     1     -30.228  19.840  -0.381  0.00  0.00    +0.000 C 
ATOM     14  C   UNL     1     -30.366  17.723   0.771  0.00  0.00    +0.000 C 
ATOM     15  C   UNL     1     -29.642  18.635   0.009  0.00  0.00    +0.000 C 
ENDBRANCH   5   8
ENDBRANCH   1   5
BRANCH   1  16
ATOM     16  O   UNL     1     -35.900  22.869   2.768  0.00  0.00    -0.176 OA
BRANCH  16  17
ATOM     17  P   UNL     1     -36.472  23.856   3.914  0.00  0.00    +0.493 P 
ATOM     18  O   UNL     1     -36.200  23.414   5.321  0.00  0.00    -0.226 OA
BRANCH  17  19
ATOM     19  O   UNL     1     -38.036  23.999   3.532  0.00  0.00    -0.302 OA
ATOM     20  H   UNL     1     -38.160  24.775   2.962  0.00  0.00    +0.222 HD
ENDBRANCH  17  19
BRANCH  17  21
ATOM     21  O   UNL     1     -35.855  25.293   3.509  0.00  0.00    -0.186 OA
BRANCH  21  22
ATOM     22  P   UNL     1     -34.801  26.246   4.277  0.00  0.00    +0.481 P 
ATOM     23  O   UNL     1     -33.362  25.866   4.087  0.00  0.00    -0.227 OA
BRANCH  22  24
ATOM     24  O   UNL     1     -35.325  26.226   5.806  0.00  0.00    -0.302 OA
ATOM     25  H   UNL     1     -34.564  26.227   6.408  0.00  0.00    +0.222 HD
ENDBRANCH  22  24
BRANCH  22  26
ATOM     26  O   UNL     1     -35.198  27.725   3.760  0.00  0.00    -0.302 OA
ATOM     27  H   UNL     1     -34.873  27.848   2.853  0.00  0.00    +0.222 HD
ENDBRANCH  22  26
ENDBRANCH  21  22
ENDBRANCH  17  21
ENDBRANCH  16  17
ENDBRANCH   1  16
TORSDOF 10
ENDMDL
MODEL 8
REMARK VINA RESULT:      -5.9      2.126      3.826
REMARK  Name = 193862
REMARK  10 active torsions:
REMARK  status: ('A' for Active; 'I' for Inactive)
REMARK    1  A    between atoms: P_1  and  O_3
REMARK    2  A    between atoms: P_1  and  O_5
REMARK    3  A    between atoms: P_1  and  O_16
REMARK    4  A    between atoms: O_5  and  C_8
REMARK    5  A    between atoms: O_16  and  P_17
REMARK    6  A    between atoms: P_17  and  O_19
REMARK    7  A    between atoms: P_17  and  O_21
REMARK    8  A    between atoms: O_21  and  P_22
REMARK    9  A    between atoms: P_22  and  O_24
REMARK   10  A    between atoms: P_22  and  O_26
REMARK                            x       y       z     vdW  Elec       q    Type
REMARK                         _______ _______ _______ _____ _____    ______ ____
ROOT
ATOM      1  P   UNL     1     -36.338  22.711   3.289  0.00  0.00    +0.539 P 
ATOM      2  O   UNL     1     -35.459  23.907   3.063  0.00  0.00    -0.215 OA
ENDROOT
BRANCH   1   3
ATOM      3  O   UNL     1     -36.171  21.990   4.729  0.00  0.00    -0.293 OA
ATOM      4  H   UNL     1     -35.338  21.494   4.747  0.00  0.00    +0.223 HD
ENDBRANCH   1   3
BRANCH   1   5
ATOM      5  O   UNL     1     -36.193  21.507   2.220  0.00  0.00    -0.402 OA
BRANCH   5   8
ATOM      6  C   UNL     1     -33.294  19.481   1.228  0.00  0.00    +0.003 C 
ATOM      7  C   UNL     1     -32.658  20.367   0.326  0.00  0.00    +0.000 C 
ATOM      8  C   UNL     1     -35.038  21.134   1.602  0.00  0.00    +0.149 C 
ATOM      9  C   UNL     1     -34.484  19.880   1.858  0.00  0.00    +0.037 C 
ATOM     10  C   UNL     1     -33.230  21.625   0.080  0.00  0.00    +0.003 C 
ATOM     11  C   UNL     1     -34.413  22.004   0.714  0.00  0.00    +0.037 C 
ATOM     12  C   UNL     1     -32.722  18.223   1.474  0.00  0.00    +0.000 C 
ATOM     13  C   UNL     1     -31.468  19.967  -0.304  0.00  0.00    +0.000 C 
ATOM     14  C   UNL     1     -31.539  17.842   0.839  0.00  0.00    +0.000 C 
ATOM     15  C   UNL     1     -30.913  18.712  -0.049  0.00  0.00    +0.000 C 
ENDBRANCH   5   8
ENDBRANCH   1   5
BRANCH   1  16
ATOM     16  O   UNL     1     -37.919  23.043   3.250  0.00  0.00    -0.176 OA
BRANCH  16  17
ATOM     17  P   UNL     1     -38.977  23.019   2.028  0.00  0.00    +0.493 P 
ATOM     18  O   UNL     1     -40.029  21.955   2.125  0.00  0.00    -0.226 OA
BRANCH  17  19
ATOM     19  O   UNL     1     -38.030  22.926   0.720  0.00  0.00    -0.302 OA
ATOM     20  H   UNL     1     -38.245  23.652   0.113  0.00  0.00    +0.222 HD
ENDBRANCH  17  19
BRANCH  17  21
ATOM     21  O   UNL     1     -39.528  24.536   1.983  0.00  0.00    -0.186 OA
BRANCH  21  22
ATOM     22  P   UNL     1     -38.750  25.947   2.090  0.00  0.00    +0.481 P 
ATOM     23  O   UNL     1     -39.482  27.111   1.488  0.00  0.00    -0.227 OA
BRANCH  22  24
ATOM     24  O   UNL     1     -37.306  25.628   1.439  0.00  0.00    -0.302 OA
ATOM     25  H   UNL     1     -36.681  26.331   1.680  0.00  0.00    +0.222 HD
ENDBRANCH  22  24
BRANCH  22  26
ATOM     26  O   UNL     1     -38.434  26.075   3.670  0.00  0.00    -0.302 OA
ATOM     27  H   UNL     1     -37.536  25.752   3.846  0.00  0.00    +0.222 HD
ENDBRANCH  22  26
ENDBRANCH  21  22
ENDBRANCH  17  21
ENDBRANCH  16  17
ENDBRANCH   1  16
TORSDOF 10
ENDMDL
MODEL 9
REMARK VINA RESULT:      -5.9      4.295      6.549
REMARK  Name = 193862
REMARK  10 active torsions:
REMARK  status: ('A' for Active; 'I' for Inactive)
REMARK    1  A    between atoms: P_1  and  O_3
REMARK    2  A    between atoms: P_1  and  O_5
REMARK    3  A    between atoms: P_1  and  O_16
REMARK    4  A    between atoms: O_5  and  C_8
REMARK    5  A    between atoms: O_16  and  P_17
REMARK    6  A    between atoms: P_17  and  O_19
REMARK    7  A    between atoms: P_17  and  O_21
REMARK    8  A    between atoms: O_21  and  P_22
REMARK    9  A    between atoms: P_22  and  O_24
REMARK   10  A    between atoms: P_22  and  O_26
REMARK                            x       y       z     vdW  Elec       q    Type
REMARK                         _______ _______ _______ _____ _____    ______ ____
ROOT
ATOM      1  P   UNL     1     -32.294  28.083   5.469  0.00  0.00    +0.539 P 
ATOM      2  O   UNL     1     -31.994  27.373   6.757  0.00  0.00    -0.215 OA
ENDROOT
BRANCH   1   3
ATOM      3  O   UNL     1     -32.343  29.698   5.562  0.00  0.00    -0.293 OA
ATOM      4  H   UNL     1     -32.041  29.980   6.439  0.00  0.00    +0.223 HD
ENDBRANCH   1   3
BRANCH   1   5
ATOM      5  O   UNL     1     -33.679  27.681   4.738  0.00  0.00    -0.402 OA
BRANCH   5   8
ATOM      6  C   UNL     1     -34.803  24.195   5.024  0.00  0.00    +0.003 C 
ATOM      7  C   UNL     1     -34.813  23.816   3.660  0.00  0.00    +0.000 C 
ATOM      8  C   UNL     1     -34.049  26.418   4.387  0.00  0.00    +0.149 C 
ATOM      9  C   UNL     1     -34.419  25.501   5.370  0.00  0.00    +0.037 C 
ATOM     10  C   UNL     1     -34.437  24.752   2.684  0.00  0.00    +0.003 C 
ATOM     11  C   UNL     1     -34.059  26.045   3.046  0.00  0.00    +0.037 C 
ATOM     12  C   UNL     1     -35.179  23.259   6.000  0.00  0.00    +0.000 C 
ATOM     13  C   UNL     1     -35.198  22.510   3.314  0.00  0.00    +0.000 C 
ATOM     14  C   UNL     1     -35.558  21.966   5.638  0.00  0.00    +0.000 C 
ATOM     15  C   UNL     1     -35.568  21.592   4.297  0.00  0.00    +0.000 C 
ENDBRANCH   5   8
ENDBRANCH   1   5
BRANCH   1  16
ATOM     16  O   UNL     1     -31.190  27.836   4.314  0.00  0.00    -0.176 OA
BRANCH  16  17
ATOM     17  P   UNL     1     -29.671  28.372   4.168  0.00  0.00    +0.493 P 
ATOM     18  O   UNL     1     -29.434  29.281   3.000  0.00  0.00    -0.226 OA
BRANCH  17  19
ATOM     19  O   UNL     1     -28.798  27.011   4.164  0.00  0.00    -0.302 OA
ATOM     20  H   UNL     1     -29.105  26.431   3.450  0.00  0.00    +0.222 HD
ENDBRANCH  17  19
BRANCH  17  21
ATOM     21  O   UNL     1     -29.362  29.012   5.618  0.00  0.00    -0.186 OA
BRANCH  21  22
ATOM     22  P   UNL     1     -28.455  28.472   6.840  0.00  0.00    +0.481 P 
ATOM     23  O   UNL     1     -28.404  29.384   8.031  0.00  0.00    -0.227 OA
BRANCH  22  24
ATOM     24  O   UNL     1     -27.030  28.167   6.143  0.00  0.00    -0.302 OA
ATOM     25  H   UNL     1     -27.076  28.395   5.201  0.00  0.00    +0.222 HD
ENDBRANCH  22  24
BRANCH  22  26
ATOM     26  O   UNL     1     -29.060  27.000   7.125  0.00  0.00    -0.302 OA
ATOM     27  H   UNL     1     -29.130  26.860   8.083  0.00  0.00    +0.222 HD
ENDBRANCH  22  26
ENDBRANCH  21  22
ENDBRANCH  17  21
ENDBRANCH  16  17
ENDBRANCH   1  16
TORSDOF 10
ENDMDL
