MODEL 1
REMARK VINA RESULT:      -6.2      0.000      0.000
REMARK  Name = 5315685
REMARK  8 active torsions:
REMARK  status: ('A' for Active; 'I' for Inactive)
REMARK    1  A    between atoms: C_1  and  C_2
REMARK    2  A    between atoms: C_1  and  C_21
REMARK    3  A    between atoms: C_2  and  C_7
REMARK    4  A    between atoms: C_10  and  O_17
REMARK    5  A    between atoms: C_11  and  O_19
REMARK    6  A    between atoms: C_21  and  O_22
REMARK    7  A    between atoms: C_21  and  C_25
REMARK    8  A    between atoms: C_25  and  C_29
REMARK                            x       y       z     vdW  Elec       q    Type
REMARK                         _______ _______ _______ _____ _____    ______ ____
ROOT
ATOM      1  C   UNL     1     -39.702  22.599  -0.878  0.00  0.00    +0.044 C 
ENDROOT
BRANCH   1   2
ATOM      2  C   UNL     1     -38.561  22.815  -1.898  0.00  0.00    +0.050 C 
BRANCH   2   7
ATOM      3  N   UNL     1     -37.197  24.964  -0.116  0.00  0.00    -0.350 N 
ATOM      4  N   UNL     1     -36.429  21.686  -1.623  0.00  0.00    -0.244 NA
ATOM      5  C   UNL     1     -36.648  23.780  -0.544  0.00  0.00    +0.073 A 
ATOM      6  C   UNL     1     -35.353  23.712  -0.031  0.00  0.00    +0.054 A 
ATOM      7  C   UNL     1     -37.183  22.772  -1.336  0.00  0.00    +0.075 C 
ATOM      8  C   UNL     1     -35.133  24.903   0.730  0.00  0.00    +0.023 A 
ATOM      9  C   UNL     1     -36.301  25.664   0.658  0.00  0.00    +0.091 A 
ATOM     10  C   UNL     1     -34.574  22.583  -0.331  0.00  0.00    +0.159 C 
ATOM     11  C   UNL     1     -36.437  26.904   1.292  0.00  0.00    +0.154 C 
ATOM     12  C   UNL     1     -34.047  25.405   1.476  0.00  0.00    +0.002 C 
ATOM     13  C   UNL     1     -35.172  21.615  -1.127  0.00  0.00    +0.135 C 
ATOM     14  C   UNL     1     -35.345  27.381   2.024  0.00  0.00    +0.038 C 
ATOM     15  C   UNL     1     -34.168  26.643   2.117  0.00  0.00    +0.003 C 
ATOM     16  H   UNL     1     -38.107  25.269  -0.333  0.00  0.00    +0.166 HD
BRANCH  10  17
ATOM     17  O   UNL     1     -33.297  22.421   0.122  0.00  0.00    -0.470 OA
ATOM     18  C   UNL     1     -32.249  22.923  -0.704  0.00  0.00    +0.253 C 
ENDBRANCH  10  17
BRANCH  11  19
ATOM     19  O   UNL     1     -37.586  27.640   1.211  0.00  0.00    -0.470 OA
ATOM     20  C   UNL     1     -37.659  28.606   0.167  0.00  0.00    +0.253 C 
ENDBRANCH  11  19
ENDBRANCH   2   7
ENDBRANCH   1   2
BRANCH   1  21
ATOM     21  C   UNL     1     -39.534  21.400   0.067  0.00  0.00    +0.178 C 
BRANCH  21  22
ATOM     22  O   UNL     1     -40.726  20.623   0.034  0.00  0.00    -0.346 OA
ATOM     23  C   UNL     1     -41.686  21.180  -0.853  0.00  0.00    +0.175 C 
ENDBRANCH  21  22
BRANCH  21  25
ATOM     24  O   UNL     1     -40.112  22.185   2.271  0.00  0.00    -0.287 OA
ATOM     25  C   UNL     1     -39.233  21.764   1.518  0.00  0.00    +0.219 C 
BRANCH  25  29
ATOM     26  N   UNL     1     -37.716  23.740   3.332  0.00  0.00    -0.352 N 
ATOM     27  N   UNL     1     -37.236  20.460   1.712  0.00  0.00    -0.239 NA
ATOM     28  C   UNL     1     -37.271  22.530   2.858  0.00  0.00    +0.077 A 
ATOM     29  C   UNL     1     -37.856  21.590   2.059  0.00  0.00    +0.134 C 
ATOM     30  C   UNL     1     -35.980  22.339   3.350  0.00  0.00    +0.020 A 
ATOM     31  C   UNL     1     -35.654  23.484   4.145  0.00  0.00    +0.017 A 
ATOM     32  C   UNL     1     -36.756  24.340   4.113  0.00  0.00    +0.057 A 
ATOM     33  C   UNL     1     -35.299  21.161   3.003  0.00  0.00    +0.022 C 
ATOM     34  C   UNL     1     -34.521  23.872   4.890  0.00  0.00    +0.001 C 
ATOM     35  C   UNL     1     -36.782  25.565   4.789  0.00  0.00    +0.017 C 
ATOM     36  C   UNL     1     -35.984  20.273   2.186  0.00  0.00    +0.099 C 
ATOM     37  C   UNL     1     -34.532  25.094   5.571  0.00  0.00    +0.000 C 
ATOM     38  C   UNL     1     -35.648  25.927   5.520  0.00  0.00    +0.001 C 
ATOM     39  H   UNL     1     -38.601  24.124   3.137  0.00  0.00    +0.166 HD
ENDBRANCH  25  29
ENDBRANCH  21  25
ENDBRANCH   1  21
TORSDOF 8
ENDMDL
MODEL 2
REMARK VINA RESULT:      -6.2      2.532      6.377
REMARK  Name = 5315685
REMARK  8 active torsions:
REMARK  status: ('A' for Active; 'I' for Inactive)
REMARK    1  A    between atoms: C_1  and  C_2
REMARK    2  A    between atoms: C_1  and  C_21
REMARK    3  A    between atoms: C_2  and  C_7
REMARK    4  A    between atoms: C_10  and  O_17
REMARK    5  A    between atoms: C_11  and  O_19
REMARK    6  A    between atoms: C_21  and  O_22
REMARK    7  A    between atoms: C_21  and  C_25
REMARK    8  A    between atoms: C_25  and  C_29
REMARK                            x       y       z     vdW  Elec       q    Type
REMARK                         _______ _______ _______ _____ _____    ______ ____
ROOT
ATOM      1  C   UNL     1     -35.369  26.169   5.517  0.00  0.00    +0.044 C 
ENDROOT
BRANCH   1   2
ATOM      2  C   UNL     1     -35.554  24.678   5.880  0.00  0.00    +0.050 C 
BRANCH   2   7
ATOM      3  N   UNL     1     -38.099  24.983   4.125  0.00  0.00    -0.350 N 
ATOM      4  N   UNL     1     -35.190  22.740   4.462  0.00  0.00    -0.244 NA
ATOM      5  C   UNL     1     -37.142  24.003   4.023  0.00  0.00    +0.073 A 
ATOM      6  C   UNL     1     -37.519  23.160   2.979  0.00  0.00    +0.054 A 
ATOM      7  C   UNL     1     -35.983  23.795   4.760  0.00  0.00    +0.075 C 
ATOM      8  C   UNL     1     -38.747  23.664   2.446  0.00  0.00    +0.023 A 
ATOM      9  C   UNL     1     -39.084  24.802   3.181  0.00  0.00    +0.091 A 
ATOM     10  C   UNL     1     -36.693  22.066   2.673  0.00  0.00    +0.159 C 
ATOM     11  C   UNL     1     -40.237  25.553   2.928  0.00  0.00    +0.154 C 
ATOM     12  C   UNL     1     -39.604  23.258   1.402  0.00  0.00    +0.002 C 
ATOM     13  C   UNL     1     -35.553  21.918   3.450  0.00  0.00    +0.135 C 
ATOM     14  C   UNL     1     -41.071  25.129   1.890  0.00  0.00    +0.038 C 
ATOM     15  C   UNL     1     -40.761  24.000   1.137  0.00  0.00    +0.003 C 
ATOM     16  H   UNL     1     -38.083  25.715   4.783  0.00  0.00    +0.166 HD
BRANCH  10  17
ATOM     17  O   UNL     1     -36.974  21.182   1.671  0.00  0.00    -0.470 OA
ATOM     18  C   UNL     1     -36.067  20.096   1.494  0.00  0.00    +0.253 C 
ENDBRANCH  10  17
BRANCH  11  19
ATOM     19  O   UNL     1     -40.555  26.664   3.658  0.00  0.00    -0.470 OA
ATOM     20  C   UNL     1     -41.936  26.999   3.750  0.00  0.00    +0.253 C 
ENDBRANCH  11  19
ENDBRANCH   2   7
ENDBRANCH   1   2
BRANCH   1  21
ATOM     21  C   UNL     1     -34.212  26.484   4.558  0.00  0.00    +0.178 C 
BRANCH  21  22
ATOM     22  O   UNL     1     -33.348  27.427   5.181  0.00  0.00    -0.346 OA
ATOM     23  C   UNL     1     -32.938  26.986   6.468  0.00  0.00    +0.175 C 
ENDBRANCH  21  22
BRANCH  21  25
ATOM     24  O   UNL     1     -34.703  28.251   2.994  0.00  0.00    -0.287 OA
ATOM     25  C   UNL     1     -34.637  27.039   3.201  0.00  0.00    +0.219 C 
BRANCH  25  29
ATOM     26  N   UNL     1     -37.079  27.201   1.330  0.00  0.00    -0.352 N 
ATOM     27  N   UNL     1     -34.090  25.113   1.891  0.00  0.00    -0.239 NA
ATOM     28  C   UNL     1     -36.072  26.268   1.309  0.00  0.00    +0.077 A 
ATOM     29  C   UNL     1     -34.958  26.108   2.084  0.00  0.00    +0.134 C 
ATOM     30  C   UNL     1     -36.347  25.380   0.269  0.00  0.00    +0.020 A 
ATOM     31  C   UNL     1     -37.565  25.809  -0.346  0.00  0.00    +0.017 A 
ATOM     32  C   UNL     1     -37.998  26.947   0.338  0.00  0.00    +0.057 A 
ATOM     33  C   UNL     1     -35.454  24.321   0.040  0.00  0.00    +0.022 C 
ATOM     34  C   UNL     1     -38.342  25.335  -1.423  0.00  0.00    +0.001 C 
ATOM     35  C   UNL     1     -39.170  27.634  -0.000  0.00  0.00    +0.017 C 
ATOM     36  C   UNL     1     -34.354  24.250   0.884  0.00  0.00    +0.099 C 
ATOM     37  C   UNL     1     -39.515  26.011  -1.774  0.00  0.00    +0.000 C 
ATOM     38  C   UNL     1     -39.921  27.144  -1.072  0.00  0.00    +0.001 C 
ATOM     39  H   UNL     1     -37.135  27.948   1.967  0.00  0.00    +0.166 HD
ENDBRANCH  25  29
ENDBRANCH  21  25
ENDBRANCH   1  21
TORSDOF 8
ENDMDL
MODEL 3
REMARK VINA RESULT:      -6.1      2.125      7.052
REMARK  Name = 5315685
REMARK  8 active torsions:
REMARK  status: ('A' for Active; 'I' for Inactive)
REMARK    1  A    between atoms: C_1  and  C_2
REMARK    2  A    between atoms: C_1  and  C_21
REMARK    3  A    between atoms: C_2  and  C_7
REMARK    4  A    between atoms: C_10  and  O_17
REMARK    5  A    between atoms: C_11  and  O_19
REMARK    6  A    between atoms: C_21  and  O_22
REMARK    7  A    between atoms: C_21  and  C_25
REMARK    8  A    between atoms: C_25  and  C_29
REMARK                            x       y       z     vdW  Elec       q    Type
REMARK                         _______ _______ _______ _____ _____    ______ ____
ROOT
ATOM      1  C   UNL     1     -35.102  25.652   5.381  0.00  0.00    +0.044 C 
ENDROOT
BRANCH   1   2
ATOM      2  C   UNL     1     -35.516  24.170   5.245  0.00  0.00    +0.050 C 
BRANCH   2   7
ATOM      3  N   UNL     1     -35.578  21.881   3.144  0.00  0.00    -0.350 N 
ATOM      4  N   UNL     1     -37.660  24.719   4.246  0.00  0.00    -0.244 NA
ATOM      5  C   UNL     1     -36.537  22.843   3.342  0.00  0.00    +0.073 A 
ATOM      6  C   UNL     1     -37.558  22.608   2.421  0.00  0.00    +0.054 A 
ATOM      7  C   UNL     1     -36.589  23.893   4.250  0.00  0.00    +0.075 C 
ATOM      8  C   UNL     1     -37.182  21.461   1.652  0.00  0.00    +0.023 A 
ATOM      9  C   UNL     1     -35.942  21.031   2.127  0.00  0.00    +0.091 A 
ATOM     10  C   UNL     1     -38.668  23.468   2.420  0.00  0.00    +0.159 C 
ATOM     11  C   UNL     1     -35.272  19.923   1.596  0.00  0.00    +0.154 C 
ATOM     12  C   UNL     1     -37.785  20.748   0.595  0.00  0.00    +0.002 C 
ATOM     13  C   UNL     1     -38.652  24.495   3.354  0.00  0.00    +0.135 C 
ATOM     14  C   UNL     1     -35.889  19.234   0.548  0.00  0.00    +0.038 C 
ATOM     15  C   UNL     1     -37.127  19.638   0.054  0.00  0.00    +0.003 C 
ATOM     16  H   UNL     1     -34.743  21.810   3.661  0.00  0.00    +0.166 HD
BRANCH  10  17
ATOM     17  O   UNL     1     -39.718  23.324   1.560  0.00  0.00    -0.470 OA
ATOM     18  C   UNL     1     -40.489  24.489   1.280  0.00  0.00    +0.253 C 
ENDBRANCH  10  17
BRANCH  11  19
ATOM     19  O   UNL     1     -34.057  19.514   2.069  0.00  0.00    -0.470 OA
ATOM     20  C   UNL     1     -33.234  18.772   1.174  0.00  0.00    +0.253 C 
ENDBRANCH  11  19
ENDBRANCH   2   7
ENDBRANCH   1   2
BRANCH   1  21
ATOM     21  C   UNL     1     -34.044  26.145   4.383  0.00  0.00    +0.178 C 
BRANCH  21  22
ATOM     22  O   UNL     1     -32.963  26.717   5.111  0.00  0.00    -0.346 OA
ATOM     23  C   UNL     1     -33.229  26.740   6.506  0.00  0.00    +0.175 C 
ENDBRANCH  21  22
BRANCH  21  25
ATOM     24  O   UNL     1     -34.211  28.355   3.438  0.00  0.00    -0.287 OA
ATOM     25  C   UNL     1     -34.545  27.172   3.371  0.00  0.00    +0.219 C 
BRANCH  25  29
ATOM     26  N   UNL     1     -34.085  24.796   1.465  0.00  0.00    -0.352 N 
ATOM     27  N   UNL     1     -36.541  27.477   2.087  0.00  0.00    -0.239 NA
ATOM     28  C   UNL     1     -35.142  25.672   1.467  0.00  0.00    +0.077 A 
ATOM     29  C   UNL     1     -35.438  26.746   2.258  0.00  0.00    +0.134 C 
ATOM     30  C   UNL     1     -35.998  25.295   0.433  0.00  0.00    +0.020 A 
ATOM     31  C   UNL     1     -35.419  24.151  -0.203  0.00  0.00    +0.017 A 
ATOM     32  C   UNL     1     -34.226  23.864   0.463  0.00  0.00    +0.057 A 
ATOM     33  C   UNL     1     -37.166  26.045   0.225  0.00  0.00    +0.022 C 
ATOM     34  C   UNL     1     -35.801  23.331  -1.285  0.00  0.00    +0.001 C 
ATOM     35  C   UNL     1     -33.394  22.799   0.100  0.00  0.00    +0.017 C 
ATOM     36  C   UNL     1     -37.372  27.115   1.085  0.00  0.00    +0.099 C 
ATOM     37  C   UNL     1     -34.980  22.262  -1.659  0.00  0.00    +0.000 C 
ATOM     38  C   UNL     1     -33.795  22.001  -0.975  0.00  0.00    +0.001 C 
ATOM     39  H   UNL     1     -33.329  24.831   2.095  0.00  0.00    +0.166 HD
ENDBRANCH  25  29
ENDBRANCH  21  25
ENDBRANCH   1  21
TORSDOF 8
ENDMDL
MODEL 4
REMARK VINA RESULT:      -6.1      2.368      3.507
REMARK  Name = 5315685
REMARK  8 active torsions:
REMARK  status: ('A' for Active; 'I' for Inactive)
REMARK    1  A    between atoms: C_1  and  C_2
REMARK    2  A    between atoms: C_1  and  C_21
REMARK    3  A    between atoms: C_2  and  C_7
REMARK    4  A    between atoms: C_10  and  O_17
REMARK    5  A    between atoms: C_11  and  O_19
REMARK    6  A    between atoms: C_21  and  O_22
REMARK    7  A    between atoms: C_21  and  C_25
REMARK    8  A    between atoms: C_25  and  C_29
REMARK                            x       y       z     vdW  Elec       q    Type
REMARK                         _______ _______ _______ _____ _____    ______ ____
ROOT
ATOM      1  C   UNL     1     -40.253  26.244   0.126  0.00  0.00    +0.044 C 
ENDROOT
BRANCH   1   2
ATOM      2  C   UNL     1     -38.918  27.022   0.128  0.00  0.00    +0.050 C 
BRANCH   2   7
ATOM      3  N   UNL     1     -36.289  27.673   1.651  0.00  0.00    -0.350 N 
ATOM      4  N   UNL     1     -37.700  25.009  -0.473  0.00  0.00    -0.244 NA
ATOM      5  C   UNL     1     -36.550  26.552   0.903  0.00  0.00    +0.073 A 
ATOM      6  C   UNL     1     -35.413  25.746   0.949  0.00  0.00    +0.054 A 
ATOM      7  C   UNL     1     -37.688  26.184   0.196  0.00  0.00    +0.075 C 
ATOM      8  C   UNL     1     -34.445  26.422   1.757  0.00  0.00    +0.023 A 
ATOM      9  C   UNL     1     -35.020  27.621   2.180  0.00  0.00    +0.091 A 
ATOM     10  C   UNL     1     -35.430  24.527   0.253  0.00  0.00    +0.159 C 
ATOM     11  C   UNL     1     -34.346  28.539   2.993  0.00  0.00    +0.154 C 
ATOM     12  C   UNL     1     -33.130  26.123   2.169  0.00  0.00    +0.002 C 
ATOM     13  C   UNL     1     -36.599  24.224  -0.432  0.00  0.00    +0.135 C 
ATOM     14  C   UNL     1     -33.043  28.221   3.387  0.00  0.00    +0.038 C 
ATOM     15  C   UNL     1     -32.443  27.031   2.983  0.00  0.00    +0.003 C 
ATOM     16  H   UNL     1     -36.923  28.414   1.790  0.00  0.00    +0.166 HD
BRANCH  10  17
ATOM     17  O   UNL     1     -34.369  23.668   0.235  0.00  0.00    -0.470 OA
ATOM     18  C   UNL     1     -34.577  22.372   0.790  0.00  0.00    +0.253 C 
ENDBRANCH  10  17
BRANCH  11  19
ATOM     19  O   UNL     1     -34.921  29.711   3.398  0.00  0.00    -0.470 OA
ATOM     20  C   UNL     1     -34.528  30.893   2.707  0.00  0.00    +0.253 C 
ENDBRANCH  11  19
ENDBRANCH   2   7
ENDBRANCH   1   2
BRANCH   1  21
ATOM     21  C   UNL     1     -41.183  26.510   1.318  0.00  0.00    +0.178 C 
BRANCH  21  22
ATOM     22  O   UNL     1     -41.255  27.914   1.535  0.00  0.00    -0.346 OA
ATOM     23  C   UNL     1     -42.524  28.434   1.163  0.00  0.00    +0.175 C 
ENDBRANCH  21  22
BRANCH  21  25
ATOM     24  O   UNL     1     -41.210  26.208   3.709  0.00  0.00    -0.287 OA
ATOM     25  C   UNL     1     -40.762  25.839   2.623  0.00  0.00    +0.219 C 
BRANCH  25  29
ATOM     26  N   UNL     1     -38.007  25.724   3.998  0.00  0.00    -0.352 N 
ATOM     27  N   UNL     1     -40.205  23.626   1.907  0.00  0.00    -0.239 NA
ATOM     28  C   UNL     1     -38.605  24.745   3.243  0.00  0.00    +0.077 A 
ATOM     29  C   UNL     1     -39.808  24.695   2.598  0.00  0.00    +0.134 C 
ATOM     30  C   UNL     1     -37.733  23.658   3.202  0.00  0.00    +0.020 A 
ATOM     31  C   UNL     1     -36.574  24.013   3.964  0.00  0.00    +0.017 A 
ATOM     32  C   UNL     1     -36.775  25.308   4.447  0.00  0.00    +0.057 A 
ATOM     33  C   UNL     1     -38.119  22.517   2.483  0.00  0.00    +0.022 C 
ATOM     34  C   UNL     1     -35.371  23.352   4.289  0.00  0.00    +0.001 C 
ATOM     35  C   UNL     1     -35.832  25.976   5.237  0.00  0.00    +0.017 C 
ATOM     36  C   UNL     1     -39.361  22.570   1.864  0.00  0.00    +0.099 C 
ATOM     37  C   UNL     1     -34.420  24.007   5.078  0.00  0.00    +0.000 C 
ATOM     38  C   UNL     1     -34.649  25.299   5.544  0.00  0.00    +0.001 C 
ATOM     39  H   UNL     1     -38.406  26.603   4.190  0.00  0.00    +0.166 HD
ENDBRANCH  25  29
ENDBRANCH  21  25
ENDBRANCH   1  21
TORSDOF 8
ENDMDL
MODEL 5
REMARK VINA RESULT:      -6.0      2.496      6.518
REMARK  Name = 5315685
REMARK  8 active torsions:
REMARK  status: ('A' for Active; 'I' for Inactive)
REMARK    1  A    between atoms: C_1  and  C_2
REMARK    2  A    between atoms: C_1  and  C_21
REMARK    3  A    between atoms: C_2  and  C_7
REMARK    4  A    between atoms: C_10  and  O_17
REMARK    5  A    between atoms: C_11  and  O_19
REMARK    6  A    between atoms: C_21  and  O_22
REMARK    7  A    between atoms: C_21  and  C_25
REMARK    8  A    between atoms: C_25  and  C_29
REMARK                            x       y       z     vdW  Elec       q    Type
REMARK                         _______ _______ _______ _____ _____    ______ ____
ROOT
ATOM      1  C   UNL     1     -35.308  26.263   5.205  0.00  0.00    +0.044 C 
ENDROOT
BRANCH   1   2
ATOM      2  C   UNL     1     -35.578  24.814   5.669  0.00  0.00    +0.050 C 
BRANCH   2   7
ATOM      3  N   UNL     1     -38.135  25.070   3.922  0.00  0.00    -0.350 N 
ATOM      4  N   UNL     1     -35.270  22.790   4.362  0.00  0.00    -0.244 NA
ATOM      5  C   UNL     1     -37.199  24.067   3.868  0.00  0.00    +0.073 A 
ATOM      6  C   UNL     1     -37.604  23.172   2.878  0.00  0.00    +0.054 A 
ATOM      7  C   UNL     1     -36.038  23.876   4.606  0.00  0.00    +0.075 C 
ATOM      8  C   UNL     1     -38.827  23.671   2.328  0.00  0.00    +0.023 A 
ATOM      9  C   UNL     1     -39.132  24.856   2.999  0.00  0.00    +0.091 A 
ATOM     10  C   UNL     1     -36.804  22.045   2.629  0.00  0.00    +0.159 C 
ATOM     11  C   UNL     1     -40.272  25.615   2.713  0.00  0.00    +0.154 C 
ATOM     12  C   UNL     1     -39.703  23.223   1.318  0.00  0.00    +0.002 C 
ATOM     13  C   UNL     1     -35.659  21.919   3.403  0.00  0.00    +0.135 C 
ATOM     14  C   UNL     1     -41.126  25.150   1.709  0.00  0.00    +0.038 C 
ATOM     15  C   UNL     1     -40.847  23.973   1.020  0.00  0.00    +0.003 C 
ATOM     16  H   UNL     1     -38.096  25.839   4.536  0.00  0.00    +0.166 HD
BRANCH  10  17
ATOM     17  O   UNL     1     -37.113  21.112   1.682  0.00  0.00    -0.470 OA
ATOM     18  C   UNL     1     -36.311  19.934   1.650  0.00  0.00    +0.253 C 
ENDBRANCH  10  17
BRANCH  11  19
ATOM     19  O   UNL     1     -40.560  26.773   3.380  0.00  0.00    -0.470 OA
ATOM     20  C   UNL     1     -41.910  26.958   3.796  0.00  0.00    +0.253 C 
ENDBRANCH  11  19
ENDBRANCH   2   7
ENDBRANCH   1   2
BRANCH   1  21
ATOM     21  C   UNL     1     -33.880  26.554   4.721  0.00  0.00    +0.178 C 
BRANCH  21  22
ATOM     22  O   UNL     1     -33.290  27.512   5.591  0.00  0.00    -0.346 OA
ATOM     23  C   UNL     1     -32.887  26.922   6.819  0.00  0.00    +0.175 C 
ENDBRANCH  21  22
BRANCH  21  25
ATOM     24  O   UNL     1     -32.806  27.720   2.905  0.00  0.00    -0.287 OA
ATOM     25  C   UNL     1     -33.782  27.075   3.289  0.00  0.00    +0.219 C 
BRANCH  25  29
ATOM     26  N   UNL     1     -33.973  24.617   1.441  0.00  0.00    -0.352 N 
ATOM     27  N   UNL     1     -35.850  27.687   2.253  0.00  0.00    -0.239 NA
ATOM     28  C   UNL     1     -34.862  25.659   1.539  0.00  0.00    +0.077 A 
ATOM     29  C   UNL     1     -34.871  26.783   2.315  0.00  0.00    +0.134 C 
ATOM     30  C   UNL     1     -35.896  25.412   0.636  0.00  0.00    +0.020 A 
ATOM     31  C   UNL     1     -35.602  24.174  -0.018  0.00  0.00    +0.017 A 
ATOM     32  C   UNL     1     -34.396  23.702   0.505  0.00  0.00    +0.057 A 
ATOM     33  C   UNL     1     -36.941  26.344   0.545  0.00  0.00    +0.022 C 
ATOM     34  C   UNL     1     -36.252  23.408  -1.009  0.00  0.00    +0.001 C 
ATOM     35  C   UNL     1     -33.807  22.504   0.086  0.00  0.00    +0.017 C 
ATOM     36  C   UNL     1     -36.853  27.451   1.378  0.00  0.00    +0.099 C 
ATOM     37  C   UNL     1     -35.674  22.208  -1.438  0.00  0.00    +0.000 C 
ATOM     38  C   UNL     1     -34.470  21.764  -0.897  0.00  0.00    +0.001 C 
ATOM     39  H   UNL     1     -33.147  24.536   1.969  0.00  0.00    +0.166 HD
ENDBRANCH  25  29
ENDBRANCH  21  25
ENDBRANCH   1  21
TORSDOF 8
ENDMDL
MODEL 6
REMARK VINA RESULT:      -5.9      1.084      3.299
REMARK  Name = 5315685
REMARK  8 active torsions:
REMARK  status: ('A' for Active; 'I' for Inactive)
REMARK    1  A    between atoms: C_1  and  C_2
REMARK    2  A    between atoms: C_1  and  C_21
REMARK    3  A    between atoms: C_2  and  C_7
REMARK    4  A    between atoms: C_10  and  O_17
REMARK    5  A    between atoms: C_11  and  O_19
REMARK    6  A    between atoms: C_21  and  O_22
REMARK    7  A    between atoms: C_21  and  C_25
REMARK    8  A    between atoms: C_25  and  C_29
REMARK                            x       y       z     vdW  Elec       q    Type
REMARK                         _______ _______ _______ _____ _____    ______ ____
ROOT
ATOM      1  C   UNL     1     -40.346  22.635  -0.589  0.00  0.00    +0.044 C 
ENDROOT
BRANCH   1   2
ATOM      2  C   UNL     1     -39.604  23.701  -1.427  0.00  0.00    +0.050 C 
BRANCH   2   7
ATOM      3  N   UNL     1     -36.647  23.781  -0.476  0.00  0.00    -0.350 N 
ATOM      4  N   UNL     1     -39.694  25.852  -0.303  0.00  0.00    -0.244 NA
ATOM      5  C   UNL     1     -37.607  24.738  -0.259  0.00  0.00    +0.073 A 
ATOM      6  C   UNL     1     -37.013  25.766   0.473  0.00  0.00    +0.054 A 
ATOM      7  C   UNL     1     -38.941  24.782  -0.645  0.00  0.00    +0.075 C 
ATOM      8  C   UNL     1     -35.648  25.397   0.693  0.00  0.00    +0.023 A 
ATOM      9  C   UNL     1     -35.450  24.154   0.090  0.00  0.00    +0.091 A 
ATOM     10  C   UNL     1     -37.798  26.875   0.826  0.00  0.00    +0.159 C 
ATOM     11  C   UNL     1     -34.219  23.490   0.113  0.00  0.00    +0.154 C 
ATOM     12  C   UNL     1     -34.561  26.008   1.352  0.00  0.00    +0.002 C 
ATOM     13  C   UNL     1     -39.122  26.851   0.408  0.00  0.00    +0.135 C 
ATOM     14  C   UNL     1     -33.157  24.114   0.773  0.00  0.00    +0.038 C 
ATOM     15  C   UNL     1     -33.323  25.356   1.382  0.00  0.00    +0.003 C 
ATOM     16  H   UNL     1     -36.795  22.942  -0.970  0.00  0.00    +0.166 HD
BRANCH  10  17
ATOM     17  O   UNL     1     -37.311  27.931   1.541  0.00  0.00    -0.470 OA
ATOM     18  C   UNL     1     -36.701  28.986   0.801  0.00  0.00    +0.253 C 
ENDBRANCH  10  17
BRANCH  11  19
ATOM     19  O   UNL     1     -34.040  22.272  -0.481  0.00  0.00    -0.470 OA
ATOM     20  C   UNL     1     -32.749  21.681  -0.361  0.00  0.00    +0.253 C 
ENDBRANCH  11  19
ENDBRANCH   2   7
ENDBRANCH   1   2
BRANCH   1  21
ATOM     21  C   UNL     1     -39.478  21.493  -0.040  0.00  0.00    +0.178 C 
BRANCH  21  22
ATOM     22  O   UNL     1     -40.123  20.256  -0.318  0.00  0.00    -0.346 OA
ATOM     23  C   UNL     1     -39.339  19.443  -1.179  0.00  0.00    +0.175 C 
ENDBRANCH  21  22
BRANCH  21  25
ATOM     24  O   UNL     1     -40.105  21.687   2.279  0.00  0.00    -0.287 OA
ATOM     25  C   UNL     1     -39.195  21.567   1.459  0.00  0.00    +0.219 C 
BRANCH  25  29
ATOM     26  N   UNL     1     -37.741  23.613   3.245  0.00  0.00    -0.352 N 
ATOM     27  N   UNL     1     -37.122  20.379   1.582  0.00  0.00    -0.239 NA
ATOM     28  C   UNL     1     -37.241  22.434   2.748  0.00  0.00    +0.077 A 
ATOM     29  C   UNL     1     -37.795  21.468   1.957  0.00  0.00    +0.134 C 
ATOM     30  C   UNL     1     -35.927  22.315   3.200  0.00  0.00    +0.020 A 
ATOM     31  C   UNL     1     -35.644  23.470   3.995  0.00  0.00    +0.017 A 
ATOM     32  C   UNL     1     -36.795  24.261   4.004  0.00  0.00    +0.057 A 
ATOM     33  C   UNL     1     -35.191  21.181   2.823  0.00  0.00    +0.022 C 
ATOM     34  C   UNL     1     -34.514  23.917   4.711  0.00  0.00    +0.001 C 
ATOM     35  C   UNL     1     -36.871  25.479   4.691  0.00  0.00    +0.017 C 
ATOM     36  C   UNL     1     -35.848  20.260   2.018  0.00  0.00    +0.099 C 
ATOM     37  C   UNL     1     -34.575  25.132   5.402  0.00  0.00    +0.000 C 
ATOM     38  C   UNL     1     -35.738  25.899   5.392  0.00  0.00    +0.001 C 
ATOM     39  H   UNL     1     -38.652  23.947   3.080  0.00  0.00    +0.166 HD
ENDBRANCH  25  29
ENDBRANCH  21  25
ENDBRANCH   1  21
TORSDOF 8
ENDMDL
MODEL 7
REMARK VINA RESULT:      -5.9      2.241      6.301
REMARK  Name = 5315685
REMARK  8 active torsions:
REMARK  status: ('A' for Active; 'I' for Inactive)
REMARK    1  A    between atoms: C_1  and  C_2
REMARK    2  A    between atoms: C_1  and  C_21
REMARK    3  A    between atoms: C_2  and  C_7
REMARK    4  A    between atoms: C_10  and  O_17
REMARK    5  A    between atoms: C_11  and  O_19
REMARK    6  A    between atoms: C_21  and  O_22
REMARK    7  A    between atoms: C_21  and  C_25
REMARK    8  A    between atoms: C_25  and  C_29
REMARK                            x       y       z     vdW  Elec       q    Type
REMARK                         _______ _______ _______ _____ _____    ______ ____
ROOT
ATOM      1  C   UNL     1     -35.584  28.268   2.061  0.00  0.00    +0.044 C 
ENDROOT
BRANCH   1   2
ATOM      2  C   UNL     1     -34.468  27.420   2.712  0.00  0.00    +0.050 C 
BRANCH   2   7
ATOM      3  N   UNL     1     -34.484  24.492   1.672  0.00  0.00    -0.350 N 
ATOM      4  N   UNL     1     -35.396  26.385   4.703  0.00  0.00    -0.244 NA
ATOM      5  C   UNL     1     -34.903  24.930   2.904  0.00  0.00    +0.073 A 
ATOM      6  C   UNL     1     -35.342  23.814   3.616  0.00  0.00    +0.054 A 
ATOM      7  C   UNL     1     -34.930  26.208   3.446  0.00  0.00    +0.075 C 
ATOM      8  C   UNL     1     -35.173  22.674   2.767  0.00  0.00    +0.023 A 
ATOM      9  C   UNL     1     -34.637  23.129   1.561  0.00  0.00    +0.091 A 
ATOM     10  C   UNL     1     -35.826  24.001   4.920  0.00  0.00    +0.159 C 
ATOM     11  C   UNL     1     -34.344  22.275   0.493  0.00  0.00    +0.154 C 
ATOM     12  C   UNL     1     -35.428  21.295   2.913  0.00  0.00    +0.002 C 
ATOM     13  C   UNL     1     -35.824  25.305   5.397  0.00  0.00    +0.135 C 
ATOM     14  C   UNL     1     -34.606  20.912   0.662  0.00  0.00    +0.038 C 
ATOM     15  C   UNL     1     -35.139  20.428   1.854  0.00  0.00    +0.003 C 
ATOM     16  H   UNL     1     -34.123  25.074   0.964  0.00  0.00    +0.166 HD
BRANCH  10  17
ATOM     17  O   UNL     1     -36.278  22.975   5.698  0.00  0.00    -0.470 OA
ATOM     18  C   UNL     1     -35.300  22.233   6.423  0.00  0.00    +0.253 C 
ENDBRANCH  10  17
BRANCH  11  19
ATOM     19  O   UNL     1     -33.820  22.735  -0.683  0.00  0.00    -0.470 OA
ATOM     20  C   UNL     1     -32.400  22.746  -0.794  0.00  0.00    +0.253 C 
ENDBRANCH  11  19
ENDBRANCH   2   7
ENDBRANCH   1   2
BRANCH   1  21
ATOM     21  C   UNL     1     -36.180  27.704   0.763  0.00  0.00    +0.178 C 
BRANCH  21  22
ATOM     22  O   UNL     1     -35.977  28.650  -0.280  0.00  0.00    -0.346 OA
ATOM     23  C   UNL     1     -35.502  29.890   0.227  0.00  0.00    +0.175 C 
ENDBRANCH  21  22
BRANCH  21  25
ATOM     24  O   UNL     1     -38.517  28.117   0.345  0.00  0.00    -0.287 OA
ATOM     25  C   UNL     1     -37.668  27.371   0.833  0.00  0.00    +0.219 C 
BRANCH  25  29
ATOM     26  N   UNL     1     -37.568  24.550  -0.402  0.00  0.00    -0.352 N 
ATOM     27  N   UNL     1     -38.608  26.230   2.713  0.00  0.00    -0.239 NA
ATOM     28  C   UNL     1     -38.030  24.901   0.843  0.00  0.00    +0.077 A 
ATOM     29  C   UNL     1     -38.118  26.107   1.479  0.00  0.00    +0.134 C 
ATOM     30  C   UNL     1     -38.458  23.733   1.474  0.00  0.00    +0.020 A 
ATOM     31  C   UNL     1     -38.239  22.652   0.562  0.00  0.00    +0.017 A 
ATOM     32  C   UNL     1     -37.684  23.193  -0.599  0.00  0.00    +0.057 A 
ATOM     33  C   UNL     1     -38.981  23.828   2.773  0.00  0.00    +0.022 C 
ATOM     34  C   UNL     1     -38.461  21.260   0.617  0.00  0.00    +0.001 C 
ATOM     35  C   UNL     1     -37.341  22.412  -1.709  0.00  0.00    +0.017 C 
ATOM     36  C   UNL     1     -39.025  25.100   3.328  0.00  0.00    +0.099 C 
ATOM     37  C   UNL     1     -38.123  20.467  -0.485  0.00  0.00    +0.000 C 
ATOM     38  C   UNL     1     -37.571  21.037  -1.629  0.00  0.00    +0.001 C 
ATOM     39  H   UNL     1     -37.205  25.183  -1.062  0.00  0.00    +0.166 HD
ENDBRANCH  25  29
ENDBRANCH  21  25
ENDBRANCH   1  21
TORSDOF 8
ENDMDL
MODEL 8
REMARK VINA RESULT:      -5.8      2.383      4.333
REMARK  Name = 5315685
REMARK  8 active torsions:
REMARK  status: ('A' for Active; 'I' for Inactive)
REMARK    1  A    between atoms: C_1  and  C_2
REMARK    2  A    between atoms: C_1  and  C_21
REMARK    3  A    between atoms: C_2  and  C_7
REMARK    4  A    between atoms: C_10  and  O_17
REMARK    5  A    between atoms: C_11  and  O_19
REMARK    6  A    between atoms: C_21  and  O_22
REMARK    7  A    between atoms: C_21  and  C_25
REMARK    8  A    between atoms: C_25  and  C_29
REMARK                            x       y       z     vdW  Elec       q    Type
REMARK                         _______ _______ _______ _____ _____    ______ ____
ROOT
ATOM      1  C   UNL     1     -40.529  27.644   0.340  0.00  0.00    +0.044 C 
ENDROOT
BRANCH   1   2
ATOM      2  C   UNL     1     -39.313  27.341  -0.564  0.00  0.00    +0.050 C 
BRANCH   2   7
ATOM      3  N   UNL     1     -37.426  24.879  -0.376  0.00  0.00    -0.350 N 
ATOM      4  N   UNL     1     -37.565  28.386   0.759  0.00  0.00    -0.244 NA
ATOM      5  C   UNL     1     -37.215  26.122   0.170  0.00  0.00    +0.073 A 
ATOM      6  C   UNL     1     -35.988  26.083   0.831  0.00  0.00    +0.054 A 
ATOM      7  C   UNL     1     -37.999  27.268   0.134  0.00  0.00    +0.075 C 
ATOM      8  C   UNL     1     -35.457  24.764   0.667  0.00  0.00    +0.023 A 
ATOM      9  C   UNL     1     -36.378  24.037  -0.090  0.00  0.00    +0.091 A 
ATOM     10  C   UNL     1     -35.541  27.245   1.479  0.00  0.00    +0.159 C 
ATOM     11  C   UNL     1     -36.178  22.697  -0.441  0.00  0.00    +0.154 C 
ATOM     12  C   UNL     1     -34.277  24.121   1.092  0.00  0.00    +0.002 C 
ATOM     13  C   UNL     1     -36.375  28.352   1.403  0.00  0.00    +0.135 C 
ATOM     14  C   UNL     1     -35.001  22.081  -0.007  0.00  0.00    +0.038 C 
ATOM     15  C   UNL     1     -34.063  22.782   0.748  0.00  0.00    +0.003 C 
ATOM     16  H   UNL     1     -38.220  24.626  -0.900  0.00  0.00    +0.166 HD
BRANCH  10  17
ATOM     17  O   UNL     1     -34.356  27.310   2.154  0.00  0.00    -0.470 OA
ATOM     18  C   UNL     1     -34.110  28.488   2.917  0.00  0.00    +0.253 C 
ENDBRANCH  10  17
BRANCH  11  19
ATOM     19  O   UNL     1     -37.088  21.997  -1.182  0.00  0.00    -0.470 OA
ATOM     20  C   UNL     1     -37.531  20.752  -0.647  0.00  0.00    +0.253 C 
ENDBRANCH  11  19
ENDBRANCH   2   7
ENDBRANCH   1   2
BRANCH   1  21
ATOM     21  C   UNL     1     -41.179  26.427   1.014  0.00  0.00    +0.178 C 
BRANCH  21  22
ATOM     22  O   UNL     1     -42.564  26.693   1.197  0.00  0.00    -0.346 OA
ATOM     23  C   UNL     1     -43.337  25.504   1.124  0.00  0.00    +0.175 C 
ENDBRANCH  21  22
BRANCH  21  25
ATOM     24  O   UNL     1     -40.796  26.706   3.377  0.00  0.00    -0.287 OA
ATOM     25  C   UNL     1     -40.576  26.043   2.364  0.00  0.00    +0.219 C 
BRANCH  25  29
ATOM     26  N   UNL     1     -37.898  25.830   3.871  0.00  0.00    -0.352 N 
ATOM     27  N   UNL     1     -40.177  23.739   1.861  0.00  0.00    -0.239 NA
ATOM     28  C   UNL     1     -38.545  24.839   3.173  0.00  0.00    +0.077 A 
ATOM     29  C   UNL     1     -39.720  24.829   2.478  0.00  0.00    +0.134 C 
ATOM     30  C   UNL     1     -37.764  23.687   3.264  0.00  0.00    +0.020 A 
ATOM     31  C   UNL     1     -36.612  24.014   4.047  0.00  0.00    +0.017 A 
ATOM     32  C   UNL     1     -36.724  25.358   4.411  0.00  0.00    +0.057 A 
ATOM     33  C   UNL     1     -38.215  22.522   2.625  0.00  0.00    +0.022 C 
ATOM     34  C   UNL     1     -35.482  23.291   4.482  0.00  0.00    +0.001 C 
ATOM     35  C   UNL     1     -35.761  26.015   5.186  0.00  0.00    +0.017 C 
ATOM     36  C   UNL     1     -39.422  22.620   1.946  0.00  0.00    +0.099 C 
ATOM     37  C   UNL     1     -34.512  23.934   5.258  0.00  0.00    +0.000 C 
ATOM     38  C   UNL     1     -34.651  25.276   5.604  0.00  0.00    +0.001 C 
ATOM     39  H   UNL     1     -38.229  26.751   3.971  0.00  0.00    +0.166 HD
ENDBRANCH  25  29
ENDBRANCH  21  25
ENDBRANCH   1  21
TORSDOF 8
ENDMDL
MODEL 9
REMARK VINA RESULT:      -5.8      4.987      7.944
REMARK  Name = 5315685
REMARK  8 active torsions:
REMARK  status: ('A' for Active; 'I' for Inactive)
REMARK    1  A    between atoms: C_1  and  C_2
REMARK    2  A    between atoms: C_1  and  C_21
REMARK    3  A    between atoms: C_2  and  C_7
REMARK    4  A    between atoms: C_10  and  O_17
REMARK    5  A    between atoms: C_11  and  O_19
REMARK    6  A    between atoms: C_21  and  O_22
REMARK    7  A    between atoms: C_21  and  C_25
REMARK    8  A    between atoms: C_25  and  C_29
REMARK                            x       y       z     vdW  Elec       q    Type
REMARK                         _______ _______ _______ _____ _____    ______ ____
ROOT
ATOM      1  C   UNL     1     -34.360  25.140   5.640  0.00  0.00    +0.044 C 
ENDROOT
BRANCH   1   2
ATOM      2  C   UNL     1     -35.897  25.052   5.504  0.00  0.00    +0.050 C 
BRANCH   2   7
ATOM      3  N   UNL     1     -38.511  25.331   3.848  0.00  0.00    -0.350 N 
ATOM      4  N   UNL     1     -35.636  23.042   4.166  0.00  0.00    -0.244 NA
ATOM      5  C   UNL     1     -37.579  24.327   3.752  0.00  0.00    +0.073 A 
ATOM      6  C   UNL     1     -38.019  23.444   2.767  0.00  0.00    +0.054 A 
ATOM      7  C   UNL     1     -36.394  24.127   4.447  0.00  0.00    +0.075 C 
ATOM      8  C   UNL     1     -39.259  23.951   2.264  0.00  0.00    +0.023 A 
ATOM      9  C   UNL     1     -39.540  25.128   2.958  0.00  0.00    +0.091 A 
ATOM     10  C   UNL     1     -37.231  22.319   2.478  0.00  0.00    +0.159 C 
ATOM     11  C   UNL     1     -40.687  25.892   2.719  0.00  0.00    +0.154 C 
ATOM     12  C   UNL     1     -40.170  23.515   1.279  0.00  0.00    +0.002 C 
ATOM     13  C   UNL     1     -36.060  22.182   3.211  0.00  0.00    +0.135 C 
ATOM     14  C   UNL     1     -41.576  25.440   1.740  0.00  0.00    +0.038 C 
ATOM     15  C   UNL     1     -41.322  24.269   1.029  0.00  0.00    +0.003 C 
ATOM     16  H   UNL     1     -38.450  26.093   4.469  0.00  0.00    +0.166 HD
BRANCH  10  17
ATOM     17  O   UNL     1     -37.573  21.396   1.532  0.00  0.00    -0.470 OA
ATOM     18  C   UNL     1     -36.533  20.550   1.047  0.00  0.00    +0.253 C 
ENDBRANCH  10  17
BRANCH  11  19
ATOM     19  O   UNL     1     -40.950  27.043   3.409  0.00  0.00    -0.470 OA
ATOM     20  C   UNL     1     -42.299  27.258   3.813  0.00  0.00    +0.253 C 
ENDBRANCH  11  19
ENDBRANCH   2   7
ENDBRANCH   1   2
BRANCH   1  21
ATOM     21  C   UNL     1     -33.695  26.336   4.943  0.00  0.00    +0.178 C 
BRANCH  21  22
ATOM     22  O   UNL     1     -32.809  25.846   3.944  0.00  0.00    -0.346 OA
ATOM     23  C   UNL     1     -33.439  25.789   2.672  0.00  0.00    +0.175 C 
ENDBRANCH  21  22
BRANCH  21  25
ATOM     24  O   UNL     1     -32.803  27.029   7.071  0.00  0.00    -0.287 OA
ATOM     25  C   UNL     1     -32.915  27.266   5.869  0.00  0.00    +0.219 C 
BRANCH  25  29
ATOM     26  N   UNL     1     -30.235  28.466   6.804  0.00  0.00    -0.352 N 
ATOM     27  N   UNL     1     -32.890  29.089   4.319  0.00  0.00    -0.239 NA
ATOM     28  C   UNL     1     -31.054  28.930   5.804  0.00  0.00    +0.077 A 
ATOM     29  C   UNL     1     -32.248  28.478   5.316  0.00  0.00    +0.134 C 
ATOM     30  C   UNL     1     -30.453  30.067   5.266  0.00  0.00    +0.020 A 
ATOM     31  C   UNL     1     -29.231  30.280   5.980  0.00  0.00    +0.017 A 
ATOM     32  C   UNL     1     -29.123  29.265   6.933  0.00  0.00    +0.057 A 
ATOM     33  C   UNL     1     -31.103  30.734   4.216  0.00  0.00    +0.022 C 
ATOM     34  C   UNL     1     -28.203  31.243   5.903  0.00  0.00    +0.001 C 
ATOM     35  C   UNL     1     -28.040  29.166   7.814  0.00  0.00    +0.017 C 
ATOM     36  C   UNL     1     -32.310  30.193   3.796  0.00  0.00    +0.099 C 
ATOM     37  C   UNL     1     -27.115  31.157   6.777  0.00  0.00    +0.000 C 
ATOM     38  C   UNL     1     -27.036  30.133   7.718  0.00  0.00    +0.001 C 
ATOM     39  H   UNL     1     -30.420  27.670   7.353  0.00  0.00    +0.166 HD
ENDBRANCH  25  29
ENDBRANCH  21  25
ENDBRANCH   1  21
TORSDOF 8
ENDMDL
