MODEL 1
REMARK VINA RESULT:      -6.4      0.000      0.000
REMARK  Name = 54050594
REMARK  6 active torsions:
REMARK  status: ('A' for Active; 'I' for Inactive)
REMARK    1  A    between atoms: C_6  and  O_23
REMARK    2  A    between atoms: C_7  and  O_27
REMARK    3  A    between atoms: C_8  and  O_25
REMARK    4  A    between atoms: C_9  and  C_13
REMARK    5  A    between atoms: C_16  and  O_19
REMARK    6  A    between atoms: C_18  and  O_21
REMARK                            x       y       z     vdW  Elec       q    Type
REMARK                         _______ _______ _______ _____ _____    ______ ____
ROOT
ATOM      1  O   UNL     1     -36.732  24.821   3.466  0.00  0.00    -0.453 OA
ATOM      2  O   UNL     1     -35.532  20.966   2.916  0.00  0.00    -0.286 OA
ATOM      3  C   UNL     1     -37.599  23.904   2.926  0.00  0.00    +0.150 A 
ATOM      4  C   UNL     1     -37.254  22.571   2.712  0.00  0.00    +0.110 A 
ATOM      5  C   UNL     1     -38.874  24.358   2.586  0.00  0.00    +0.050 A 
ATOM      6  C   UNL     1     -39.800  23.473   2.032  0.00  0.00    +0.174 A 
ATOM      7  C   UNL     1     -38.178  21.682   2.159  0.00  0.00    +0.177 A 
ATOM      8  C   UNL     1     -39.453  22.138   1.819  0.00  0.00    +0.206 A 
ATOM      9  C   UNL     1     -35.460  24.397   3.821  0.00  0.00    +0.148 C 
ATOM     10  C   UNL     1     -35.903  22.120   3.079  0.00  0.00    +0.205 C 
ATOM     11  C   UNL     1     -35.009  23.143   3.659  0.00  0.00    +0.080 C 
ATOM     12  C   UNL     1     -39.253  25.787   2.810  0.00  0.00    +0.038 C 
ENDROOT
BRANCH   9  13
ATOM     13  C   UNL     1     -34.610  25.462   4.387  0.00  0.00    +0.038 C 
ATOM     14  C   UNL     1     -34.033  26.414   3.545  0.00  0.00    +0.043 C 
ATOM     15  C   UNL     1     -34.381  25.517   5.762  0.00  0.00    +0.006 C 
ATOM     16  C   UNL     1     -33.229  27.421   4.080  0.00  0.00    +0.168 C 
ATOM     17  C   UNL     1     -33.576  26.524   6.295  0.00  0.00    +0.040 C 
ATOM     18  C   UNL     1     -33.001  27.475   5.455  0.00  0.00    +0.167 C 
BRANCH  16  19
ATOM     19  O   UNL     1     -32.672  28.345   3.248  0.00  0.00    -0.503 OA
ATOM     20  H   UNL     1     -33.092  28.560   2.438  0.00  0.00    +0.292 HD
ENDBRANCH  16  19
BRANCH  18  21
ATOM     21  O   UNL     1     -32.216  28.454   5.988  0.00  0.00    -0.503 OA
ATOM     22  H   UNL     1     -31.558  28.237   6.617  0.00  0.00    +0.292 HD
ENDBRANCH  18  21
ENDBRANCH   9  13
BRANCH   6  23
ATOM     23  O   UNL     1     -41.049  23.909   1.697  0.00  0.00    -0.468 OA
ATOM     24  C   UNL     1     -41.207  24.477   0.399  0.00  0.00    +0.253 C 
ENDBRANCH   6  23
BRANCH   8  25
ATOM     25  O   UNL     1     -40.363  21.279   1.278  0.00  0.00    -0.465 OA
ATOM     26  C   UNL     1     -40.291  21.062  -0.129  0.00  0.00    +0.253 C 
ENDBRANCH   8  25
BRANCH   7  27
ATOM     27  O   UNL     1     -37.876  20.371   1.936  0.00  0.00    -0.503 OA
ATOM     28  H   UNL     1     -37.998  20.001   1.083  0.00  0.00    +0.292 HD
ENDBRANCH   7  27
TORSDOF 6
ENDMDL
MODEL 2
REMARK VINA RESULT:      -6.4      2.734      4.299
REMARK  Name = 54050594
REMARK  6 active torsions:
REMARK  status: ('A' for Active; 'I' for Inactive)
REMARK    1  A    between atoms: C_6  and  O_23
REMARK    2  A    between atoms: C_7  and  O_27
REMARK    3  A    between atoms: C_8  and  O_25
REMARK    4  A    between atoms: C_9  and  C_13
REMARK    5  A    between atoms: C_16  and  O_19
REMARK    6  A    between atoms: C_18  and  O_21
REMARK                            x       y       z     vdW  Elec       q    Type
REMARK                         _______ _______ _______ _____ _____    ______ ____
ROOT
ATOM      1  O   UNL     1     -37.294  21.705   1.865  0.00  0.00    -0.453 OA
ATOM      2  O   UNL     1     -34.050  19.243   1.726  0.00  0.00    -0.286 OA
ATOM      3  C   UNL     1     -37.317  20.586   1.070  0.00  0.00    +0.150 A 
ATOM      4  C   UNL     1     -36.244  19.702   0.977  0.00  0.00    +0.110 A 
ATOM      5  C   UNL     1     -38.480  20.352   0.336  0.00  0.00    +0.050 A 
ATOM      6  C   UNL     1     -38.563  19.231  -0.490  0.00  0.00    +0.174 A 
ATOM      7  C   UNL     1     -36.323  18.579   0.152  0.00  0.00    +0.177 A 
ATOM      8  C   UNL     1     -37.488  18.346  -0.582  0.00  0.00    +0.206 A 
ATOM      9  C   UNL     1     -36.154  21.960   2.612  0.00  0.00    +0.148 C 
ATOM     10  C   UNL     1     -35.029  19.975   1.762  0.00  0.00    +0.205 C 
ATOM     11  C   UNL     1     -35.056  21.188   2.603  0.00  0.00    +0.080 C 
ATOM     12  C   UNL     1     -39.636  21.295   0.428  0.00  0.00    +0.038 C 
ENDROOT
BRANCH   9  13
ATOM     13  C   UNL     1     -36.234  23.189   3.426  0.00  0.00    +0.038 C 
ATOM     14  C   UNL     1     -37.200  24.154   3.140  0.00  0.00    +0.043 C 
ATOM     15  C   UNL     1     -35.343  23.387   4.481  0.00  0.00    +0.006 C 
ATOM     16  C   UNL     1     -37.276  25.315   3.909  0.00  0.00    +0.168 C 
ATOM     17  C   UNL     1     -35.419  24.549   5.250  0.00  0.00    +0.040 C 
ATOM     18  C   UNL     1     -36.385  25.512   4.963  0.00  0.00    +0.167 C 
BRANCH  16  19
ATOM     19  O   UNL     1     -38.225  26.249   3.619  0.00  0.00    -0.503 OA
ATOM     20  H   UNL     1     -38.982  26.009   3.122  0.00  0.00    +0.292 HD
ENDBRANCH  16  19
BRANCH  18  21
ATOM     21  O   UNL     1     -36.449  26.643   5.721  0.00  0.00    -0.503 OA
ATOM     22  H   UNL     1     -36.101  27.449   5.392  0.00  0.00    +0.292 HD
ENDBRANCH  18  21
ENDBRANCH   9  13
BRANCH   6  23
ATOM     23  O   UNL     1     -39.697  18.994  -1.212  0.00  0.00    -0.468 OA
ATOM     24  C   UNL     1     -39.710  19.452  -2.562  0.00  0.00    +0.253 C 
ENDBRANCH   6  23
BRANCH   8  25
ATOM     25  O   UNL     1     -37.576  17.252  -1.392  0.00  0.00    -0.465 OA
ATOM     26  C   UNL     1     -38.132  16.069  -0.821  0.00  0.00    +0.253 C 
ENDBRANCH   8  25
BRANCH   7  27
ATOM     27  O   UNL     1     -35.293  17.692   0.036  0.00  0.00    -0.503 OA
ATOM     28  H   UNL     1     -35.321  16.879   0.502  0.00  0.00    +0.292 HD
ENDBRANCH   7  27
TORSDOF 6
ENDMDL
MODEL 3
REMARK VINA RESULT:      -6.3      2.935      7.249
REMARK  Name = 54050594
REMARK  6 active torsions:
REMARK  status: ('A' for Active; 'I' for Inactive)
REMARK    1  A    between atoms: C_6  and  O_23
REMARK    2  A    between atoms: C_7  and  O_27
REMARK    3  A    between atoms: C_8  and  O_25
REMARK    4  A    between atoms: C_9  and  C_13
REMARK    5  A    between atoms: C_16  and  O_19
REMARK    6  A    between atoms: C_18  and  O_21
REMARK                            x       y       z     vdW  Elec       q    Type
REMARK                         _______ _______ _______ _____ _____    ______ ____
ROOT
ATOM      1  O   UNL     1     -34.811  26.271   3.361  0.00  0.00    -0.453 OA
ATOM      2  O   UNL     1     -38.178  27.330   1.326  0.00  0.00    -0.286 OA
ATOM      3  C   UNL     1     -34.883  27.496   2.748  0.00  0.00    +0.150 A 
ATOM      4  C   UNL     1     -36.004  27.922   2.038  0.00  0.00    +0.110 A 
ATOM      5  C   UNL     1     -33.770  28.330   2.859  0.00  0.00    +0.050 A 
ATOM      6  C   UNL     1     -33.783  29.588   2.257  0.00  0.00    +0.174 A 
ATOM      7  C   UNL     1     -36.022  29.181   1.434  0.00  0.00    +0.177 A 
ATOM      8  C   UNL     1     -34.907  30.013   1.546  0.00  0.00    +0.206 A 
ATOM      9  C   UNL     1     -35.905  25.424   3.274  0.00  0.00    +0.148 C 
ATOM     10  C   UNL     1     -37.163  27.022   1.936  0.00  0.00    +0.205 C 
ATOM     11  C   UNL     1     -37.037  25.717   2.615  0.00  0.00    +0.080 C 
ATOM     12  C   UNL     1     -32.561  27.882   3.618  0.00  0.00    +0.038 C 
ENDROOT
BRANCH   9  13
ATOM     13  C   UNL     1     -35.719  24.132   3.963  0.00  0.00    +0.038 C 
ATOM     14  C   UNL     1     -35.870  22.937   3.258  0.00  0.00    +0.043 C 
ATOM     15  C   UNL     1     -35.394  24.104   5.320  0.00  0.00    +0.006 C 
ATOM     16  C   UNL     1     -35.695  21.716   3.908  0.00  0.00    +0.168 C 
ATOM     17  C   UNL     1     -35.219  22.882   5.970  0.00  0.00    +0.040 C 
ATOM     18  C   UNL     1     -35.369  21.689   5.264  0.00  0.00    +0.167 C 
BRANCH  16  19
ATOM     19  O   UNL     1     -35.844  20.557   3.208  0.00  0.00    -0.503 OA
ATOM     20  H   UNL     1     -36.237  20.571   2.357  0.00  0.00    +0.292 HD
ENDBRANCH  16  19
BRANCH  18  21
ATOM     21  O   UNL     1     -35.196  20.501   5.910  0.00  0.00    -0.503 OA
ATOM     22  H   UNL     1     -35.867  20.172   6.475  0.00  0.00    +0.292 HD
ENDBRANCH  18  21
ENDBRANCH   9  13
BRANCH   6  23
ATOM     23  O   UNL     1     -32.698  30.410   2.361  0.00  0.00    -0.468 OA
ATOM     24  C   UNL     1     -32.714  31.370   3.414  0.00  0.00    +0.253 C 
ENDBRANCH   6  23
BRANCH   8  25
ATOM     25  O   UNL     1     -34.913  31.245   0.961  0.00  0.00    -0.465 OA
ATOM     26  C   UNL     1     -34.402  31.332  -0.367  0.00  0.00    +0.253 C 
ENDBRANCH   8  25
BRANCH   7  27
ATOM     27  O   UNL     1     -37.101  29.631   0.732  0.00  0.00    -0.503 OA
ATOM     28  H   UNL     1     -37.764  29.029   0.455  0.00  0.00    +0.292 HD
ENDBRANCH   7  27
TORSDOF 6
ENDMDL
MODEL 4
REMARK VINA RESULT:      -6.3      3.183      8.384
REMARK  Name = 54050594
REMARK  6 active torsions:
REMARK  status: ('A' for Active; 'I' for Inactive)
REMARK    1  A    between atoms: C_6  and  O_23
REMARK    2  A    between atoms: C_7  and  O_27
REMARK    3  A    between atoms: C_8  and  O_25
REMARK    4  A    between atoms: C_9  and  C_13
REMARK    5  A    between atoms: C_16  and  O_19
REMARK    6  A    between atoms: C_18  and  O_21
REMARK                            x       y       z     vdW  Elec       q    Type
REMARK                         _______ _______ _______ _____ _____    ______ ____
ROOT
ATOM      1  O   UNL     1     -33.569  26.185   3.568  0.00  0.00    -0.453 OA
ATOM      2  O   UNL     1     -32.898  27.406   7.398  0.00  0.00    -0.286 OA
ATOM      3  C   UNL     1     -32.986  27.405   3.806  0.00  0.00    +0.150 A 
ATOM      4  C   UNL     1     -32.727  27.882   5.089  0.00  0.00    +0.110 A 
ATOM      5  C   UNL     1     -32.650  28.176   2.693  0.00  0.00    +0.050 A 
ATOM      6  C   UNL     1     -32.054  29.426   2.871  0.00  0.00    +0.174 A 
ATOM      7  C   UNL     1     -32.132  29.132   5.272  0.00  0.00    +0.177 A 
ATOM      8  C   UNL     1     -31.796  29.902   4.157  0.00  0.00    +0.206 A 
ATOM      9  C   UNL     1     -33.908  25.393   4.654  0.00  0.00    +0.148 C 
ATOM     10  C   UNL     1     -33.094  27.048   6.244  0.00  0.00    +0.205 C 
ATOM     11  C   UNL     1     -33.715  25.745   5.936  0.00  0.00    +0.080 C 
ATOM     12  C   UNL     1     -32.924  27.674   1.312  0.00  0.00    +0.038 C 
ENDROOT
BRANCH   9  13
ATOM     13  C   UNL     1     -34.532  24.107   4.287  0.00  0.00    +0.038 C 
ATOM     14  C   UNL     1     -34.744  23.131   5.261  0.00  0.00    +0.043 C 
ATOM     15  C   UNL     1     -34.909  23.866   2.965  0.00  0.00    +0.006 C 
ATOM     16  C   UNL     1     -35.333  21.915   4.914  0.00  0.00    +0.168 C 
ATOM     17  C   UNL     1     -35.498  22.650   2.619  0.00  0.00    +0.040 C 
ATOM     18  C   UNL     1     -35.710  21.675   3.593  0.00  0.00    +0.167 C 
BRANCH  16  19
ATOM     19  O   UNL     1     -35.535  20.971   5.876  0.00  0.00    -0.503 OA
ATOM     20  H   UNL     1     -34.817  20.454   6.183  0.00  0.00    +0.292 HD
ENDBRANCH  16  19
BRANCH  18  21
ATOM     21  O   UNL     1     -36.287  20.491   3.243  0.00  0.00    -0.503 OA
ATOM     22  H   UNL     1     -37.051  20.483   2.702  0.00  0.00    +0.292 HD
ENDBRANCH  18  21
ENDBRANCH   9  13
BRANCH   6  23
ATOM     23  O   UNL     1     -31.722  30.187   1.788  0.00  0.00    -0.468 OA
ATOM     24  C   UNL     1     -32.659  31.184   1.388  0.00  0.00    +0.253 C 
ENDBRANCH   6  23
BRANCH   8  25
ATOM     25  O   UNL     1     -31.213  31.124   4.323  0.00  0.00    -0.465 OA
ATOM     26  C   UNL     1     -29.788  31.160   4.372  0.00  0.00    +0.253 C 
ENDBRANCH   8  25
BRANCH   7  27
ATOM     27  O   UNL     1     -31.863  29.632   6.512  0.00  0.00    -0.503 OA
ATOM     28  H   UNL     1     -31.271  29.179   7.080  0.00  0.00    +0.292 HD
ENDBRANCH   7  27
TORSDOF 6
ENDMDL
MODEL 5
REMARK VINA RESULT:      -6.3      3.736      6.041
REMARK  Name = 54050594
REMARK  6 active torsions:
REMARK  status: ('A' for Active; 'I' for Inactive)
REMARK    1  A    between atoms: C_6  and  O_23
REMARK    2  A    between atoms: C_7  and  O_27
REMARK    3  A    between atoms: C_8  and  O_25
REMARK    4  A    between atoms: C_9  and  C_13
REMARK    5  A    between atoms: C_16  and  O_19
REMARK    6  A    between atoms: C_18  and  O_21
REMARK                            x       y       z     vdW  Elec       q    Type
REMARK                         _______ _______ _______ _____ _____    ______ ____
ROOT
ATOM      1  O   UNL     1     -34.969  20.940   1.649  0.00  0.00    -0.453 OA
ATOM      2  O   UNL     1     -38.038  19.046  -0.247  0.00  0.00    -0.286 OA
ATOM      3  C   UNL     1     -36.255  21.391   1.809  0.00  0.00    +0.150 A 
ATOM      4  C   UNL     1     -37.349  20.790   1.192  0.00  0.00    +0.110 A 
ATOM      5  C   UNL     1     -36.441  22.502   2.632  0.00  0.00    +0.050 A 
ATOM      6  C   UNL     1     -37.726  23.008   2.833  0.00  0.00    +0.174 A 
ATOM      7  C   UNL     1     -38.637  21.293   1.390  0.00  0.00    +0.177 A 
ATOM      8  C   UNL     1     -38.821  22.405   2.214  0.00  0.00    +0.206 A 
ATOM      9  C   UNL     1     -34.753  19.833   0.843  0.00  0.00    +0.148 C 
ATOM     10  C   UNL     1     -37.124  19.621   0.328  0.00  0.00    +0.205 C 
ATOM     11  C   UNL     1     -35.723  19.172   0.191  0.00  0.00    +0.080 C 
ATOM     12  C   UNL     1     -35.273  23.156   3.298  0.00  0.00    +0.038 C 
ENDROOT
BRANCH   9  13
ATOM     13  C   UNL     1     -33.335  19.435   0.737  0.00  0.00    +0.038 C 
ATOM     14  C   UNL     1     -32.427  20.264   0.078  0.00  0.00    +0.043 C 
ATOM     15  C   UNL     1     -32.904  18.231   1.293  0.00  0.00    +0.006 C 
ATOM     16  C   UNL     1     -31.087  19.889  -0.023  0.00  0.00    +0.168 C 
ATOM     17  C   UNL     1     -31.564  17.856   1.191  0.00  0.00    +0.040 C 
ATOM     18  C   UNL     1     -30.656  18.685   0.533  0.00  0.00    +0.167 C 
BRANCH  16  19
ATOM     19  O   UNL     1     -30.210  20.708  -0.668  0.00  0.00    -0.503 OA
ATOM     20  H   UNL     1     -30.262  21.636  -0.551  0.00  0.00    +0.292 HD
ENDBRANCH  16  19
BRANCH  18  21
ATOM     21  O   UNL     1     -29.350  18.308   0.440  0.00  0.00    -0.503 OA
ATOM     22  H   UNL     1     -29.089  17.674  -0.197  0.00  0.00    +0.292 HD
ENDBRANCH  18  21
ENDBRANCH   9  13
BRANCH   6  23
ATOM     23  O   UNL     1     -37.917  24.095   3.636  0.00  0.00    -0.468 OA
ATOM     24  C   UNL     1     -37.782  25.377   3.029  0.00  0.00    +0.253 C 
ENDBRANCH   6  23
BRANCH   8  25
ATOM     25  O   UNL     1     -40.075  22.904   2.415  0.00  0.00    -0.465 OA
ATOM     26  C   UNL     1     -40.562  23.836   1.452  0.00  0.00    +0.253 C 
ENDBRANCH   8  25
BRANCH   7  27
ATOM     27  O   UNL     1     -39.732  20.731   0.802  0.00  0.00    -0.503 OA
ATOM     28  H   UNL     1     -40.402  21.278   0.442  0.00  0.00    +0.292 HD
ENDBRANCH   7  27
TORSDOF 6
ENDMDL
MODEL 6
REMARK VINA RESULT:      -6.3      2.754      4.525
REMARK  Name = 54050594
REMARK  6 active torsions:
REMARK  status: ('A' for Active; 'I' for Inactive)
REMARK    1  A    between atoms: C_6  and  O_23
REMARK    2  A    between atoms: C_7  and  O_27
REMARK    3  A    between atoms: C_8  and  O_25
REMARK    4  A    between atoms: C_9  and  C_13
REMARK    5  A    between atoms: C_16  and  O_19
REMARK    6  A    between atoms: C_18  and  O_21
REMARK                            x       y       z     vdW  Elec       q    Type
REMARK                         _______ _______ _______ _____ _____    ______ ____
ROOT
ATOM      1  O   UNL     1     -35.811  21.809   2.383  0.00  0.00    -0.453 OA
ATOM      2  O   UNL     1     -39.748  21.973   1.347  0.00  0.00    -0.286 OA
ATOM      3  C   UNL     1     -36.338  20.860   1.544  0.00  0.00    +0.150 A 
ATOM      4  C   UNL     1     -37.674  20.858   1.148  0.00  0.00    +0.110 A 
ATOM      5  C   UNL     1     -35.472  19.867   1.083  0.00  0.00    +0.050 A 
ATOM      6  C   UNL     1     -35.950  18.875   0.227  0.00  0.00    +0.174 A 
ATOM      7  C   UNL     1     -38.156  19.866   0.291  0.00  0.00    +0.177 A 
ATOM      8  C   UNL     1     -37.288  18.874  -0.168  0.00  0.00    +0.206 A 
ATOM      9  C   UNL     1     -36.645  22.813   2.852  0.00  0.00    +0.148 C 
ATOM     10  C   UNL     1     -38.564  21.916   1.650  0.00  0.00    +0.205 C 
ATOM     11  C   UNL     1     -37.949  22.914   2.548  0.00  0.00    +0.080 C 
ATOM     12  C   UNL     1     -34.037  19.860   1.502  0.00  0.00    +0.038 C 
ENDROOT
BRANCH   9  13
ATOM     13  C   UNL     1     -35.979  23.776   3.750  0.00  0.00    +0.038 C 
ATOM     14  C   UNL     1     -36.092  25.146   3.510  0.00  0.00    +0.043 C 
ATOM     15  C   UNL     1     -35.235  23.318   4.838  0.00  0.00    +0.006 C 
ATOM     16  C   UNL     1     -35.462  26.057   4.358  0.00  0.00    +0.168 C 
ATOM     17  C   UNL     1     -34.606  24.229   5.685  0.00  0.00    +0.040 C 
ATOM     18  C   UNL     1     -34.719  25.598   5.445  0.00  0.00    +0.167 C 
BRANCH  16  19
ATOM     19  O   UNL     1     -35.581  27.391   4.113  0.00  0.00    -0.503 OA
ATOM     20  H   UNL     1     -36.304  27.714   3.612  0.00  0.00    +0.292 HD
ENDBRANCH  16  19
BRANCH  18  21
ATOM     21  O   UNL     1     -34.099  26.479   6.281  0.00  0.00    -0.503 OA
ATOM     22  H   UNL     1     -34.406  27.361   6.343  0.00  0.00    +0.292 HD
ENDBRANCH  18  21
ENDBRANCH   9  13
BRANCH   6  23
ATOM     23  O   UNL     1     -35.110  17.900  -0.228  0.00  0.00    -0.468 OA
ATOM     24  C   UNL     1     -34.493  18.120  -1.495  0.00  0.00    +0.253 C 
ENDBRANCH   6  23
BRANCH   8  25
ATOM     25  O   UNL     1     -37.748  17.901  -1.006  0.00  0.00    -0.465 OA
ATOM     26  C   UNL     1     -38.134  16.664  -0.410  0.00  0.00    +0.253 C 
ENDBRANCH   8  25
BRANCH   7  27
ATOM     27  O   UNL     1     -39.457  19.833  -0.117  0.00  0.00    -0.503 OA
ATOM     28  H   UNL     1     -39.769  20.461  -0.738  0.00  0.00    +0.292 HD
ENDBRANCH   7  27
TORSDOF 6
ENDMDL
MODEL 7
REMARK VINA RESULT:      -6.1      3.483      6.356
REMARK  Name = 54050594
REMARK  6 active torsions:
REMARK  status: ('A' for Active; 'I' for Inactive)
REMARK    1  A    between atoms: C_6  and  O_23
REMARK    2  A    between atoms: C_7  and  O_27
REMARK    3  A    between atoms: C_8  and  O_25
REMARK    4  A    between atoms: C_9  and  C_13
REMARK    5  A    between atoms: C_16  and  O_19
REMARK    6  A    between atoms: C_18  and  O_21
REMARK                            x       y       z     vdW  Elec       q    Type
REMARK                         _______ _______ _______ _____ _____    ______ ____
ROOT
ATOM      1  O   UNL     1     -36.486  21.762   0.993  0.00  0.00    -0.453 OA
ATOM      2  O   UNL     1     -36.170  22.837   4.911  0.00  0.00    -0.286 OA
ATOM      3  C   UNL     1     -37.131  22.884   1.450  0.00  0.00    +0.150 A 
ATOM      4  C   UNL     1     -37.064  23.308   2.774  0.00  0.00    +0.110 A 
ATOM      5  C   UNL     1     -37.879  23.609   0.521  0.00  0.00    +0.050 A 
ATOM      6  C   UNL     1     -38.559  24.758   0.925  0.00  0.00    +0.174 A 
ATOM      7  C   UNL     1     -37.743  24.459   3.184  0.00  0.00    +0.177 A 
ATOM      8  C   UNL     1     -38.491  25.182   2.253  0.00  0.00    +0.206 A 
ATOM      9  C   UNL     1     -35.729  21.025   1.891  0.00  0.00    +0.148 C 
ATOM     10  C   UNL     1     -36.270  22.524   3.732  0.00  0.00    +0.205 C 
ATOM     11  C   UNL     1     -35.592  21.329   3.192  0.00  0.00    +0.080 C 
ATOM     12  C   UNL     1     -37.959  23.160  -0.903  0.00  0.00    +0.038 C 
ENDROOT
BRANCH   9  13
ATOM     13  C   UNL     1     -35.082  19.838   1.297  0.00  0.00    +0.038 C 
ATOM     14  C   UNL     1     -33.841  19.411   1.771  0.00  0.00    +0.043 C 
ATOM     15  C   UNL     1     -35.710  19.145   0.262  0.00  0.00    +0.006 C 
ATOM     16  C   UNL     1     -33.230  18.289   1.211  0.00  0.00    +0.168 C 
ATOM     17  C   UNL     1     -35.098  18.024  -0.298  0.00  0.00    +0.040 C 
ATOM     18  C   UNL     1     -33.858  17.596   0.176  0.00  0.00    +0.167 C 
BRANCH  16  19
ATOM     19  O   UNL     1     -32.019  17.881   1.683  0.00  0.00    -0.503 OA
ATOM     20  H   UNL     1     -31.296  17.780   1.095  0.00  0.00    +0.292 HD
ENDBRANCH  16  19
BRANCH  18  21
ATOM     21  O   UNL     1     -33.270  16.499  -0.379  0.00  0.00    -0.503 OA
ATOM     22  H   UNL     1     -33.783  15.741  -0.577  0.00  0.00    +0.292 HD
ENDBRANCH  18  21
ENDBRANCH   9  13
BRANCH   6  23
ATOM     23  O   UNL     1     -39.293  25.473   0.024  0.00  0.00    -0.468 OA
ATOM     24  C   UNL     1     -38.647  26.581  -0.600  0.00  0.00    +0.253 C 
ENDBRANCH   6  23
BRANCH   8  25
ATOM     25  O   UNL     1     -39.157  26.308   2.641  0.00  0.00    -0.465 OA
ATOM     26  C   UNL     1     -40.523  26.152   3.018  0.00  0.00    +0.253 C 
ENDBRANCH   8  25
BRANCH   7  27
ATOM     27  O   UNL     1     -37.700  24.905   4.471  0.00  0.00    -0.503 OA
ATOM     28  H   UNL     1     -37.559  24.298   5.172  0.00  0.00    +0.292 HD
ENDBRANCH   7  27
TORSDOF 6
ENDMDL
MODEL 8
REMARK VINA RESULT:      -6.1      3.259      6.247
REMARK  Name = 54050594
REMARK  6 active torsions:
REMARK  status: ('A' for Active; 'I' for Inactive)
REMARK    1  A    between atoms: C_6  and  O_23
REMARK    2  A    between atoms: C_7  and  O_27
REMARK    3  A    between atoms: C_8  and  O_25
REMARK    4  A    between atoms: C_9  and  C_13
REMARK    5  A    between atoms: C_16  and  O_19
REMARK    6  A    between atoms: C_18  and  O_21
REMARK                            x       y       z     vdW  Elec       q    Type
REMARK                         _______ _______ _______ _____ _____    ______ ____
ROOT
ATOM      1  O   UNL     1     -36.308  25.773   2.613  0.00  0.00    -0.453 OA
ATOM      2  O   UNL     1     -33.797  28.798   3.683  0.00  0.00    -0.286 OA
ATOM      3  C   UNL     1     -36.391  26.988   1.980  0.00  0.00    +0.150 A 
ATOM      4  C   UNL     1     -35.563  28.063   2.296  0.00  0.00    +0.110 A 
ATOM      5  C   UNL     1     -37.357  27.121   0.982  0.00  0.00    +0.050 A 
ATOM      6  C   UNL     1     -37.490  28.333   0.303  0.00  0.00    +0.174 A 
ATOM      7  C   UNL     1     -35.692  29.278   1.619  0.00  0.00    +0.177 A 
ATOM      8  C   UNL     1     -36.660  29.408   0.620  0.00  0.00    +0.206 A 
ATOM      9  C   UNL     1     -35.353  25.609   3.604  0.00  0.00    +0.148 C 
ATOM     10  C   UNL     1     -34.554  27.896   3.353  0.00  0.00    +0.205 C 
ATOM     11  C   UNL     1     -34.503  26.570   4.001  0.00  0.00    +0.080 C 
ATOM     12  C   UNL     1     -38.252  25.974   0.637  0.00  0.00    +0.038 C 
ENDROOT
BRANCH   9  13
ATOM     13  C   UNL     1     -35.353  24.268   4.221  0.00  0.00    +0.038 C 
ATOM     14  C   UNL     1     -35.564  23.137   3.431  0.00  0.00    +0.043 C 
ATOM     15  C   UNL     1     -35.144  24.131   5.594  0.00  0.00    +0.006 C 
ATOM     16  C   UNL     1     -35.564  21.870   4.014  0.00  0.00    +0.168 C 
ATOM     17  C   UNL     1     -35.146  22.863   6.176  0.00  0.00    +0.040 C 
ATOM     18  C   UNL     1     -35.355  21.734   5.386  0.00  0.00    +0.167 C 
BRANCH  16  19
ATOM     19  O   UNL     1     -35.770  20.774   3.231  0.00  0.00    -0.503 OA
ATOM     20  H   UNL     1     -35.874  19.930   3.625  0.00  0.00    +0.292 HD
ENDBRANCH  16  19
BRANCH  18  21
ATOM     21  O   UNL     1     -35.354  20.500   5.966  0.00  0.00    -0.503 OA
ATOM     22  H   UNL     1     -35.137  20.408   6.873  0.00  0.00    +0.292 HD
ENDBRANCH  18  21
ENDBRANCH   9  13
BRANCH   6  23
ATOM     23  O   UNL     1     -38.432  28.471  -0.674  0.00  0.00    -0.468 OA
ATOM     24  C   UNL     1     -38.004  28.258  -2.017  0.00  0.00    +0.253 C 
ENDBRANCH   6  23
BRANCH   8  25
ATOM     25  O   UNL     1     -36.795  30.590  -0.048  0.00  0.00    -0.465 OA
ATOM     26  C   UNL     1     -37.719  31.534   0.488  0.00  0.00    +0.253 C 
ENDBRANCH   8  25
BRANCH   7  27
ATOM     27  O   UNL     1     -34.900  30.351   1.900  0.00  0.00    -0.503 OA
ATOM     28  H   UNL     1     -33.967  30.268   1.857  0.00  0.00    +0.292 HD
ENDBRANCH   7  27
TORSDOF 6
ENDMDL
MODEL 9
REMARK VINA RESULT:      -5.9      1.837      2.179
REMARK  Name = 54050594
REMARK  6 active torsions:
REMARK  status: ('A' for Active; 'I' for Inactive)
REMARK    1  A    between atoms: C_6  and  O_23
REMARK    2  A    between atoms: C_7  and  O_27
REMARK    3  A    between atoms: C_8  and  O_25
REMARK    4  A    between atoms: C_9  and  C_13
REMARK    5  A    between atoms: C_16  and  O_19
REMARK    6  A    between atoms: C_18  and  O_21
REMARK                            x       y       z     vdW  Elec       q    Type
REMARK                         _______ _______ _______ _____ _____    ______ ____
ROOT
ATOM      1  O   UNL     1     -35.472  26.304   3.556  0.00  0.00    -0.453 OA
ATOM      2  O   UNL     1     -36.249  22.501   4.798  0.00  0.00    -0.286 OA
ATOM      3  C   UNL     1     -36.452  25.569   2.938  0.00  0.00    +0.150 A 
ATOM      4  C   UNL     1     -36.770  24.265   3.313  0.00  0.00    +0.110 A 
ATOM      5  C   UNL     1     -37.143  26.182   1.892  0.00  0.00    +0.050 A 
ATOM      6  C   UNL     1     -38.150  25.484   1.224  0.00  0.00    +0.174 A 
ATOM      7  C   UNL     1     -37.778  23.563   2.648  0.00  0.00    +0.177 A 
ATOM      8  C   UNL     1     -38.467  24.179   1.601  0.00  0.00    +0.206 A 
ATOM      9  C   UNL     1     -34.774  25.724   4.604  0.00  0.00    +0.148 C 
ATOM     10  C   UNL     1     -36.025  23.643   4.419  0.00  0.00    +0.205 C 
ATOM     11  C   UNL     1     -34.983  24.476   5.053  0.00  0.00    +0.080 C 
ATOM     12  C   UNL     1     -36.809  27.580   1.481  0.00  0.00    +0.038 C 
ENDROOT
BRANCH   9  13
ATOM     13  C   UNL     1     -33.741  26.599   5.193  0.00  0.00    +0.038 C 
ATOM     14  C   UNL     1     -33.050  27.503   4.386  0.00  0.00    +0.043 C 
ATOM     15  C   UNL     1     -33.454  26.520   6.556  0.00  0.00    +0.006 C 
ATOM     16  C   UNL     1     -32.074  28.330   4.943  0.00  0.00    +0.168 C 
ATOM     17  C   UNL     1     -32.477  27.347   7.112  0.00  0.00    +0.040 C 
ATOM     18  C   UNL     1     -31.788  28.251   6.305  0.00  0.00    +0.167 C 
BRANCH  16  19
ATOM     19  O   UNL     1     -31.408  29.209   4.144  0.00  0.00    -0.503 OA
ATOM     20  H   UNL     1     -30.515  29.047   3.910  0.00  0.00    +0.292 HD
ENDBRANCH  16  19
BRANCH  18  21
ATOM     21  O   UNL     1     -30.836  29.054   6.859  0.00  0.00    -0.503 OA
ATOM     22  H   UNL     1     -30.358  28.764   7.611  0.00  0.00    +0.292 HD
ENDBRANCH  18  21
ENDBRANCH   9  13
BRANCH   6  23
ATOM     23  O   UNL     1     -38.830  26.077   0.200  0.00  0.00    -0.468 OA
ATOM     24  C   UNL     1     -40.053  26.731   0.531  0.00  0.00    +0.253 C 
ENDBRANCH   6  23
BRANCH   8  25
ATOM     25  O   UNL     1     -39.454  23.504   0.944  0.00  0.00    -0.465 OA
ATOM     26  C   UNL     1     -39.077  22.791  -0.232  0.00  0.00    +0.253 C 
ENDBRANCH   8  25
BRANCH   7  27
ATOM     27  O   UNL     1     -38.116  22.287   2.987  0.00  0.00    -0.503 OA
ATOM     28  H   UNL     1     -38.632  22.127   3.753  0.00  0.00    +0.292 HD
ENDBRANCH   7  27
TORSDOF 6
ENDMDL
