MODEL 1
REMARK VINA RESULT:      -6.9      0.000      0.000
REMARK  Name = 54750414
REMARK  4 active torsions:
REMARK  status: ('A' for Active; 'I' for Inactive)
REMARK    1  A    between atoms: C_7  and  C_18
REMARK    2  A    between atoms: C_8  and  O_27
REMARK    3  A    between atoms: C_20  and  C_24
REMARK    4  A    between atoms: C_24  and  O_25
REMARK                            x       y       z     vdW  Elec       q    Type
REMARK                         _______ _______ _______ _____ _____    ______ ____
ROOT
ATOM      1  S   UNL     1     -36.485  23.124   2.088  0.00  0.00    +0.077 S 
ATOM      2  O   UNL     1     -37.934  23.156   2.131  0.00  0.00    -0.150 OA
ATOM      3  O   UNL     1     -35.780  22.176   1.245  0.00  0.00    -0.150 OA
ATOM      4  N   UNL     1     -35.870  24.712   1.800  0.00  0.00    -0.181 N 
ATOM      5  C   UNL     1     -35.950  22.881   3.744  0.00  0.00    +0.128 C 
ATOM      6  C   UNL     1     -35.908  24.003   4.580  0.00  0.00    +0.054 C 
ATOM      7  C   UNL     1     -36.300  25.679   2.780  0.00  0.00    +0.156 C 
ATOM      8  C   UNL     1     -36.315  25.341   4.085  0.00  0.00    +0.154 C 
ATOM      9  C   UNL     1     -35.570  21.610   4.170  0.00  0.00    +0.020 C 
ATOM     10  C   UNL     1     -34.432  24.815   1.413  0.00  0.00    +0.139 C 
ATOM     11  C   UNL     1     -35.477  23.805   5.900  0.00  0.00    +0.004 C 
ATOM     12  C   UNL     1     -35.142  21.441   5.483  0.00  0.00    +0.001 C 
ATOM     13  C   UNL     1     -35.097  22.535   6.346  0.00  0.00    +0.000 C 
ENDROOT
BRANCH   7  18
ATOM     14  S   UNL     1     -34.241  30.192   2.636  0.00  0.00    -0.045 S 
ATOM     15  O   UNL     1     -37.691  27.165   1.645  0.00  0.00    -0.268 OA
ATOM     16  N   UNL     1     -35.641  27.935   2.513  0.00  0.00    -0.259 N 
ATOM     17  N   UNL     1     -36.545  29.969   1.485  0.00  0.00    -0.222 NA
ATOM     18  C   UNL     1     -36.632  27.002   2.246  0.00  0.00    +0.269 C 
ATOM     19  C   UNL     1     -35.626  29.304   2.149  0.00  0.00    +0.166 C 
ATOM     20  C   UNL     1     -34.911  31.590   1.902  0.00  0.00    +0.127 C 
ATOM     21  C   UNL     1     -36.134  31.280   1.344  0.00  0.00    +0.114 C 
ATOM     22  H   UNL     1     -34.859  27.608   3.013  0.00  0.00    +0.157 HD
BRANCH  20  24
ATOM     23  O   UNL     1     -34.587  33.918   1.455  0.00  0.00    -0.244 OA
ATOM     24  C   UNL     1     -34.204  32.826   1.936  0.00  0.00    +0.346 C 
BRANCH  24  25
ATOM     25  O   UNL     1     -32.990  32.750   2.573  0.00  0.00    -0.477 OA
ATOM     26  H   UNL     1     -32.759  31.977   3.050  0.00  0.00    +0.295 HD
ENDBRANCH  24  25
ENDBRANCH  20  24
ENDBRANCH   7  18
BRANCH   8  27
ATOM     27  O   UNL     1     -36.692  26.206   5.095  0.00  0.00    -0.504 OA
ATOM     28  H   UNL     1     -36.843  27.111   4.905  0.00  0.00    +0.292 HD
ENDBRANCH   8  27
TORSDOF 4
ENDMDL
MODEL 2
REMARK VINA RESULT:      -6.4      3.829      7.725
REMARK  Name = 54750414
REMARK  4 active torsions:
REMARK  status: ('A' for Active; 'I' for Inactive)
REMARK    1  A    between atoms: C_7  and  C_18
REMARK    2  A    between atoms: C_8  and  O_27
REMARK    3  A    between atoms: C_20  and  C_24
REMARK    4  A    between atoms: C_24  and  O_25
REMARK                            x       y       z     vdW  Elec       q    Type
REMARK                         _______ _______ _______ _____ _____    ______ ____
ROOT
ATOM      1  S   UNL     1     -31.712  27.696   2.730  0.00  0.00    +0.077 S 
ATOM      2  O   UNL     1     -31.163  26.355   2.801  0.00  0.00    -0.150 OA
ATOM      3  O   UNL     1     -31.447  28.555   1.591  0.00  0.00    -0.150 OA
ATOM      4  N   UNL     1     -33.411  27.652   3.030  0.00  0.00    -0.181 N 
ATOM      5  C   UNL     1     -31.163  28.528   4.177  0.00  0.00    +0.128 C 
ATOM      6  C   UNL     1     -31.869  28.293   5.363  0.00  0.00    +0.054 C 
ATOM      7  C   UNL     1     -33.753  27.060   4.301  0.00  0.00    +0.156 C 
ATOM      8  C   UNL     1     -33.025  27.366   5.393  0.00  0.00    +0.154 C 
ATOM      9  C   UNL     1     -30.075  29.396   4.107  0.00  0.00    +0.020 C 
ATOM     10  C   UNL     1     -34.185  28.882   2.688  0.00  0.00    +0.139 C 
ATOM     11  C   UNL     1     -31.429  28.962   6.515  0.00  0.00    +0.004 C 
ATOM     12  C   UNL     1     -29.662  30.050   5.263  0.00  0.00    +0.001 C 
ATOM     13  C   UNL     1     -30.336  29.833   6.464  0.00  0.00    +0.000 C 
ENDROOT
BRANCH   7  18
ATOM     14  S   UNL     1     -35.173  22.810   2.168  0.00  0.00    -0.045 S 
ATOM     15  O   UNL     1     -35.923  26.516   4.952  0.00  0.00    -0.268 OA
ATOM     16  N   UNL     1     -34.768  25.088   3.477  0.00  0.00    -0.259 N 
ATOM     17  N   UNL     1     -36.916  23.930   3.715  0.00  0.00    -0.222 NA
ATOM     18  C   UNL     1     -34.940  26.201   4.288  0.00  0.00    +0.269 C 
ATOM     19  C   UNL     1     -35.700  24.051   3.229  0.00  0.00    +0.166 C 
ATOM     20  C   UNL     1     -36.689  22.033   2.364  0.00  0.00    +0.127 C 
ATOM     21  C   UNL     1     -37.482  22.773   3.217  0.00  0.00    +0.114 C 
ATOM     22  H   UNL     1     -33.899  25.012   3.023  0.00  0.00    +0.157 HD
BRANCH  20  24
ATOM     23  O   UNL     1     -37.321  20.680   0.495  0.00  0.00    -0.244 OA
ATOM     24  C   UNL     1     -36.961  20.809   1.688  0.00  0.00    +0.346 C 
BRANCH  24  25
ATOM     25  O   UNL     1     -36.794  19.696   2.475  0.00  0.00    -0.477 OA
ATOM     26  H   UNL     1     -37.394  18.979   2.405  0.00  0.00    +0.295 HD
ENDBRANCH  24  25
ENDBRANCH  20  24
ENDBRANCH   7  18
BRANCH   8  27
ATOM     27  O   UNL     1     -33.291  26.863   6.654  0.00  0.00    -0.504 OA
ATOM     28  H   UNL     1     -33.818  27.353   7.253  0.00  0.00    +0.292 HD
ENDBRANCH   8  27
TORSDOF 4
ENDMDL
MODEL 3
REMARK VINA RESULT:      -6.4      2.674      8.318
REMARK  Name = 54750414
REMARK  4 active torsions:
REMARK  status: ('A' for Active; 'I' for Inactive)
REMARK    1  A    between atoms: C_7  and  C_18
REMARK    2  A    between atoms: C_8  and  O_27
REMARK    3  A    between atoms: C_20  and  C_24
REMARK    4  A    between atoms: C_24  and  O_25
REMARK                            x       y       z     vdW  Elec       q    Type
REMARK                         _______ _______ _______ _____ _____    ______ ____
ROOT
ATOM      1  S   UNL     1     -31.927  29.805   4.178  0.00  0.00    +0.077 S 
ATOM      2  O   UNL     1     -32.590  29.763   5.467  0.00  0.00    -0.150 OA
ATOM      3  O   UNL     1     -30.492  29.621   4.067  0.00  0.00    -0.150 OA
ATOM      4  N   UNL     1     -32.727  28.750   3.070  0.00  0.00    -0.181 N 
ATOM      5  C   UNL     1     -32.331  31.361   3.469  0.00  0.00    +0.128 C 
ATOM      6  C   UNL     1     -33.577  31.481   2.840  0.00  0.00    +0.054 C 
ATOM      7  C   UNL     1     -34.127  29.053   2.900  0.00  0.00    +0.156 C 
ATOM      8  C   UNL     1     -34.520  30.338   2.791  0.00  0.00    +0.154 C 
ATOM      9  C   UNL     1     -31.416  32.410   3.531  0.00  0.00    +0.020 C 
ATOM     10  C   UNL     1     -32.000  28.428   1.807  0.00  0.00    +0.139 C 
ATOM     11  C   UNL     1     -33.894  32.723   2.273  0.00  0.00    +0.004 C 
ATOM     12  C   UNL     1     -31.753  33.631   2.956  0.00  0.00    +0.001 C 
ATOM     13  C   UNL     1     -32.988  33.788   2.330  0.00  0.00    +0.000 C 
ENDROOT
BRANCH   7  18
ATOM     14  S   UNL     1     -34.401  24.488   4.826  0.00  0.00    -0.045 S 
ATOM     15  O   UNL     1     -35.987  27.931   2.056  0.00  0.00    -0.268 OA
ATOM     16  N   UNL     1     -34.582  26.839   3.599  0.00  0.00    -0.259 N 
ATOM     17  N   UNL     1     -36.272  25.119   3.157  0.00  0.00    -0.222 NA
ATOM     18  C   UNL     1     -35.008  27.887   2.796  0.00  0.00    +0.269 C 
ATOM     19  C   UNL     1     -35.186  25.567   3.747  0.00  0.00    +0.166 C 
ATOM     20  C   UNL     1     -35.607  23.315   4.490  0.00  0.00    +0.127 C 
ATOM     21  C   UNL     1     -36.512  23.827   3.584  0.00  0.00    +0.114 C 
ATOM     22  H   UNL     1     -33.765  26.998   4.124  0.00  0.00    +0.157 HD
BRANCH  20  24
ATOM     23  O   UNL     1     -35.161  20.967   4.608  0.00  0.00    -0.244 OA
ATOM     24  C   UNL     1     -35.561  22.038   5.120  0.00  0.00    +0.346 C 
BRANCH  24  25
ATOM     25  O   UNL     1     -36.014  22.047   6.417  0.00  0.00    -0.477 OA
ATOM     26  H   UNL     1     -35.667  22.667   7.029  0.00  0.00    +0.295 HD
ENDBRANCH  24  25
ENDBRANCH  20  24
ENDBRANCH   7  18
BRANCH   8  27
ATOM     27  O   UNL     1     -35.835  30.721   2.606  0.00  0.00    -0.504 OA
ATOM     28  H   UNL     1     -36.531  30.148   2.859  0.00  0.00    +0.292 HD
ENDBRANCH   8  27
TORSDOF 4
ENDMDL
MODEL 4
REMARK VINA RESULT:      -6.3      3.187      4.194
REMARK  Name = 54750414
REMARK  4 active torsions:
REMARK  status: ('A' for Active; 'I' for Inactive)
REMARK    1  A    between atoms: C_7  and  C_18
REMARK    2  A    between atoms: C_8  and  O_27
REMARK    3  A    between atoms: C_20  and  C_24
REMARK    4  A    between atoms: C_24  and  O_25
REMARK                            x       y       z     vdW  Elec       q    Type
REMARK                         _______ _______ _______ _____ _____    ______ ____
ROOT
ATOM      1  S   UNL     1     -35.560  22.349   3.012  0.00  0.00    +0.077 S 
ATOM      2  O   UNL     1     -34.828  22.981   1.932  0.00  0.00    -0.150 OA
ATOM      3  O   UNL     1     -35.452  20.923   3.257  0.00  0.00    -0.150 OA
ATOM      4  N   UNL     1     -35.289  23.205   4.487  0.00  0.00    -0.181 N 
ATOM      5  C   UNL     1     -37.255  22.726   2.743  0.00  0.00    +0.128 C 
ATOM      6  C   UNL     1     -37.711  23.983   3.160  0.00  0.00    +0.054 C 
ATOM      7  C   UNL     1     -35.650  24.599   4.414  0.00  0.00    +0.156 C 
ATOM      8  C   UNL     1     -36.789  24.959   3.790  0.00  0.00    +0.154 C 
ATOM      9  C   UNL     1     -38.091  21.781   2.152  0.00  0.00    +0.020 C 
ATOM     10  C   UNL     1     -35.702  22.518   5.746  0.00  0.00    +0.139 C 
ATOM     11  C   UNL     1     -39.064  24.279   2.946  0.00  0.00    +0.004 C 
ATOM     12  C   UNL     1     -39.431  22.098   1.955  0.00  0.00    +0.001 C 
ATOM     13  C   UNL     1     -39.916  23.343   2.349  0.00  0.00    +0.000 C 
ENDROOT
BRANCH   7  18
ATOM     14  S   UNL     1     -32.337  28.086   3.190  0.00  0.00    -0.045 S 
ATOM     15  O   UNL     1     -34.691  25.511   6.333  0.00  0.00    -0.268 OA
ATOM     16  N   UNL     1     -34.018  26.301   4.218  0.00  0.00    -0.259 N 
ATOM     17  N   UNL     1     -32.642  27.662   5.723  0.00  0.00    -0.222 NA
ATOM     18  C   UNL     1     -34.739  25.515   5.106  0.00  0.00    +0.269 C 
ATOM     19  C   UNL     1     -33.052  27.288   4.531  0.00  0.00    +0.166 C 
ATOM     20  C   UNL     1     -31.396  29.018   4.279  0.00  0.00    +0.127 C 
ATOM     21  C   UNL     1     -31.692  28.654   5.577  0.00  0.00    +0.114 C 
ATOM     22  H   UNL     1     -34.198  26.154   3.262  0.00  0.00    +0.157 HD
BRANCH  20  24
ATOM     23  O   UNL     1     -29.735  29.874   2.784  0.00  0.00    -0.244 OA
ATOM     24  C   UNL     1     -30.480  29.991   3.785  0.00  0.00    +0.346 C 
BRANCH  24  25
ATOM     25  O   UNL     1     -30.457  31.150   4.521  0.00  0.00    -0.477 OA
ATOM     26  H   UNL     1     -29.673  31.408   4.964  0.00  0.00    +0.295 HD
ENDBRANCH  24  25
ENDBRANCH  20  24
ENDBRANCH   7  18
BRANCH   8  27
ATOM     27  O   UNL     1     -37.225  26.267   3.689  0.00  0.00    -0.504 OA
ATOM     28  H   UNL     1     -38.064  26.455   3.317  0.00  0.00    +0.292 HD
ENDBRANCH   8  27
TORSDOF 4
ENDMDL
MODEL 5
REMARK VINA RESULT:      -6.3      5.148      9.976
REMARK  Name = 54750414
REMARK  4 active torsions:
REMARK  status: ('A' for Active; 'I' for Inactive)
REMARK    1  A    between atoms: C_7  and  C_18
REMARK    2  A    between atoms: C_8  and  O_27
REMARK    3  A    between atoms: C_20  and  C_24
REMARK    4  A    between atoms: C_24  and  O_25
REMARK                            x       y       z     vdW  Elec       q    Type
REMARK                         _______ _______ _______ _____ _____    ______ ____
ROOT
ATOM      1  S   UNL     1     -36.750  23.795   2.316  0.00  0.00    +0.077 S 
ATOM      2  O   UNL     1     -35.638  24.136   1.449  0.00  0.00    -0.150 OA
ATOM      3  O   UNL     1     -37.684  24.808   2.770  0.00  0.00    -0.150 OA
ATOM      4  N   UNL     1     -37.628  22.465   1.651  0.00  0.00    -0.181 N 
ATOM      5  C   UNL     1     -36.050  23.028   3.733  0.00  0.00    +0.128 C 
ATOM      6  C   UNL     1     -35.706  21.674   3.630  0.00  0.00    +0.054 C 
ATOM      7  C   UNL     1     -36.814  21.294   1.433  0.00  0.00    +0.156 C 
ATOM      8  C   UNL     1     -35.913  20.927   2.366  0.00  0.00    +0.154 C 
ATOM      9  C   UNL     1     -35.876  23.762   4.904  0.00  0.00    +0.020 C 
ATOM     10  C   UNL     1     -38.972  22.188   2.238  0.00  0.00    +0.139 C 
ATOM     11  C   UNL     1     -35.151  21.065   4.765  0.00  0.00    +0.004 C 
ATOM     12  C   UNL     1     -35.328  23.132   6.017  0.00  0.00    +0.001 C 
ATOM     13  C   UNL     1     -34.965  21.788   5.947  0.00  0.00    +0.000 C 
ENDROOT
BRANCH   7  18
ATOM     14  S   UNL     1     -37.473  16.573   0.054  0.00  0.00    -0.045 S 
ATOM     15  O   UNL     1     -37.238  21.173  -0.855  0.00  0.00    -0.268 OA
ATOM     16  N   UNL     1     -37.181  19.190   0.415  0.00  0.00    -0.259 N 
ATOM     17  N   UNL     1     -37.661  18.332  -1.831  0.00  0.00    -0.222 NA
ATOM     18  C   UNL     1     -37.101  20.558   0.199  0.00  0.00    +0.269 C 
ATOM     19  C   UNL     1     -37.442  18.181  -0.543  0.00  0.00    +0.166 C 
ATOM     20  C   UNL     1     -37.810  16.016  -1.533  0.00  0.00    +0.127 C 
ATOM     21  C   UNL     1     -37.872  17.090  -2.397  0.00  0.00    +0.114 C 
ATOM     22  H   UNL     1     -37.040  18.888   1.340  0.00  0.00    +0.157 HD
BRANCH  20  24
ATOM     23  O   UNL     1     -38.984  14.072  -2.288  0.00  0.00    -0.244 OA
ATOM     24  C   UNL     1     -37.977  14.624  -1.785  0.00  0.00    +0.346 C 
BRANCH  24  25
ATOM     25  O   UNL     1     -36.893  13.864  -1.419  0.00  0.00    -0.477 OA
ATOM     26  H   UNL     1     -37.022  13.051  -0.971  0.00  0.00    +0.295 HD
ENDBRANCH  24  25
ENDBRANCH  20  24
ENDBRANCH   7  18
BRANCH   8  27
ATOM     27  O   UNL     1     -35.106  19.811   2.252  0.00  0.00    -0.504 OA
ATOM     28  H   UNL     1     -35.479  18.982   2.026  0.00  0.00    +0.292 HD
ENDBRANCH   8  27
TORSDOF 4
ENDMDL
MODEL 6
REMARK VINA RESULT:      -6.1      4.623      5.115
REMARK  Name = 54750414
REMARK  4 active torsions:
REMARK  status: ('A' for Active; 'I' for Inactive)
REMARK    1  A    between atoms: C_7  and  C_18
REMARK    2  A    between atoms: C_8  and  O_27
REMARK    3  A    between atoms: C_20  and  C_24
REMARK    4  A    between atoms: C_24  and  O_25
REMARK                            x       y       z     vdW  Elec       q    Type
REMARK                         _______ _______ _______ _____ _____    ______ ____
ROOT
ATOM      1  S   UNL     1     -35.257  25.875   2.278  0.00  0.00    +0.077 S 
ATOM      2  O   UNL     1     -36.308  26.807   2.639  0.00  0.00    -0.150 OA
ATOM      3  O   UNL     1     -35.208  25.276   0.958  0.00  0.00    -0.150 OA
ATOM      4  N   UNL     1     -33.715  26.552   2.657  0.00  0.00    -0.181 N 
ATOM      5  C   UNL     1     -35.324  24.578   3.461  0.00  0.00    +0.128 C 
ATOM      6  C   UNL     1     -34.711  24.801   4.700  0.00  0.00    +0.054 C 
ATOM      7  C   UNL     1     -33.575  26.918   4.045  0.00  0.00    +0.156 C 
ATOM      8  C   UNL     1     -34.044  26.091   5.001  0.00  0.00    +0.154 C 
ATOM      9  C   UNL     1     -35.955  23.377   3.139  0.00  0.00    +0.020 C 
ATOM     10  C   UNL     1     -32.522  25.875   2.068  0.00  0.00    +0.139 C 
ATOM     11  C   UNL     1     -34.764  23.761   5.639  0.00  0.00    +0.004 C 
ATOM     12  C   UNL     1     -35.990  22.360   4.087  0.00  0.00    +0.001 C 
ATOM     13  C   UNL     1     -35.397  22.552   5.335  0.00  0.00    +0.000 C 
ENDROOT
BRANCH   7  18
ATOM     14  S   UNL     1     -29.456  28.376   6.397  0.00  0.00    -0.045 S 
ATOM     15  O   UNL     1     -33.299  29.222   3.835  0.00  0.00    -0.268 OA
ATOM     16  N   UNL     1     -31.709  27.974   5.044  0.00  0.00    -0.259 N 
ATOM     17  N   UNL     1     -30.809  30.246   5.233  0.00  0.00    -0.222 NA
ATOM     18  C   UNL     1     -32.856  28.171   4.289  0.00  0.00    +0.269 C 
ATOM     19  C   UNL     1     -30.778  28.953   5.467  0.00  0.00    +0.166 C 
ATOM     20  C   UNL     1     -28.861  29.981   6.502  0.00  0.00    +0.127 C 
ATOM     21  C   UNL     1     -29.709  30.835   5.827  0.00  0.00    +0.114 C 
ATOM     22  H   UNL     1     -31.522  27.047   5.317  0.00  0.00    +0.157 HD
BRANCH  20  24
ATOM     23  O   UNL     1     -26.938  31.275   7.096  0.00  0.00    -0.244 OA
ATOM     24  C   UNL     1     -27.658  30.256   7.213  0.00  0.00    +0.346 C 
BRANCH  24  25
ATOM     25  O   UNL     1     -27.304  29.268   8.100  0.00  0.00    -0.477 OA
ATOM     26  H   UNL     1     -26.408  29.164   8.352  0.00  0.00    +0.295 HD
ENDBRANCH  24  25
ENDBRANCH  20  24
ENDBRANCH   7  18
BRANCH   8  27
ATOM     27  O   UNL     1     -33.937  26.349   6.354  0.00  0.00    -0.504 OA
ATOM     28  H   UNL     1     -34.404  25.820   6.971  0.00  0.00    +0.292 HD
ENDBRANCH   8  27
TORSDOF 4
ENDMDL
MODEL 7
REMARK VINA RESULT:      -6.1      2.100      2.521
REMARK  Name = 54750414
REMARK  4 active torsions:
REMARK  status: ('A' for Active; 'I' for Inactive)
REMARK    1  A    between atoms: C_7  and  C_18
REMARK    2  A    between atoms: C_8  and  O_27
REMARK    3  A    between atoms: C_20  and  C_24
REMARK    4  A    between atoms: C_24  and  O_25
REMARK                            x       y       z     vdW  Elec       q    Type
REMARK                         _______ _______ _______ _____ _____    ______ ____
ROOT
ATOM      1  S   UNL     1     -35.926  23.947   2.020  0.00  0.00    +0.077 S 
ATOM      2  O   UNL     1     -37.339  24.268   1.961  0.00  0.00    -0.150 OA
ATOM      3  O   UNL     1     -35.325  23.030   1.069  0.00  0.00    -0.150 OA
ATOM      4  N   UNL     1     -34.995  25.400   2.081  0.00  0.00    -0.181 N 
ATOM      5  C   UNL     1     -35.632  23.323   3.636  0.00  0.00    +0.128 C 
ATOM      6  C   UNL     1     -35.470  24.255   4.668  0.00  0.00    +0.054 C 
ATOM      7  C   UNL     1     -35.339  26.255   3.190  0.00  0.00    +0.156 C 
ATOM      8  C   UNL     1     -35.561  25.711   4.404  0.00  0.00    +0.154 C 
ATOM      9  C   UNL     1     -35.548  21.948   3.844  0.00  0.00    +0.020 C 
ATOM     10  C   UNL     1     -33.530  25.268   1.826  0.00  0.00    +0.139 C 
ATOM     11  C   UNL     1     -35.232  23.753   5.956  0.00  0.00    +0.004 C 
ATOM     12  C   UNL     1     -35.307  21.475   5.129  0.00  0.00    +0.001 C 
ATOM     13  C   UNL     1     -35.151  22.375   6.183  0.00  0.00    +0.000 C 
ENDROOT
BRANCH   7  18
ATOM     14  S   UNL     1     -37.512  29.286  -0.083  0.00  0.00    -0.045 S 
ATOM     15  O   UNL     1     -34.681  28.457   3.569  0.00  0.00    -0.268 OA
ATOM     16  N   UNL     1     -36.180  27.986   1.815  0.00  0.00    -0.259 N 
ATOM     17  N   UNL     1     -35.942  30.419   1.630  0.00  0.00    -0.222 NA
ATOM     18  C   UNL     1     -35.355  27.688   2.890  0.00  0.00    +0.269 C 
ATOM     19  C   UNL     1     -36.434  29.260   1.252  0.00  0.00    +0.166 C 
ATOM     20  C   UNL     1     -37.317  30.988  -0.175  0.00  0.00    +0.127 C 
ATOM     21  C   UNL     1     -36.449  31.409   0.811  0.00  0.00    +0.114 C 
ATOM     22  H   UNL     1     -36.641  27.224   1.396  0.00  0.00    +0.157 HD
BRANCH  20  24
ATOM     23  O   UNL     1     -38.641  31.273  -2.148  0.00  0.00    -0.244 OA
ATOM     24  C   UNL     1     -38.008  31.736  -1.171  0.00  0.00    +0.346 C 
BRANCH  24  25
ATOM     25  O   UNL     1     -37.936  33.096  -0.987  0.00  0.00    -0.477 OA
ATOM     26  H   UNL     1     -37.618  33.443  -0.177  0.00  0.00    +0.295 HD
ENDBRANCH  24  25
ENDBRANCH  20  24
ENDBRANCH   7  18
BRANCH   8  27
ATOM     27  O   UNL     1     -35.876  26.453   5.527  0.00  0.00    -0.504 OA
ATOM     28  H   UNL     1     -36.711  26.350   5.938  0.00  0.00    +0.292 HD
ENDBRANCH   8  27
TORSDOF 4
ENDMDL
MODEL 8
REMARK VINA RESULT:      -6.0      4.177      6.054
REMARK  Name = 54750414
REMARK  4 active torsions:
REMARK  status: ('A' for Active; 'I' for Inactive)
REMARK    1  A    between atoms: C_7  and  C_18
REMARK    2  A    between atoms: C_8  and  O_27
REMARK    3  A    between atoms: C_20  and  C_24
REMARK    4  A    between atoms: C_24  and  O_25
REMARK                            x       y       z     vdW  Elec       q    Type
REMARK                         _______ _______ _______ _____ _____    ______ ____
ROOT
ATOM      1  S   UNL     1     -39.853  21.286  -0.345  0.00  0.00    +0.077 S 
ATOM      2  O   UNL     1     -40.798  20.814   0.647  0.00  0.00    -0.150 OA
ATOM      3  O   UNL     1     -40.293  21.701  -1.664  0.00  0.00    -0.150 OA
ATOM      4  N   UNL     1     -38.851  22.517   0.336  0.00  0.00    -0.181 N 
ATOM      5  C   UNL     1     -38.671  20.002  -0.546  0.00  0.00    +0.128 C 
ATOM      6  C   UNL     1     -37.644  19.914   0.402  0.00  0.00    +0.054 C 
ATOM      7  C   UNL     1     -38.137  22.087   1.514  0.00  0.00    +0.156 C 
ATOM      8  C   UNL     1     -37.571  20.864   1.538  0.00  0.00    +0.154 C 
ATOM      9  C   UNL     1     -38.770  19.132  -1.631  0.00  0.00    +0.020 C 
ATOM     10  C   UNL     1     -38.043  23.330  -0.620  0.00  0.00    +0.139 C 
ATOM     11  C   UNL     1     -36.701  18.889   0.235  0.00  0.00    +0.004 C 
ATOM     12  C   UNL     1     -37.820  18.127  -1.776  0.00  0.00    +0.001 C 
ATOM     13  C   UNL     1     -36.789  18.004  -0.845  0.00  0.00    +0.000 C 
ENDROOT
BRANCH   7  18
ATOM     14  S   UNL     1     -34.584  24.746   3.735  0.00  0.00    -0.045 S 
ATOM     15  O   UNL     1     -39.059  23.444   3.168  0.00  0.00    -0.268 OA
ATOM     16  N   UNL     1     -36.735  23.503   2.789  0.00  0.00    -0.259 N 
ATOM     17  N   UNL     1     -36.987  25.128   4.608  0.00  0.00    -0.222 NA
ATOM     18  C   UNL     1     -38.042  23.085   2.582  0.00  0.00    +0.269 C 
ATOM     19  C   UNL     1     -36.274  24.451   3.735  0.00  0.00    +0.166 C 
ATOM     20  C   UNL     1     -34.806  25.876   5.006  0.00  0.00    +0.127 C 
ATOM     21  C   UNL     1     -36.144  25.944   5.337  0.00  0.00    +0.114 C 
ATOM     22  H   UNL     1     -36.051  23.093   2.213  0.00  0.00    +0.157 HD
BRANCH  20  24
ATOM     23  O   UNL     1     -33.096  26.309   6.622  0.00  0.00    -0.244 OA
ATOM     24  C   UNL     1     -33.690  26.572   5.551  0.00  0.00    +0.346 C 
BRANCH  24  25
ATOM     25  O   UNL     1     -33.268  27.627   4.778  0.00  0.00    -0.477 OA
ATOM     26  H   UNL     1     -32.353  27.816   4.703  0.00  0.00    +0.295 HD
ENDBRANCH  24  25
ENDBRANCH  20  24
ENDBRANCH   7  18
BRANCH   8  27
ATOM     27  O   UNL     1     -36.852  20.376   2.614  0.00  0.00    -0.504 OA
ATOM     28  H   UNL     1     -35.974  20.666   2.762  0.00  0.00    +0.292 HD
ENDBRANCH   8  27
TORSDOF 4
ENDMDL
MODEL 9
REMARK VINA RESULT:      -6.0      3.627      4.966
REMARK  Name = 54750414
REMARK  4 active torsions:
REMARK  status: ('A' for Active; 'I' for Inactive)
REMARK    1  A    between atoms: C_7  and  C_18
REMARK    2  A    between atoms: C_8  and  O_27
REMARK    3  A    between atoms: C_20  and  C_24
REMARK    4  A    between atoms: C_24  and  O_25
REMARK                            x       y       z     vdW  Elec       q    Type
REMARK                         _______ _______ _______ _____ _____    ______ ____
ROOT
ATOM      1  S   UNL     1     -37.019  22.553   2.137  0.00  0.00    +0.077 S 
ATOM      2  O   UNL     1     -38.435  22.409   2.412  0.00  0.00    -0.150 OA
ATOM      3  O   UNL     1     -36.311  21.586   1.319  0.00  0.00    -0.150 OA
ATOM      4  N   UNL     1     -36.692  24.145   1.553  0.00  0.00    -0.181 N 
ATOM      5  C   UNL     1     -36.221  22.628   3.701  0.00  0.00    +0.128 C 
ATOM      6  C   UNL     1     -36.225  23.858   4.369  0.00  0.00    +0.054 C 
ATOM      7  C   UNL     1     -37.113  25.185   2.459  0.00  0.00    +0.156 C 
ATOM      8  C   UNL     1     -36.891  25.045   3.781  0.00  0.00    +0.154 C 
ATOM      9  C   UNL     1     -35.602  21.492   4.219  0.00  0.00    +0.020 C 
ATOM     10  C   UNL     1     -35.355  24.368   0.927  0.00  0.00    +0.139 C 
ATOM     11  C   UNL     1     -35.584  23.914   5.616  0.00  0.00    +0.004 C 
ATOM     12  C   UNL     1     -34.970  21.575   5.455  0.00  0.00    +0.001 C 
ATOM     13  C   UNL     1     -34.962  22.782   6.153  0.00  0.00    +0.000 C 
ENDROOT
BRANCH   7  18
ATOM     14  S   UNL     1     -41.174  26.253  -0.186  0.00  0.00    -0.045 S 
ATOM     15  O   UNL     1     -37.136  27.445   1.892  0.00  0.00    -0.268 OA
ATOM     16  N   UNL     1     -38.909  26.061   1.191  0.00  0.00    -0.259 N 
ATOM     17  N   UNL     1     -39.574  28.233   0.269  0.00  0.00    -0.222 NA
ATOM     18  C   UNL     1     -37.709  26.362   1.821  0.00  0.00    +0.269 C 
ATOM     19  C   UNL     1     -39.753  26.947   0.479  0.00  0.00    +0.166 C 
ATOM     20  C   UNL     1     -41.602  27.792  -0.812  0.00  0.00    +0.127 C 
ATOM     21  C   UNL     1     -40.635  28.716  -0.472  0.00  0.00    +0.114 C 
ATOM     22  H   UNL     1     -39.205  25.125   1.246  0.00  0.00    +0.157 HD
BRANCH  20  24
ATOM     23  O   UNL     1     -43.239  27.190  -2.450  0.00  0.00    -0.244 OA
ATOM     24  C   UNL     1     -42.805  27.954  -1.557  0.00  0.00    +0.346 C 
BRANCH  24  25
ATOM     25  O   UNL     1     -43.517  29.078  -1.215  0.00  0.00    -0.477 OA
ATOM     26  H   UNL     1     -43.154  29.698  -0.613  0.00  0.00    +0.295 HD
ENDBRANCH  24  25
ENDBRANCH  20  24
ENDBRANCH   7  18
BRANCH   8  27
ATOM     27  O   UNL     1     -37.241  25.997   4.720  0.00  0.00    -0.504 OA
ATOM     28  H   UNL     1     -36.793  26.820   4.744  0.00  0.00    +0.292 HD
ENDBRANCH   8  27
TORSDOF 4
ENDMDL
