MODEL 1
REMARK VINA RESULT:      -5.2      0.000      0.000
REMARK  Name = 5289517
REMARK  6 active torsions:
REMARK  status: ('A' for Active; 'I' for Inactive)
REMARK    1  A    between atoms: C_4  and  C_7
REMARK    2  A    between atoms: C_5  and  C_11
REMARK    3  A    between atoms: C_11  and  CA_12
REMARK    4  A    between atoms: CA_12  and  N_13
REMARK    5  A    between atoms: CA_12  and  C_18
REMARK    6  A    between atoms: C_18  and  O_19
REMARK                            x       y       z     vdW  Elec       q    Type
REMARK                         _______ _______ _______ _____ _____    ______ ____
ROOT
ATOM      1  S   UNL     1     -36.544  27.019   2.214  0.00  0.00    +0.021 S 
ATOM      2  O   UNL     1     -38.926  24.476   3.689  0.00  0.00    -0.222 OA
ATOM      3  N   UNL     1     -37.992  26.221   2.382  0.00  0.00    -0.139 NA
ATOM      4  C   UNL     1     -35.711  26.137   3.422  0.00  0.00    +0.032 C 
ATOM      5  C   UNL     1     -36.579  25.220   3.949  0.00  0.00    +0.063 C 
ATOM      6  C   UNL     1     -37.850  25.304   3.335  0.00  0.00    +0.157 C 
ENDROOT
BRANCH   4   7
ATOM      7  C   UNL     1     -34.298  26.431   3.731  0.00  0.00    +0.026 C 
ATOM      8  C   UNL     1     -33.893  27.876   3.282  0.00  0.00    +0.005 C 
ATOM      9  C   UNL     1     -33.326  25.438   3.009  0.00  0.00    +0.005 C 
ATOM     10  C   UNL     1     -33.897  26.354   5.249  0.00  0.00    +0.005 C 
ENDBRANCH   4   7
BRANCH   5  11
ATOM     11  C   UNL     1     -36.204  24.260   5.042  0.00  0.00    +0.027 C 
BRANCH  11  12
ATOM     12  CA  UNL     1     -35.715  22.900   4.531  0.00  0.00    +0.041 C 
BRANCH  12  13
ATOM     13  N   UNL     1     -36.800  22.255   3.731  0.00  0.00    +0.389 N 
ATOM     14  H1  UNL     1     -36.783  21.246   3.887  0.00  0.00    -0.088 HD
ATOM     15  H2  UNL     1     -36.653  22.448   2.740  0.00  0.00    -0.088 HD
ATOM     16  H3  UNL     1     -37.704  22.628   4.021  0.00  0.00    -0.088 HD
ENDBRANCH  12  13
BRANCH  12  18
ATOM     17  OXT UNL     1     -35.161  22.345   6.839  0.00  0.00    -0.253 OA
ATOM     18  C   UNL     1     -35.332  21.997   5.679  0.00  0.00    +0.293 C 
BRANCH  18  19
ATOM     19  O   UNL     1     -35.205  20.713   5.255  0.00  0.00    -0.482 OA
ATOM     20  H   UNL     1     -34.782  20.528   4.440  0.00  0.00    +0.295 HD
ENDBRANCH  18  19
ENDBRANCH  12  18
ENDBRANCH  11  12
ENDBRANCH   5  11
TORSDOF 6
ENDMDL
MODEL 2
REMARK VINA RESULT:      -5.0      2.657      4.041
REMARK  Name = 5289517
REMARK  6 active torsions:
REMARK  status: ('A' for Active; 'I' for Inactive)
REMARK    1  A    between atoms: C_4  and  C_7
REMARK    2  A    between atoms: C_5  and  C_11
REMARK    3  A    between atoms: C_11  and  CA_12
REMARK    4  A    between atoms: CA_12  and  N_13
REMARK    5  A    between atoms: CA_12  and  C_18
REMARK    6  A    between atoms: C_18  and  O_19
REMARK                            x       y       z     vdW  Elec       q    Type
REMARK                         _______ _______ _______ _____ _____    ______ ____
ROOT
ATOM      1  S   UNL     1     -38.779  22.582   2.249  0.00  0.00    +0.021 S 
ATOM      2  O   UNL     1     -38.794  26.264   3.118  0.00  0.00    -0.222 OA
ATOM      3  N   UNL     1     -39.460  24.080   2.475  0.00  0.00    -0.139 NA
ATOM      4  C   UNL     1     -37.182  23.045   2.661  0.00  0.00    +0.032 C 
ATOM      5  C   UNL     1     -37.198  24.377   2.974  0.00  0.00    +0.063 C 
ATOM      6  C   UNL     1     -38.499  24.918   2.855  0.00  0.00    +0.157 C 
ENDROOT
BRANCH   4   7
ATOM      7  C   UNL     1     -36.082  22.062   2.636  0.00  0.00    +0.026 C 
ATOM      8  C   UNL     1     -36.552  20.677   2.076  0.00  0.00    +0.005 C 
ATOM      9  C   UNL     1     -35.499  21.804   4.066  0.00  0.00    +0.005 C 
ATOM     10  C   UNL     1     -34.837  22.449   1.759  0.00  0.00    +0.005 C 
ENDBRANCH   4   7
BRANCH   5  11
ATOM     11  C   UNL     1     -35.973  25.143   3.386  0.00  0.00    +0.027 C 
BRANCH  11  12
ATOM     12  CA  UNL     1     -35.844  25.335   4.902  0.00  0.00    +0.041 C 
BRANCH  12  13
ATOM     13  N   UNL     1     -36.618  26.545   5.314  0.00  0.00    +0.389 N 
ATOM     14  H1  UNL     1     -36.083  27.070   6.006  0.00  0.00    -0.088 HD
ATOM     15  H2  UNL     1     -37.509  26.257   5.719  0.00  0.00    -0.088 HD
ATOM     16  H3  UNL     1     -36.788  27.134   4.498  0.00  0.00    -0.088 HD
ENDBRANCH  12  13
BRANCH  12  18
ATOM     17  OXT UNL     1     -33.984  26.205   6.214  0.00  0.00    -0.253 OA
ATOM     18  C   UNL     1     -34.398  25.502   5.304  0.00  0.00    +0.293 C 
BRANCH  18  19
ATOM     19  O   UNL     1     -33.592  24.748   4.512  0.00  0.00    -0.482 OA
ATOM     20  H   UNL     1     -33.844  23.875   4.283  0.00  0.00    +0.295 HD
ENDBRANCH  18  19
ENDBRANCH  12  18
ENDBRANCH  11  12
ENDBRANCH   5  11
TORSDOF 6
ENDMDL
MODEL 3
REMARK VINA RESULT:      -4.9      1.979      3.097
REMARK  Name = 5289517
REMARK  6 active torsions:
REMARK  status: ('A' for Active; 'I' for Inactive)
REMARK    1  A    between atoms: C_4  and  C_7
REMARK    2  A    between atoms: C_5  and  C_11
REMARK    3  A    between atoms: C_11  and  CA_12
REMARK    4  A    between atoms: CA_12  and  N_13
REMARK    5  A    between atoms: CA_12  and  C_18
REMARK    6  A    between atoms: C_18  and  O_19
REMARK                            x       y       z     vdW  Elec       q    Type
REMARK                         _______ _______ _______ _____ _____    ______ ____
ROOT
ATOM      1  S   UNL     1     -34.609  27.619   3.054  0.00  0.00    +0.021 S 
ATOM      2  O   UNL     1     -33.961  25.688   6.243  0.00  0.00    -0.222 OA
ATOM      3  N   UNL     1     -33.809  27.249   4.463  0.00  0.00    -0.139 NA
ATOM      4  C   UNL     1     -35.796  26.393   3.192  0.00  0.00    +0.032 C 
ATOM      5  C   UNL     1     -35.554  25.701   4.347  0.00  0.00    +0.063 C 
ATOM      6  C   UNL     1     -34.428  26.215   5.029  0.00  0.00    +0.157 C 
ENDROOT
BRANCH   4   7
ATOM      7  C   UNL     1     -36.839  26.233   2.160  0.00  0.00    +0.026 C 
ATOM      8  C   UNL     1     -36.505  25.064   1.172  0.00  0.00    +0.005 C 
ATOM      9  C   UNL     1     -37.006  27.528   1.296  0.00  0.00    +0.005 C 
ATOM     10  C   UNL     1     -38.283  25.913   2.688  0.00  0.00    +0.005 C 
ENDBRANCH   4   7
BRANCH   5  11
ATOM     11  C   UNL     1     -36.394  24.543   4.807  0.00  0.00    +0.027 C 
BRANCH  11  12
ATOM     12  CA  UNL     1     -35.934  23.188   4.257  0.00  0.00    +0.041 C 
BRANCH  12  13
ATOM     13  N   UNL     1     -37.063  22.548   3.514  0.00  0.00    +0.389 N 
ATOM     14  H1  UNL     1     -37.623  21.993   4.161  0.00  0.00    -0.088 HD
ATOM     15  H2  UNL     1     -36.688  21.944   2.783  0.00  0.00    -0.088 HD
ATOM     16  H3  UNL     1     -37.646  23.272   3.093  0.00  0.00    -0.088 HD
ENDBRANCH  12  13
BRANCH  12  18
ATOM     17  OXT UNL     1     -35.274  22.608   6.530  0.00  0.00    -0.253 OA
ATOM     18  C   UNL     1     -35.487  22.275   5.373  0.00  0.00    +0.293 C 
BRANCH  18  19
ATOM     19  O   UNL     1     -35.353  21.000   4.923  0.00  0.00    -0.482 OA
ATOM     20  H   UNL     1     -35.052  20.840   4.051  0.00  0.00    +0.295 HD
ENDBRANCH  18  19
ENDBRANCH  12  18
ENDBRANCH  11  12
ENDBRANCH   5  11
TORSDOF 6
ENDMDL
MODEL 4
REMARK VINA RESULT:      -4.9      2.662      3.320
REMARK  Name = 5289517
REMARK  6 active torsions:
REMARK  status: ('A' for Active; 'I' for Inactive)
REMARK    1  A    between atoms: C_4  and  C_7
REMARK    2  A    between atoms: C_5  and  C_11
REMARK    3  A    between atoms: C_11  and  CA_12
REMARK    4  A    between atoms: CA_12  and  N_13
REMARK    5  A    between atoms: CA_12  and  C_18
REMARK    6  A    between atoms: C_18  and  O_19
REMARK                            x       y       z     vdW  Elec       q    Type
REMARK                         _______ _______ _______ _____ _____    ______ ____
ROOT
ATOM      1  S   UNL     1     -37.915  25.146   3.496  0.00  0.00    +0.021 S 
ATOM      2  O   UNL     1     -38.584  21.783   1.896  0.00  0.00    -0.222 OA
ATOM      3  N   UNL     1     -38.769  24.043   2.594  0.00  0.00    -0.139 NA
ATOM      4  C   UNL     1     -36.621  24.096   3.889  0.00  0.00    +0.032 C 
ATOM      5  C   UNL     1     -36.871  22.883   3.306  0.00  0.00    +0.063 C 
ATOM      6  C   UNL     1     -38.089  22.899   2.589  0.00  0.00    +0.157 C 
ENDROOT
BRANCH   4   7
ATOM      7  C   UNL     1     -35.497  24.563   4.724  0.00  0.00    +0.026 C 
ATOM      8  C   UNL     1     -35.844  25.894   5.473  0.00  0.00    +0.005 C 
ATOM      9  C   UNL     1     -34.213  24.839   3.871  0.00  0.00    +0.005 C 
ATOM     10  C   UNL     1     -35.026  23.577   5.853  0.00  0.00    +0.005 C 
ENDBRANCH   4   7
BRANCH   5  11
ATOM     11  C   UNL     1     -35.952  21.701   3.431  0.00  0.00    +0.027 C 
BRANCH  11  12
ATOM     12  CA  UNL     1     -35.232  21.337   2.127  0.00  0.00    +0.041 C 
BRANCH  12  13
ATOM     13  N   UNL     1     -35.506  22.390   1.102  0.00  0.00    +0.389 N 
ATOM     14  H1  UNL     1     -36.248  23.004   1.436  0.00  0.00    -0.088 HD
ATOM     15  H2  UNL     1     -35.798  21.946   0.230  0.00  0.00    -0.088 HD
ATOM     16  H3  UNL     1     -34.660  22.935   0.940  0.00  0.00    -0.088 HD
ENDBRANCH  12  13
BRANCH  12  18
ATOM     17  OXT UNL     1     -35.207  19.382   0.673  0.00  0.00    -0.253 OA
ATOM     18  C   UNL     1     -35.697  19.997   1.609  0.00  0.00    +0.293 C 
BRANCH  18  19
ATOM     19  O   UNL     1     -36.751  19.544   2.337  0.00  0.00    -0.482 OA
ATOM     20  H   UNL     1     -37.611  19.875   2.172  0.00  0.00    +0.295 HD
ENDBRANCH  18  19
ENDBRANCH  12  18
ENDBRANCH  11  12
ENDBRANCH   5  11
TORSDOF 6
ENDMDL
MODEL 5
REMARK VINA RESULT:      -4.8      2.550      3.837
REMARK  Name = 5289517
REMARK  6 active torsions:
REMARK  status: ('A' for Active; 'I' for Inactive)
REMARK    1  A    between atoms: C_4  and  C_7
REMARK    2  A    between atoms: C_5  and  C_11
REMARK    3  A    between atoms: C_11  and  CA_12
REMARK    4  A    between atoms: CA_12  and  N_13
REMARK    5  A    between atoms: CA_12  and  C_18
REMARK    6  A    between atoms: C_18  and  O_19
REMARK                            x       y       z     vdW  Elec       q    Type
REMARK                         _______ _______ _______ _____ _____    ______ ____
ROOT
ATOM      1  S   UNL     1     -35.437  24.685   5.512  0.00  0.00    +0.021 S 
ATOM      2  O   UNL     1     -35.283  20.948   4.936  0.00  0.00    -0.222 OA
ATOM      3  N   UNL     1     -35.391  23.085   5.960  0.00  0.00    -0.139 NA
ATOM      4  C   UNL     1     -35.378  24.402   3.824  0.00  0.00    +0.032 C 
ATOM      5  C   UNL     1     -35.322  23.049   3.626  0.00  0.00    +0.063 C 
ATOM      6  C   UNL     1     -35.332  22.348   4.854  0.00  0.00    +0.157 C 
ENDROOT
BRANCH   4   7
ATOM      7  C   UNL     1     -35.390  25.527   2.870  0.00  0.00    +0.026 C 
ATOM      8  C   UNL     1     -35.141  26.899   3.585  0.00  0.00    +0.005 C 
ATOM      9  C   UNL     1     -36.762  25.643   2.125  0.00  0.00    +0.005 C 
ATOM     10  C   UNL     1     -34.315  25.468   1.726  0.00  0.00    +0.005 C 
ENDBRANCH   4   7
BRANCH   5  11
ATOM     11  C   UNL     1     -35.258  22.416   2.265  0.00  0.00    +0.027 C 
BRANCH  11  12
ATOM     12  CA  UNL     1     -36.604  21.873   1.771  0.00  0.00    +0.041 C 
BRANCH  12  13
ATOM     13  N   UNL     1     -37.654  22.149   2.798  0.00  0.00    +0.389 N 
ATOM     14  H1  UNL     1     -37.416  23.001   3.307  0.00  0.00    -0.088 HD
ATOM     15  H2  UNL     1     -37.704  21.366   3.451  0.00  0.00    -0.088 HD
ATOM     16  H3  UNL     1     -38.557  22.268   2.339  0.00  0.00    -0.088 HD
ENDBRANCH  12  13
BRANCH  12  18
ATOM     17  OXT UNL     1     -36.292  19.853   0.443  0.00  0.00    -0.253 OA
ATOM     18  C   UNL     1     -36.527  20.386   1.518  0.00  0.00    +0.293 C 
BRANCH  18  19
ATOM     19  O   UNL     1     -36.750  19.694   2.666  0.00  0.00    -0.482 OA
ATOM     20  H   UNL     1     -37.078  20.137   3.423  0.00  0.00    +0.295 HD
ENDBRANCH  18  19
ENDBRANCH  12  18
ENDBRANCH  11  12
ENDBRANCH   5  11
TORSDOF 6
ENDMDL
MODEL 6
REMARK VINA RESULT:      -4.7      3.005      4.991
REMARK  Name = 5289517
REMARK  6 active torsions:
REMARK  status: ('A' for Active; 'I' for Inactive)
REMARK    1  A    between atoms: C_4  and  C_7
REMARK    2  A    between atoms: C_5  and  C_11
REMARK    3  A    between atoms: C_11  and  CA_12
REMARK    4  A    between atoms: CA_12  and  N_13
REMARK    5  A    between atoms: CA_12  and  C_18
REMARK    6  A    between atoms: C_18  and  O_19
REMARK                            x       y       z     vdW  Elec       q    Type
REMARK                         _______ _______ _______ _____ _____    ______ ____
ROOT
ATOM      1  S   UNL     1     -35.365  21.776   4.977  0.00  0.00    +0.021 S 
ATOM      2  O   UNL     1     -36.318  25.406   5.462  0.00  0.00    -0.222 OA
ATOM      3  N   UNL     1     -35.643  23.164   5.847  0.00  0.00    -0.139 NA
ATOM      4  C   UNL     1     -35.743  22.443   3.445  0.00  0.00    +0.032 C 
ATOM      5  C   UNL     1     -36.086  23.754   3.631  0.00  0.00    +0.063 C 
ATOM      6  C   UNL     1     -36.016  24.117   4.996  0.00  0.00    +0.157 C 
ENDROOT
BRANCH   4   7
ATOM      7  C   UNL     1     -35.668  21.618   2.224  0.00  0.00    +0.026 C 
ATOM      8  C   UNL     1     -37.090  21.211   1.708  0.00  0.00    +0.005 C 
ATOM      9  C   UNL     1     -34.871  20.292   2.464  0.00  0.00    +0.005 C 
ATOM     10  C   UNL     1     -34.969  22.289   0.986  0.00  0.00    +0.005 C 
ENDBRANCH   4   7
BRANCH   5  11
ATOM     11  C   UNL     1     -36.484  24.671   2.509  0.00  0.00    +0.027 C 
BRANCH  11  12
ATOM     12  CA  UNL     1     -37.960  24.555   2.109  0.00  0.00    +0.041 C 
BRANCH  12  13
ATOM     13  N   UNL     1     -38.177  25.267   0.813  0.00  0.00    +0.389 N 
ATOM     14  H1  UNL     1     -38.749  24.687   0.199  0.00  0.00    -0.088 HD
ATOM     15  H2  UNL     1     -37.276  25.447   0.369  0.00  0.00    -0.088 HD
ATOM     16  H3  UNL     1     -38.654  26.152   0.987  0.00  0.00    -0.088 HD
ENDBRANCH  12  13
BRANCH  12  18
ATOM     17  OXT UNL     1     -39.814  24.604   3.690  0.00  0.00    -0.253 OA
ATOM     18  C   UNL     1     -38.855  25.154   3.168  0.00  0.00    +0.293 C 
BRANCH  18  19
ATOM     19  O   UNL     1     -38.447  26.411   3.482  0.00  0.00    -0.482 OA
ATOM     20  H   UNL     1     -38.076  26.586   4.324  0.00  0.00    +0.295 HD
ENDBRANCH  18  19
ENDBRANCH  12  18
ENDBRANCH  11  12
ENDBRANCH   5  11
TORSDOF 6
ENDMDL
MODEL 7
REMARK VINA RESULT:      -4.7     10.827     13.193
REMARK  Name = 5289517
REMARK  6 active torsions:
REMARK  status: ('A' for Active; 'I' for Inactive)
REMARK    1  A    between atoms: C_4  and  C_7
REMARK    2  A    between atoms: C_5  and  C_11
REMARK    3  A    between atoms: C_11  and  CA_12
REMARK    4  A    between atoms: CA_12  and  N_13
REMARK    5  A    between atoms: CA_12  and  C_18
REMARK    6  A    between atoms: C_18  and  O_19
REMARK                            x       y       z     vdW  Elec       q    Type
REMARK                         _______ _______ _______ _____ _____    ______ ____
ROOT
ATOM      1  S   UNL     1     -45.195  30.496   8.803  0.00  0.00    +0.021 S 
ATOM      2  O   UNL     1     -42.856  30.374   5.832  0.00  0.00    -0.222 OA
ATOM      3  N   UNL     1     -43.785  30.136   8.001  0.00  0.00    -0.139 NA
ATOM      4  C   UNL     1     -45.986  31.215   7.465  0.00  0.00    +0.032 C 
ATOM      5  C   UNL     1     -45.133  31.165   6.396  0.00  0.00    +0.063 C 
ATOM      6  C   UNL     1     -43.908  30.552   6.743  0.00  0.00    +0.157 C 
ENDROOT
BRANCH   4   7
ATOM      7  C   UNL     1     -47.354  31.751   7.596  0.00  0.00    +0.026 C 
ATOM      8  C   UNL     1     -47.972  31.431   9.000  0.00  0.00    +0.005 C 
ATOM      9  C   UNL     1     -48.322  31.149   6.523  0.00  0.00    +0.005 C 
ATOM     10  C   UNL     1     -47.499  33.308   7.439  0.00  0.00    +0.005 C 
ENDBRANCH   4   7
BRANCH   5  11
ATOM     11  C   UNL     1     -45.480  31.705   5.037  0.00  0.00    +0.027 C 
BRANCH  11  12
ATOM     12  CA  UNL     1     -45.281  33.219   4.903  0.00  0.00    +0.041 C 
BRANCH  12  13
ATOM     13  N   UNL     1     -46.340  33.778   4.008  0.00  0.00    +0.389 N 
ATOM     14  H1  UNL     1     -47.082  34.189   4.575  0.00  0.00    -0.088 HD
ATOM     15  H2  UNL     1     -46.727  33.030   3.432  0.00  0.00    -0.088 HD
ATOM     16  H3  UNL     1     -45.934  34.495   3.407  0.00  0.00    -0.088 HD
ENDBRANCH  12  13
BRANCH  12  18
ATOM     17  OXT UNL     1     -43.636  33.587   3.143  0.00  0.00    -0.253 OA
ATOM     18  C   UNL     1     -43.920  33.537   4.331  0.00  0.00    +0.293 C 
BRANCH  18  19
ATOM     19  O   UNL     1     -43.028  33.777   5.328  0.00  0.00    -0.482 OA
ATOM     20  H   UNL     1     -42.190  33.358   5.316  0.00  0.00    +0.295 HD
ENDBRANCH  18  19
ENDBRANCH  12  18
ENDBRANCH  11  12
ENDBRANCH   5  11
TORSDOF 6
ENDMDL
MODEL 8
REMARK VINA RESULT:      -4.7      2.596      3.380
REMARK  Name = 5289517
REMARK  6 active torsions:
REMARK  status: ('A' for Active; 'I' for Inactive)
REMARK    1  A    between atoms: C_4  and  C_7
REMARK    2  A    between atoms: C_5  and  C_11
REMARK    3  A    between atoms: C_11  and  CA_12
REMARK    4  A    between atoms: CA_12  and  N_13
REMARK    5  A    between atoms: CA_12  and  C_18
REMARK    6  A    between atoms: C_18  and  O_19
REMARK                            x       y       z     vdW  Elec       q    Type
REMARK                         _______ _______ _______ _____ _____    ______ ____
ROOT
ATOM      1  S   UNL     1     -32.971  25.894   2.241  0.00  0.00    +0.021 S 
ATOM      2  O   UNL     1     -34.320  25.378   5.738  0.00  0.00    -0.222 OA
ATOM      3  N   UNL     1     -33.045  26.129   3.884  0.00  0.00    -0.139 NA
ATOM      4  C   UNL     1     -34.264  24.774   2.160  0.00  0.00    +0.032 C 
ATOM      5  C   UNL     1     -34.746  24.595   3.428  0.00  0.00    +0.063 C 
ATOM      6  C   UNL     1     -34.030  25.375   4.365  0.00  0.00    +0.157 C 
ENDROOT
BRANCH   4   7
ATOM      7  C   UNL     1     -34.675  24.188   0.869  0.00  0.00    +0.026 C 
ATOM      8  C   UNL     1     -34.062  24.967  -0.344  0.00  0.00    +0.005 C 
ATOM      9  C   UNL     1     -36.230  24.210   0.688  0.00  0.00    +0.005 C 
ATOM     10  C   UNL     1     -34.264  22.690   0.635  0.00  0.00    +0.005 C 
ENDBRANCH   4   7
BRANCH   5  11
ATOM     11  C   UNL     1     -35.889  23.677   3.756  0.00  0.00    +0.027 C 
BRANCH  11  12
ATOM     12  CA  UNL     1     -35.467  22.221   3.985  0.00  0.00    +0.041 C 
BRANCH  12  13
ATOM     13  N   UNL     1     -36.372  21.317   3.211  0.00  0.00    +0.389 N 
ATOM     14  H1  UNL     1     -37.332  21.655   3.284  0.00  0.00    -0.088 HD
ATOM     15  H2  UNL     1     -36.314  20.372   3.591  0.00  0.00    -0.088 HD
ATOM     16  H3  UNL     1     -36.088  21.310   2.231  0.00  0.00    -0.088 HD
ENDBRANCH  12  13
BRANCH  12  18
ATOM     17  OXT UNL     1     -35.893  22.605   6.354  0.00  0.00    -0.253 OA
ATOM     18  C   UNL     1     -35.535  21.863   5.451  0.00  0.00    +0.293 C 
BRANCH  18  19
ATOM     19  O   UNL     1     -35.145  20.576   5.647  0.00  0.00    -0.482 OA
ATOM     20  H   UNL     1     -34.241  20.377   5.785  0.00  0.00    +0.295 HD
ENDBRANCH  18  19
ENDBRANCH  12  18
ENDBRANCH  11  12
ENDBRANCH   5  11
TORSDOF 6
ENDMDL
MODEL 9
REMARK VINA RESULT:      -4.7      3.070      4.589
REMARK  Name = 5289517
REMARK  6 active torsions:
REMARK  status: ('A' for Active; 'I' for Inactive)
REMARK    1  A    between atoms: C_4  and  C_7
REMARK    2  A    between atoms: C_5  and  C_11
REMARK    3  A    between atoms: C_11  and  CA_12
REMARK    4  A    between atoms: CA_12  and  N_13
REMARK    5  A    between atoms: CA_12  and  C_18
REMARK    6  A    between atoms: C_18  and  O_19
REMARK                            x       y       z     vdW  Elec       q    Type
REMARK                         _______ _______ _______ _____ _____    ______ ____
ROOT
ATOM      1  S   UNL     1     -35.203  20.953   2.850  0.00  0.00    +0.021 S 
ATOM      2  O   UNL     1     -35.872  22.353   6.302  0.00  0.00    -0.222 OA
ATOM      3  N   UNL     1     -35.254  20.925   4.511  0.00  0.00    -0.139 NA
ATOM      4  C   UNL     1     -35.810  22.545   2.678  0.00  0.00    +0.032 C 
ATOM      5  C   UNL     1     -36.049  23.043   3.930  0.00  0.00    +0.063 C 
ATOM      6  C   UNL     1     -35.722  22.098   4.930  0.00  0.00    +0.157 C 
ENDROOT
BRANCH   4   7
ATOM      7  C   UNL     1     -35.992  23.142   1.341  0.00  0.00    +0.026 C 
ATOM      8  C   UNL     1     -37.488  23.518   1.070  0.00  0.00    +0.005 C 
ATOM      9  C   UNL     1     -35.553  22.163   0.201  0.00  0.00    +0.005 C 
ATOM     10  C   UNL     1     -35.189  24.465   1.066  0.00  0.00    +0.005 C 
ENDBRANCH   4   7
BRANCH   5  11
ATOM     11  C   UNL     1     -36.591  24.421   4.182  0.00  0.00    +0.027 C 
BRANCH  11  12
ATOM     12  CA  UNL     1     -35.720  25.267   5.118  0.00  0.00    +0.041 C 
BRANCH  12  13
ATOM     13  N   UNL     1     -36.460  26.513   5.487  0.00  0.00    +0.389 N 
ATOM     14  H1  UNL     1     -35.893  27.327   5.250  0.00  0.00    -0.088 HD
ATOM     15  H2  UNL     1     -36.648  26.510   6.490  0.00  0.00    -0.088 HD
ATOM     16  H3  UNL     1     -37.340  26.550   4.975  0.00  0.00    -0.088 HD
ENDBRANCH  12  13
BRANCH  12  18
ATOM     17  OXT UNL     1     -33.366  25.016   4.541  0.00  0.00    -0.253 OA
ATOM     18  C   UNL     1     -34.415  25.637   4.453  0.00  0.00    +0.293 C 
BRANCH  18  19
ATOM     19  O   UNL     1     -34.557  26.771   3.720  0.00  0.00    -0.482 OA
ATOM     20  H   UNL     1     -35.012  27.507   4.078  0.00  0.00    +0.295 HD
ENDBRANCH  18  19
ENDBRANCH  12  18
ENDBRANCH  11  12
ENDBRANCH   5  11
TORSDOF 6
ENDMDL
