MODEL 1
REMARK VINA RESULT:      -6.5      0.000      0.000
REMARK  Name = 5320471
REMARK  6 active torsions:
REMARK  status: ('A' for Active; 'I' for Inactive)
REMARK    1  A    between atoms: C_4  and  C_12
REMARK    2  A    between atoms: C_6  and  O_22
REMARK    3  A    between atoms: C_8  and  O_24
REMARK    4  A    between atoms: C_10  and  O_26
REMARK    5  A    between atoms: C_13  and  O_18
REMARK    6  A    between atoms: C_14  and  O_20
REMARK                            x       y       z     vdW  Elec       q    Type
REMARK                         _______ _______ _______ _____ _____    ______ ____
ROOT
ATOM      1  O   UNL     1     -34.447  20.487   2.512  0.00  0.00    -0.450 OA
ATOM      2  O   UNL     1     -37.654  19.678   0.132  0.00  0.00    -0.283 OA
ATOM      3  C   UNL     1     -35.446  19.137   0.760  0.00  0.00    +0.110 A 
ATOM      4  C   UNL     1     -35.622  21.216   2.609  0.00  0.00    +0.188 A 
ATOM      5  C   UNL     1     -34.385  19.465   1.601  0.00  0.00    +0.155 A 
ATOM      6  C   UNL     1     -36.714  21.007   1.851  0.00  0.00    +0.208 A 
ATOM      7  C   UNL     1     -36.690  19.917   0.848  0.00  0.00    +0.238 A 
ATOM      8  C   UNL     1     -35.324  18.086  -0.153  0.00  0.00    +0.143 C 
ATOM      9  C   UNL     1     -33.193  18.743   1.534  0.00  0.00    +0.074 C 
ATOM     10  C   UNL     1     -33.067  17.692   0.625  0.00  0.00    +0.140 C 
ATOM     11  C   UNL     1     -34.131  17.364  -0.216  0.00  0.00    +0.073 C 
ENDROOT
BRANCH   4  12
ATOM     12  C   UNL     1     -35.555  22.282   3.625  0.00  0.00    +0.105 C 
ATOM     13  C   UNL     1     -35.408  21.957   4.976  0.00  0.00    +0.140 C 
ATOM     14  C   UNL     1     -35.636  23.624   3.242  0.00  0.00    +0.140 C 
ATOM     15  C   UNL     1     -35.344  22.966   5.938  0.00  0.00    +0.037 C 
ATOM     16  C   UNL     1     -35.572  24.632   4.204  0.00  0.00    +0.037 C 
ATOM     17  C   UNL     1     -35.427  24.303   5.551  0.00  0.00    +0.006 C 
BRANCH  13  18
ATOM     18  O   UNL     1     -35.324  20.658   5.383  0.00  0.00    -0.505 OA
ATOM     19  H   UNL     1     -36.003  20.287   5.912  0.00  0.00    +0.292 HD
ENDBRANCH  13  18
BRANCH  14  20
ATOM     20  O   UNL     1     -35.779  23.976   1.933  0.00  0.00    -0.505 OA
ATOM     21  H   UNL     1     -35.764  23.318   1.266  0.00  0.00    +0.292 HD
ENDBRANCH  14  20
ENDBRANCH   4  12
BRANCH   6  22
ATOM     22  O   UNL     1     -37.855  21.773   1.950  0.00  0.00    -0.501 OA
ATOM     23  H   UNL     1     -38.697  21.377   1.835  0.00  0.00    +0.292 HD
ENDBRANCH   6  22
BRANCH   8  24
ATOM     24  O   UNL     1     -36.331  17.724  -0.996  0.00  0.00    -0.505 OA
ATOM     25  H   UNL     1     -36.557  16.820  -1.094  0.00  0.00    +0.292 HD
ENDBRANCH   8  24
BRANCH  10  26
ATOM     26  O   UNL     1     -31.906  16.986   0.559  0.00  0.00    -0.505 OA
ATOM     27  H   UNL     1     -31.882  16.096   0.853  0.00  0.00    +0.292 HD
ENDBRANCH  10  26
TORSDOF 6
ENDMDL
MODEL 2
REMARK VINA RESULT:      -6.4      2.806      6.655
REMARK  Name = 5320471
REMARK  6 active torsions:
REMARK  status: ('A' for Active; 'I' for Inactive)
REMARK    1  A    between atoms: C_4  and  C_12
REMARK    2  A    between atoms: C_6  and  O_22
REMARK    3  A    between atoms: C_8  and  O_24
REMARK    4  A    between atoms: C_10  and  O_26
REMARK    5  A    between atoms: C_13  and  O_18
REMARK    6  A    between atoms: C_14  and  O_20
REMARK                            x       y       z     vdW  Elec       q    Type
REMARK                         _______ _______ _______ _____ _____    ______ ____
ROOT
ATOM      1  O   UNL     1     -37.680  23.252   2.240  0.00  0.00    -0.450 OA
ATOM      2  O   UNL     1     -35.201  20.528   3.984  0.00  0.00    -0.283 OA
ATOM      3  C   UNL     1     -36.075  22.718   3.981  0.00  0.00    +0.110 A 
ATOM      4  C   UNL     1     -37.574  21.957   1.757  0.00  0.00    +0.188 A 
ATOM      5  C   UNL     1     -36.939  23.602   3.339  0.00  0.00    +0.155 A 
ATOM      6  C   UNL     1     -36.771  21.011   2.279  0.00  0.00    +0.208 A 
ATOM      7  C   UNL     1     -35.948  21.347   3.464  0.00  0.00    +0.238 A 
ATOM      8  C   UNL     1     -35.342  23.132   5.097  0.00  0.00    +0.143 C 
ATOM      9  C   UNL     1     -37.075  24.909   3.808  0.00  0.00    +0.074 C 
ATOM     10  C   UNL     1     -36.346  25.327   4.921  0.00  0.00    +0.140 C 
ATOM     11  C   UNL     1     -35.482  24.440   5.565  0.00  0.00    +0.073 C 
ENDROOT
BRANCH   4  12
ATOM     12  C   UNL     1     -38.421  21.713   0.576  0.00  0.00    +0.105 C 
ATOM     13  C   UNL     1     -37.930  21.971  -0.707  0.00  0.00    +0.140 C 
ATOM     14  C   UNL     1     -39.720  21.221   0.732  0.00  0.00    +0.140 C 
ATOM     15  C   UNL     1     -38.731  21.740  -1.826  0.00  0.00    +0.037 C 
ATOM     16  C   UNL     1     -40.521  20.990  -0.387  0.00  0.00    +0.037 C 
ATOM     17  C   UNL     1     -40.027  21.250  -1.665  0.00  0.00    +0.006 C 
BRANCH  13  18
ATOM     18  O   UNL     1     -36.666  22.450  -0.895  0.00  0.00    -0.505 OA
ATOM     19  H   UNL     1     -36.277  23.011  -0.252  0.00  0.00    +0.292 HD
ENDBRANCH  13  18
BRANCH  14  20
ATOM     20  O   UNL     1     -40.230  20.958   1.968  0.00  0.00    -0.505 OA
ATOM     21  H   UNL     1     -41.147  20.797   2.072  0.00  0.00    +0.292 HD
ENDBRANCH  14  20
ENDBRANCH   4  12
BRANCH   6  22
ATOM     22  O   UNL     1     -36.664  19.742   1.753  0.00  0.00    -0.501 OA
ATOM     23  H   UNL     1     -36.854  19.592   0.847  0.00  0.00    +0.292 HD
ENDBRANCH   6  22
BRANCH   8  24
ATOM     24  O   UNL     1     -34.486  22.307   5.761  0.00  0.00    -0.505 OA
ATOM     25  H   UNL     1     -34.248  22.496   6.648  0.00  0.00    +0.292 HD
ENDBRANCH   8  24
BRANCH  10  26
ATOM     26  O   UNL     1     -36.478  26.601   5.381  0.00  0.00    -0.505 OA
ATOM     27  H   UNL     1     -36.445  26.771   6.303  0.00  0.00    +0.292 HD
ENDBRANCH  10  26
TORSDOF 6
ENDMDL
MODEL 3
REMARK VINA RESULT:      -6.4      2.806      6.519
REMARK  Name = 5320471
REMARK  6 active torsions:
REMARK  status: ('A' for Active; 'I' for Inactive)
REMARK    1  A    between atoms: C_4  and  C_12
REMARK    2  A    between atoms: C_6  and  O_22
REMARK    3  A    between atoms: C_8  and  O_24
REMARK    4  A    between atoms: C_10  and  O_26
REMARK    5  A    between atoms: C_13  and  O_18
REMARK    6  A    between atoms: C_14  and  O_20
REMARK                            x       y       z     vdW  Elec       q    Type
REMARK                         _______ _______ _______ _____ _____    ______ ____
ROOT
ATOM      1  O   UNL     1     -37.679  23.251   2.236  0.00  0.00    -0.450 OA
ATOM      2  O   UNL     1     -35.202  20.530   3.988  0.00  0.00    -0.283 OA
ATOM      3  C   UNL     1     -36.076  22.720   3.981  0.00  0.00    +0.110 A 
ATOM      4  C   UNL     1     -37.572  21.956   1.755  0.00  0.00    +0.188 A 
ATOM      5  C   UNL     1     -36.939  23.604   3.336  0.00  0.00    +0.155 A 
ATOM      6  C   UNL     1     -36.770  21.011   2.280  0.00  0.00    +0.208 A 
ATOM      7  C   UNL     1     -35.948  21.348   3.466  0.00  0.00    +0.238 A 
ATOM      8  C   UNL     1     -35.345  23.136   5.097  0.00  0.00    +0.143 C 
ATOM      9  C   UNL     1     -37.076  24.911   3.803  0.00  0.00    +0.074 C 
ATOM     10  C   UNL     1     -36.349  25.330   4.917  0.00  0.00    +0.140 C 
ATOM     11  C   UNL     1     -35.485  24.444   5.562  0.00  0.00    +0.073 C 
ENDROOT
BRANCH   4  12
ATOM     12  C   UNL     1     -38.417  21.710   0.573  0.00  0.00    +0.105 C 
ATOM     13  C   UNL     1     -39.717  21.220   0.728  0.00  0.00    +0.140 C 
ATOM     14  C   UNL     1     -37.924  21.967  -0.710  0.00  0.00    +0.140 C 
ATOM     15  C   UNL     1     -40.518  20.988  -0.390  0.00  0.00    +0.037 C 
ATOM     16  C   UNL     1     -38.725  21.735  -1.828  0.00  0.00    +0.037 C 
ATOM     17  C   UNL     1     -40.021  21.245  -1.668  0.00  0.00    +0.006 C 
BRANCH  13  18
ATOM     18  O   UNL     1     -40.229  20.961   1.965  0.00  0.00    -0.505 OA
ATOM     19  H   UNL     1     -40.656  20.144   2.135  0.00  0.00    +0.292 HD
ENDBRANCH  13  18
BRANCH  14  20
ATOM     20  O   UNL     1     -36.662  22.445  -0.897  0.00  0.00    -0.505 OA
ATOM     21  H   UNL     1     -36.382  22.707  -1.752  0.00  0.00    +0.292 HD
ENDBRANCH  14  20
ENDBRANCH   4  12
BRANCH   6  22
ATOM     22  O   UNL     1     -36.663  19.741   1.756  0.00  0.00    -0.501 OA
ATOM     23  H   UNL     1     -37.290  19.438   1.129  0.00  0.00    +0.292 HD
ENDBRANCH   6  22
BRANCH   8  24
ATOM     24  O   UNL     1     -34.489  22.312   5.764  0.00  0.00    -0.505 OA
ATOM     25  H   UNL     1     -34.776  21.463   6.037  0.00  0.00    +0.292 HD
ENDBRANCH   8  24
BRANCH  10  26
ATOM     26  O   UNL     1     -36.481  26.605   5.375  0.00  0.00    -0.505 OA
ATOM     27  H   UNL     1     -35.717  27.121   5.549  0.00  0.00    +0.292 HD
ENDBRANCH  10  26
TORSDOF 6
ENDMDL
MODEL 4
REMARK VINA RESULT:      -6.2      1.387      2.499
REMARK  Name = 5320471
REMARK  6 active torsions:
REMARK  status: ('A' for Active; 'I' for Inactive)
REMARK    1  A    between atoms: C_4  and  C_12
REMARK    2  A    between atoms: C_6  and  O_22
REMARK    3  A    between atoms: C_8  and  O_24
REMARK    4  A    between atoms: C_10  and  O_26
REMARK    5  A    between atoms: C_13  and  O_18
REMARK    6  A    between atoms: C_14  and  O_20
REMARK                            x       y       z     vdW  Elec       q    Type
REMARK                         _______ _______ _______ _____ _____    ______ ____
ROOT
ATOM      1  O   UNL     1     -35.083  21.608   2.383  0.00  0.00    -0.450 OA
ATOM      2  O   UNL     1     -39.019  21.226   1.399  0.00  0.00    -0.283 OA
ATOM      3  C   UNL     1     -36.818  20.405   1.186  0.00  0.00    +0.110 A 
ATOM      4  C   UNL     1     -36.040  22.480   2.877  0.00  0.00    +0.188 A 
ATOM      5  C   UNL     1     -35.489  20.591   1.558  0.00  0.00    +0.155 A 
ATOM      6  C   UNL     1     -37.353  22.417   2.588  0.00  0.00    +0.208 A 
ATOM      7  C   UNL     1     -37.836  21.336   1.696  0.00  0.00    +0.238 A 
ATOM      8  C   UNL     1     -37.173  19.351   0.340  0.00  0.00    +0.143 C 
ATOM      9  C   UNL     1     -34.504  19.723   1.086  0.00  0.00    +0.074 C 
ATOM     10  C   UNL     1     -34.854  18.669   0.242  0.00  0.00    +0.140 C 
ATOM     11  C   UNL     1     -36.186  18.483  -0.130  0.00  0.00    +0.073 C 
ENDROOT
BRANCH   4  12
ATOM     12  C   UNL     1     -35.471  23.524   3.748  0.00  0.00    +0.105 C 
ATOM     13  C   UNL     1     -34.809  24.622   3.190  0.00  0.00    +0.140 C 
ATOM     14  C   UNL     1     -35.591  23.423   5.137  0.00  0.00    +0.140 C 
ATOM     15  C   UNL     1     -34.271  25.611   4.014  0.00  0.00    +0.037 C 
ATOM     16  C   UNL     1     -35.053  24.412   5.961  0.00  0.00    +0.037 C 
ATOM     17  C   UNL     1     -34.393  25.505   5.400  0.00  0.00    +0.006 C 
BRANCH  13  18
ATOM     18  O   UNL     1     -34.676  24.752   1.839  0.00  0.00    -0.505 OA
ATOM     19  H   UNL     1     -34.365  25.557   1.474  0.00  0.00    +0.292 HD
ENDBRANCH  13  18
BRANCH  14  20
ATOM     20  O   UNL     1     -36.230  22.367   5.714  0.00  0.00    -0.505 OA
ATOM     21  H   UNL     1     -37.077  22.485   6.099  0.00  0.00    +0.292 HD
ENDBRANCH  14  20
ENDBRANCH   4  12
BRANCH   6  22
ATOM     22  O   UNL     1     -38.274  23.321   3.070  0.00  0.00    -0.501 OA
ATOM     23  H   UNL     1     -38.015  23.960   3.705  0.00  0.00    +0.292 HD
ENDBRANCH   6  22
BRANCH   8  24
ATOM     24  O   UNL     1     -38.458  19.125  -0.053  0.00  0.00    -0.505 OA
ATOM     25  H   UNL     1     -38.698  19.236  -0.952  0.00  0.00    +0.292 HD
ENDBRANCH   8  24
BRANCH  10  26
ATOM     26  O   UNL     1     -33.895  17.821  -0.220  0.00  0.00    -0.505 OA
ATOM     27  H   UNL     1     -34.141  17.052  -0.697  0.00  0.00    +0.292 HD
ENDBRANCH  10  26
TORSDOF 6
ENDMDL
MODEL 5
REMARK VINA RESULT:      -6.2      1.397      1.884
REMARK  Name = 5320471
REMARK  6 active torsions:
REMARK  status: ('A' for Active; 'I' for Inactive)
REMARK    1  A    between atoms: C_4  and  C_12
REMARK    2  A    between atoms: C_6  and  O_22
REMARK    3  A    between atoms: C_8  and  O_24
REMARK    4  A    between atoms: C_10  and  O_26
REMARK    5  A    between atoms: C_13  and  O_18
REMARK    6  A    between atoms: C_14  and  O_20
REMARK                            x       y       z     vdW  Elec       q    Type
REMARK                         _______ _______ _______ _____ _____    ______ ____
ROOT
ATOM      1  O   UNL     1     -35.001  21.626   2.408  0.00  0.00    -0.450 OA
ATOM      2  O   UNL     1     -38.953  21.254   1.485  0.00  0.00    -0.283 OA
ATOM      3  C   UNL     1     -36.758  20.425   1.242  0.00  0.00    +0.110 A 
ATOM      4  C   UNL     1     -35.948  22.503   2.914  0.00  0.00    +0.188 A 
ATOM      5  C   UNL     1     -35.423  20.607   1.593  0.00  0.00    +0.155 A 
ATOM      6  C   UNL     1     -37.265  22.443   2.645  0.00  0.00    +0.208 A 
ATOM      7  C   UNL     1     -37.765  21.361   1.764  0.00  0.00    +0.238 A 
ATOM      8  C   UNL     1     -37.130  19.369   0.405  0.00  0.00    +0.143 C 
ATOM      9  C   UNL     1     -34.448  19.734   1.109  0.00  0.00    +0.074 C 
ATOM     10  C   UNL     1     -34.815  18.679   0.274  0.00  0.00    +0.140 C 
ATOM     11  C   UNL     1     -36.153  18.496  -0.077  0.00  0.00    +0.073 C 
ENDROOT
BRANCH   4  12
ATOM     12  C   UNL     1     -35.362  23.548   3.773  0.00  0.00    +0.105 C 
ATOM     13  C   UNL     1     -35.550  23.507   5.157  0.00  0.00    +0.140 C 
ATOM     14  C   UNL     1     -34.615  24.586   3.207  0.00  0.00    +0.140 C 
ATOM     15  C   UNL     1     -34.996  24.496   5.970  0.00  0.00    +0.037 C 
ATOM     16  C   UNL     1     -34.061  25.574   4.021  0.00  0.00    +0.037 C 
ATOM     17  C   UNL     1     -34.252  25.529   5.402  0.00  0.00    +0.006 C 
BRANCH  13  18
ATOM     18  O   UNL     1     -36.272  22.508   5.741  0.00  0.00    -0.505 OA
ATOM     19  H   UNL     1     -35.844  21.721   6.018  0.00  0.00    +0.292 HD
ENDBRANCH  13  18
BRANCH  14  20
ATOM     20  O   UNL     1     -34.413  24.656   1.862  0.00  0.00    -0.505 OA
ATOM     21  H   UNL     1     -33.945  25.381   1.495  0.00  0.00    +0.292 HD
ENDBRANCH  14  20
ENDBRANCH   4  12
BRANCH   6  22
ATOM     22  O   UNL     1     -38.176  23.352   3.137  0.00  0.00    -0.501 OA
ATOM     23  H   UNL     1     -38.056  24.268   2.978  0.00  0.00    +0.292 HD
ENDBRANCH   6  22
BRANCH   8  24
ATOM     24  O   UNL     1     -38.421  19.146   0.032  0.00  0.00    -0.505 OA
ATOM     25  H   UNL     1     -38.899  18.430   0.405  0.00  0.00    +0.292 HD
ENDBRANCH   8  24
BRANCH  10  26
ATOM     26  O   UNL     1     -33.866  17.826  -0.199  0.00  0.00    -0.505 OA
ATOM     27  H   UNL     1     -34.122  17.055  -0.668  0.00  0.00    +0.292 HD
ENDBRANCH  10  26
TORSDOF 6
ENDMDL
MODEL 6
REMARK VINA RESULT:      -6.1      2.542      3.719
REMARK  Name = 5320471
REMARK  6 active torsions:
REMARK  status: ('A' for Active; 'I' for Inactive)
REMARK    1  A    between atoms: C_4  and  C_12
REMARK    2  A    between atoms: C_6  and  O_22
REMARK    3  A    between atoms: C_8  and  O_24
REMARK    4  A    between atoms: C_10  and  O_26
REMARK    5  A    between atoms: C_13  and  O_18
REMARK    6  A    between atoms: C_14  and  O_20
REMARK                            x       y       z     vdW  Elec       q    Type
REMARK                         _______ _______ _______ _____ _____    ______ ____
ROOT
ATOM      1  O   UNL     1     -36.647  22.487   2.358  0.00  0.00    -0.450 OA
ATOM      2  O   UNL     1     -40.653  23.112   1.953  0.00  0.00    -0.283 OA
ATOM      3  C   UNL     1     -38.757  21.850   1.342  0.00  0.00    +0.110 A 
ATOM      4  C   UNL     1     -37.297  23.488   3.061  0.00  0.00    +0.188 A 
ATOM      5  C   UNL     1     -37.385  21.689   1.523  0.00  0.00    +0.155 A 
ATOM      6  C   UNL     1     -38.613  23.754   2.970  0.00  0.00    +0.208 A 
ATOM      7  C   UNL     1     -39.450  22.920   2.075  0.00  0.00    +0.238 A 
ATOM      8  C   UNL     1     -39.459  21.007   0.476  0.00  0.00    +0.143 C 
ATOM      9  C   UNL     1     -36.704  20.683   0.837  0.00  0.00    +0.074 C 
ATOM     10  C   UNL     1     -37.400  19.839  -0.029  0.00  0.00    +0.140 C 
ATOM     11  C   UNL     1     -38.775  20.001  -0.209  0.00  0.00    +0.073 C 
ENDROOT
BRANCH   4  12
ATOM     12  C   UNL     1     -36.389  24.270   3.920  0.00  0.00    +0.105 C 
ATOM     13  C   UNL     1     -35.834  23.694   5.065  0.00  0.00    +0.140 C 
ATOM     14  C   UNL     1     -36.078  25.593   3.592  0.00  0.00    +0.140 C 
ATOM     15  C   UNL     1     -34.974  24.433   5.878  0.00  0.00    +0.037 C 
ATOM     16  C   UNL     1     -35.218  26.333   4.405  0.00  0.00    +0.037 C 
ATOM     17  C   UNL     1     -34.667  25.753   5.547  0.00  0.00    +0.006 C 
BRANCH  13  18
ATOM     18  O   UNL     1     -36.115  22.405   5.412  0.00  0.00    -0.505 OA
ATOM     19  H   UNL     1     -35.480  21.731   5.267  0.00  0.00    +0.292 HD
ENDBRANCH  13  18
BRANCH  14  20
ATOM     20  O   UNL     1     -36.601  26.187   2.483  0.00  0.00    -0.505 OA
ATOM     21  H   UNL     1     -37.238  26.869   2.571  0.00  0.00    +0.292 HD
ENDBRANCH  14  20
ENDBRANCH   4  12
BRANCH   6  22
ATOM     22  O   UNL     1     -39.223  24.780   3.659  0.00  0.00    -0.501 OA
ATOM     23  H   UNL     1     -39.704  25.436   3.194  0.00  0.00    +0.292 HD
ENDBRANCH   6  22
BRANCH   8  24
ATOM     24  O   UNL     1     -40.799  21.121   0.264  0.00  0.00    -0.505 OA
ATOM     25  H   UNL     1     -41.258  21.880   0.568  0.00  0.00    +0.292 HD
ENDBRANCH   8  24
BRANCH  10  26
ATOM     26  O   UNL     1     -36.739  18.857  -0.700  0.00  0.00    -0.505 OA
ATOM     27  H   UNL     1     -36.148  19.080  -1.393  0.00  0.00    +0.292 HD
ENDBRANCH  10  26
TORSDOF 6
ENDMDL
MODEL 7
REMARK VINA RESULT:      -6.1      4.488      6.848
REMARK  Name = 5320471
REMARK  6 active torsions:
REMARK  status: ('A' for Active; 'I' for Inactive)
REMARK    1  A    between atoms: C_4  and  C_12
REMARK    2  A    between atoms: C_6  and  O_22
REMARK    3  A    between atoms: C_8  and  O_24
REMARK    4  A    between atoms: C_10  and  O_26
REMARK    5  A    between atoms: C_13  and  O_18
REMARK    6  A    between atoms: C_14  and  O_20
REMARK                            x       y       z     vdW  Elec       q    Type
REMARK                         _______ _______ _______ _____ _____    ______ ____
ROOT
ATOM      1  O   UNL     1     -37.747  23.981   3.499  0.00  0.00    -0.450 OA
ATOM      2  O   UNL     1     -35.243  27.185   3.235  0.00  0.00    -0.283 OA
ATOM      3  C   UNL     1     -35.623  25.010   4.065  0.00  0.00    +0.110 A 
ATOM      4  C   UNL     1     -38.094  25.112   2.778  0.00  0.00    +0.188 A 
ATOM      5  C   UNL     1     -36.524  23.950   4.119  0.00  0.00    +0.155 A 
ATOM      6  C   UNL     1     -37.320  26.206   2.655  0.00  0.00    +0.208 A 
ATOM      7  C   UNL     1     -35.992  26.219   3.313  0.00  0.00    +0.238 A 
ATOM      8  C   UNL     1     -34.391  24.923   4.718  0.00  0.00    +0.143 C 
ATOM      9  C   UNL     1     -36.199  22.793   4.828  0.00  0.00    +0.074 C 
ATOM     10  C   UNL     1     -34.970  22.702   5.481  0.00  0.00    +0.140 C 
ATOM     11  C   UNL     1     -34.068  23.765   5.426  0.00  0.00    +0.073 C 
ENDROOT
BRANCH   4  12
ATOM     12  C   UNL     1     -39.431  25.015   2.164  0.00  0.00    +0.105 C 
ATOM     13  C   UNL     1     -39.654  24.136   1.100  0.00  0.00    +0.140 C 
ATOM     14  C   UNL     1     -40.483  25.800   2.644  0.00  0.00    +0.140 C 
ATOM     15  C   UNL     1     -40.919  24.044   0.519  0.00  0.00    +0.037 C 
ATOM     16  C   UNL     1     -41.748  25.707   2.063  0.00  0.00    +0.037 C 
ATOM     17  C   UNL     1     -41.965  24.830   1.001  0.00  0.00    +0.006 C 
BRANCH  13  18
ATOM     18  O   UNL     1     -38.649  23.355   0.610  0.00  0.00    -0.505 OA
ATOM     19  H   UNL     1     -38.685  22.424   0.715  0.00  0.00    +0.292 HD
ENDBRANCH  13  18
BRANCH  14  20
ATOM     20  O   UNL     1     -40.301  26.667   3.680  0.00  0.00    -0.505 OA
ATOM     21  H   UNL     1     -41.026  26.910   4.221  0.00  0.00    +0.292 HD
ENDBRANCH  14  20
ENDBRANCH   4  12
BRANCH   6  22
ATOM     22  O   UNL     1     -37.710  27.329   1.958  0.00  0.00    -0.501 OA
ATOM     23  H   UNL     1     -38.547  27.717   2.124  0.00  0.00    +0.292 HD
ENDBRANCH   6  22
BRANCH   8  24
ATOM     24  O   UNL     1     -33.474  25.931   4.697  0.00  0.00    -0.505 OA
ATOM     25  H   UNL     1     -33.609  26.698   5.218  0.00  0.00    +0.292 HD
ENDBRANCH   8  24
BRANCH  10  26
ATOM     26  O   UNL     1     -34.650  21.574   6.174  0.00  0.00    -0.505 OA
ATOM     27  H   UNL     1     -34.326  20.822   5.718  0.00  0.00    +0.292 HD
ENDBRANCH  10  26
TORSDOF 6
ENDMDL
MODEL 8
REMARK VINA RESULT:      -6.0      4.368      6.743
REMARK  Name = 5320471
REMARK  6 active torsions:
REMARK  status: ('A' for Active; 'I' for Inactive)
REMARK    1  A    between atoms: C_4  and  C_12
REMARK    2  A    between atoms: C_6  and  O_22
REMARK    3  A    between atoms: C_8  and  O_24
REMARK    4  A    between atoms: C_10  and  O_26
REMARK    5  A    between atoms: C_13  and  O_18
REMARK    6  A    between atoms: C_14  and  O_20
REMARK                            x       y       z     vdW  Elec       q    Type
REMARK                         _______ _______ _______ _____ _____    ______ ____
ROOT
ATOM      1  O   UNL     1     -33.487  25.468   5.053  0.00  0.00    -0.450 OA
ATOM      2  O   UNL     1     -36.923  26.413   3.076  0.00  0.00    -0.283 OA
ATOM      3  C   UNL     1     -35.648  24.773   4.192  0.00  0.00    +0.110 A 
ATOM      4  C   UNL     1     -33.719  26.749   4.578  0.00  0.00    +0.188 A 
ATOM      5  C   UNL     1     -34.452  24.513   4.858  0.00  0.00    +0.155 A 
ATOM      6  C   UNL     1     -34.826  27.127   3.912  0.00  0.00    +0.208 A 
ATOM      7  C   UNL     1     -35.893  26.127   3.674  0.00  0.00    +0.238 A 
ATOM      8  C   UNL     1     -36.595  23.760   4.021  0.00  0.00    +0.143 C 
ATOM      9  C   UNL     1     -34.194  23.236   5.357  0.00  0.00    +0.074 C 
ATOM     10  C   UNL     1     -35.137  22.222   5.189  0.00  0.00    +0.140 C 
ATOM     11  C   UNL     1     -36.335  22.483   4.523  0.00  0.00    +0.073 C 
ENDROOT
BRANCH   4  12
ATOM     12  C   UNL     1     -32.606  27.675   4.853  0.00  0.00    +0.105 C 
ATOM     13  C   UNL     1     -32.239  27.961   6.171  0.00  0.00    +0.140 C 
ATOM     14  C   UNL     1     -31.910  28.271   3.797  0.00  0.00    +0.140 C 
ATOM     15  C   UNL     1     -31.184  28.836   6.432  0.00  0.00    +0.037 C 
ATOM     16  C   UNL     1     -30.856  29.146   4.058  0.00  0.00    +0.037 C 
ATOM     17  C   UNL     1     -30.494  29.429   5.375  0.00  0.00    +0.006 C 
BRANCH  13  18
ATOM     18  O   UNL     1     -32.896  27.395   7.224  0.00  0.00    -0.505 OA
ATOM     19  H   UNL     1     -32.450  27.261   8.037  0.00  0.00    +0.292 HD
ENDBRANCH  13  18
BRANCH  14  20
ATOM     20  O   UNL     1     -32.241  28.013   2.500  0.00  0.00    -0.505 OA
ATOM     21  H   UNL     1     -31.625  27.592   1.934  0.00  0.00    +0.292 HD
ENDBRANCH  14  20
ENDBRANCH   4  12
BRANCH   6  22
ATOM     22  O   UNL     1     -35.011  28.403   3.423  0.00  0.00    -0.501 OA
ATOM     23  H   UNL     1     -35.134  28.539   2.504  0.00  0.00    +0.292 HD
ENDBRANCH   6  22
BRANCH   8  24
ATOM     24  O   UNL     1     -37.779  23.961   3.379  0.00  0.00    -0.505 OA
ATOM     25  H   UNL     1     -38.509  24.320   3.845  0.00  0.00    +0.292 HD
ENDBRANCH   8  24
BRANCH  10  26
ATOM     26  O   UNL     1     -34.888  20.975   5.675  0.00  0.00    -0.505 OA
ATOM     27  H   UNL     1     -34.027  20.611   5.608  0.00  0.00    +0.292 HD
ENDBRANCH  10  26
TORSDOF 6
ENDMDL
MODEL 9
REMARK VINA RESULT:      -5.9      2.926      4.584
REMARK  Name = 5320471
REMARK  6 active torsions:
REMARK  status: ('A' for Active; 'I' for Inactive)
REMARK    1  A    between atoms: C_4  and  C_12
REMARK    2  A    between atoms: C_6  and  O_22
REMARK    3  A    between atoms: C_8  and  O_24
REMARK    4  A    between atoms: C_10  and  O_26
REMARK    5  A    between atoms: C_13  and  O_18
REMARK    6  A    between atoms: C_14  and  O_20
REMARK                            x       y       z     vdW  Elec       q    Type
REMARK                         _______ _______ _______ _____ _____    ______ ____
ROOT
ATOM      1  O   UNL     1     -37.042  22.744   2.345  0.00  0.00    -0.450 OA
ATOM      2  O   UNL     1     -40.939  23.823   1.841  0.00  0.00    -0.283 OA
ATOM      3  C   UNL     1     -39.183  22.355   1.270  0.00  0.00    +0.110 A 
ATOM      4  C   UNL     1     -37.593  23.810   3.038  0.00  0.00    +0.188 A 
ATOM      5  C   UNL     1     -37.844  22.039   1.486  0.00  0.00    +0.155 A 
ATOM      6  C   UNL     1     -38.867  24.224   2.915  0.00  0.00    +0.208 A 
ATOM      7  C   UNL     1     -39.769  23.494   1.993  0.00  0.00    +0.238 A 
ATOM      8  C   UNL     1     -39.953  21.601   0.380  0.00  0.00    +0.143 C 
ATOM      9  C   UNL     1     -37.264  20.964   0.810  0.00  0.00    +0.074 C 
ATOM     10  C   UNL     1     -38.028  20.209  -0.079  0.00  0.00    +0.140 C 
ATOM     11  C   UNL     1     -39.370  20.527  -0.293  0.00  0.00    +0.073 C 
ENDROOT
BRANCH   4  12
ATOM     12  C   UNL     1     -36.625  24.481   3.925  0.00  0.00    +0.105 C 
ATOM     13  C   UNL     1     -36.324  25.833   3.743  0.00  0.00    +0.140 C 
ATOM     14  C   UNL     1     -36.003  23.768   4.954  0.00  0.00    +0.140 C 
ATOM     15  C   UNL     1     -35.409  26.469   4.582  0.00  0.00    +0.037 C 
ATOM     16  C   UNL     1     -35.088  24.403   5.794  0.00  0.00    +0.037 C 
ATOM     17  C   UNL     1     -34.791  25.753   5.607  0.00  0.00    +0.006 C 
BRANCH  13  18
ATOM     18  O   UNL     1     -36.914  26.558   2.750  0.00  0.00    -0.505 OA
ATOM     19  H   UNL     1     -36.476  27.304   2.389  0.00  0.00    +0.292 HD
ENDBRANCH  13  18
BRANCH  14  20
ATOM     20  O   UNL     1     -36.273  22.448   5.160  0.00  0.00    -0.505 OA
ATOM     21  H   UNL     1     -36.296  22.104   6.032  0.00  0.00    +0.292 HD
ENDBRANCH  14  20
ENDBRANCH   4  12
BRANCH   6  22
ATOM     22  O   UNL     1     -39.374  25.310   3.595  0.00  0.00    -0.501 OA
ATOM     23  H   UNL     1     -40.009  25.184   4.273  0.00  0.00    +0.292 HD
ENDBRANCH   6  22
BRANCH   8  24
ATOM     24  O   UNL     1     -41.266  21.868   0.135  0.00  0.00    -0.505 OA
ATOM     25  H   UNL     1     -41.760  22.382   0.743  0.00  0.00    +0.292 HD
ENDBRANCH   8  24
BRANCH  10  26
ATOM     26  O   UNL     1     -37.465  19.160  -0.739  0.00  0.00    -0.505 OA
ATOM     27  H   UNL     1     -36.534  19.117  -0.839  0.00  0.00    +0.292 HD
ENDBRANCH  10  26
TORSDOF 6
ENDMDL
