MODEL 1
REMARK VINA RESULT:      -6.7      0.000      0.000
REMARK  Name = 195546
REMARK  7 active torsions:
REMARK  status: ('A' for Active; 'I' for Inactive)
REMARK    1  A    between atoms: C_3  and  S_12
REMARK    2  A    between atoms: C_8  and  O_26
REMARK    3  A    between atoms: S_12  and  C_15
REMARK    4  A    between atoms: C_15  and  C_17
REMARK    5  A    between atoms: C_18  and  O_22
REMARK    6  A    between atoms: C_19  and  O_24
REMARK    7  A    between atoms: O_26  and  C_29
REMARK                            x       y       z     vdW  Elec       q    Type
REMARK                         _______ _______ _______ _____ _____    ______ ____
ROOT
ATOM      1  N   UNL     1     -35.244  27.502   4.007  0.00  0.00    -0.299 N 
ATOM      2  N   UNL     1     -34.337  27.046   2.030  0.00  0.00    -0.299 N 
ATOM      3  C   UNL     1     -34.656  27.999   2.878  0.00  0.00    +0.279 C 
ATOM      4  C   UNL     1     -35.310  26.138   3.880  0.00  0.00    +0.063 C 
ATOM      5  C   UNL     1     -34.737  25.879   2.638  0.00  0.00    +0.060 C 
ATOM      6  C   UNL     1     -35.804  25.139   4.719  0.00  0.00    +0.053 C 
ATOM      7  C   UNL     1     -34.646  24.550   2.191  0.00  0.00    +0.019 C 
ATOM      8  C   UNL     1     -35.705  23.823   4.258  0.00  0.00    +0.146 C 
ATOM      9  C   UNL     1     -35.136  23.531   3.016  0.00  0.00    +0.038 C 
ATOM     10  H   UNL     1     -35.564  28.029   4.775  0.00  0.00    +0.150 HD
ATOM     11  H   UNL     1     -33.906  27.147   1.151  0.00  0.00    +0.150 HD
ENDROOT
BRANCH   3  12
ATOM     12  S   UNL     1     -34.362  29.697   2.593  0.00  0.00    +0.030 S 
ATOM     13  O   UNL     1     -34.831  29.996   1.242  0.00  0.00    -0.169 OA
ATOM     14  O   UNL     1     -34.882  30.448   3.734  0.00  0.00    -0.169 OA
BRANCH  12  15
ATOM     15  C   UNL     1     -32.585  29.853   2.609  0.00  0.00    +0.203 C 
BRANCH  15  17
ATOM     16  N   UNL     1     -32.475  30.784   4.834  0.00  0.00    -0.243 NA
ATOM     17  C   UNL     1     -32.132  29.752   4.032  0.00  0.00    +0.120 C 
ATOM     18  C   UNL     1     -31.407  28.648   4.448  0.00  0.00    +0.187 C 
ATOM     19  C   UNL     1     -31.008  28.600   5.779  0.00  0.00    +0.175 C 
ATOM     20  C   UNL     1     -31.341  29.642   6.638  0.00  0.00    +0.061 C 
ATOM     21  C   UNL     1     -32.070  30.701   6.120  0.00  0.00    +0.102 C 
BRANCH  18  22
ATOM     22  O   UNL     1     -31.093  27.642   3.592  0.00  0.00    -0.467 OA
ATOM     23  C   UNL     1     -29.824  27.711   2.941  0.00  0.00    +0.253 C 
ENDBRANCH  18  22
BRANCH  19  24
ATOM     24  O   UNL     1     -30.293  27.541   6.251  0.00  0.00    -0.468 OA
ATOM     25  C   UNL     1     -28.956  27.800   6.676  0.00  0.00    +0.253 C 
ENDBRANCH  19  24
ENDBRANCH  15  17
ENDBRANCH  12  15
ENDBRANCH   3  12
BRANCH   8  26
ATOM     26  O   UNL     1     -36.174  22.806   5.037  0.00  0.00    -0.424 OA
BRANCH  26  29
ATOM     27  F   UNL     1     -36.232  21.810   7.042  0.00  0.00    -0.155 F 
ATOM     28  F   UNL     1     -34.455  21.554   5.814  0.00  0.00    -0.155 F 
ATOM     29  C   UNL     1     -35.405  22.452   6.178  0.00  0.00    +0.509 C 
ENDBRANCH  26  29
ENDBRANCH   8  26
TORSDOF 7
ENDMDL
MODEL 2
REMARK VINA RESULT:      -6.7      1.499      2.179
REMARK  Name = 195546
REMARK  7 active torsions:
REMARK  status: ('A' for Active; 'I' for Inactive)
REMARK    1  A    between atoms: C_3  and  S_12
REMARK    2  A    between atoms: C_8  and  O_26
REMARK    3  A    between atoms: S_12  and  C_15
REMARK    4  A    between atoms: C_15  and  C_17
REMARK    5  A    between atoms: C_18  and  O_22
REMARK    6  A    between atoms: C_19  and  O_24
REMARK    7  A    between atoms: O_26  and  C_29
REMARK                            x       y       z     vdW  Elec       q    Type
REMARK                         _______ _______ _______ _____ _____    ______ ____
ROOT
ATOM      1  N   UNL     1     -33.400  26.645   4.017  0.00  0.00    -0.299 N 
ATOM      2  N   UNL     1     -35.078  27.894   3.266  0.00  0.00    -0.299 N 
ATOM      3  C   UNL     1     -33.787  27.856   3.515  0.00  0.00    +0.279 C 
ATOM      4  C   UNL     1     -34.514  25.849   4.096  0.00  0.00    +0.063 C 
ATOM      5  C   UNL     1     -35.547  26.651   3.621  0.00  0.00    +0.060 C 
ATOM      6  C   UNL     1     -34.701  24.535   4.528  0.00  0.00    +0.053 C 
ATOM      7  C   UNL     1     -36.851  26.129   3.569  0.00  0.00    +0.019 C 
ATOM      8  C   UNL     1     -36.004  24.032   4.469  0.00  0.00    +0.146 C 
ATOM      9  C   UNL     1     -37.063  24.813   3.999  0.00  0.00    +0.038 C 
ATOM     10  H   UNL     1     -32.485  26.389   4.274  0.00  0.00    +0.150 HD
ATOM     11  H   UNL     1     -35.595  28.649   2.903  0.00  0.00    +0.150 HD
ENDROOT
BRANCH   3  12
ATOM     12  S   UNL     1     -32.700  29.194   3.239  0.00  0.00    +0.030 S 
ATOM     13  O   UNL     1     -31.423  28.631   2.807  0.00  0.00    -0.169 OA
ATOM     14  O   UNL     1     -33.389  30.177   2.406  0.00  0.00    -0.169 OA
BRANCH  12  15
ATOM     15  C   UNL     1     -32.467  29.922   4.850  0.00  0.00    +0.203 C 
BRANCH  15  17
ATOM     16  N   UNL     1     -30.182  30.686   5.003  0.00  0.00    -0.243 NA
ATOM     17  C   UNL     1     -31.047  29.681   5.258  0.00  0.00    +0.120 C 
ATOM     18  C   UNL     1     -30.695  28.483   5.857  0.00  0.00    +0.187 C 
ATOM     19  C   UNL     1     -29.365  28.305   6.218  0.00  0.00    +0.175 C 
ATOM     20  C   UNL     1     -28.442  29.316   5.973  0.00  0.00    +0.061 C 
ATOM     21  C   UNL     1     -28.898  30.478   5.368  0.00  0.00    +0.102 C 
BRANCH  18  22
ATOM     22  O   UNL     1     -31.613  27.509   6.088  0.00  0.00    -0.467 OA
ATOM     23  C   UNL     1     -32.391  27.616   7.280  0.00  0.00    +0.253 C 
ENDBRANCH  18  22
BRANCH  19  24
ATOM     24  O   UNL     1     -28.955  27.150   6.811  0.00  0.00    -0.468 OA
ATOM     25  C   UNL     1     -27.585  26.787   6.644  0.00  0.00    +0.253 C 
ENDBRANCH  19  24
ENDBRANCH  15  17
ENDBRANCH  12  15
ENDBRANCH   3  12
BRANCH   8  26
ATOM     26  O   UNL     1     -36.245  22.754   4.880  0.00  0.00    -0.424 OA
BRANCH  26  29
ATOM     27  F   UNL     1     -36.032  21.889   6.935  0.00  0.00    -0.155 F 
ATOM     28  F   UNL     1     -34.875  21.006   5.319  0.00  0.00    -0.155 F 
ATOM     29  C   UNL     1     -35.334  22.185   5.809  0.00  0.00    +0.509 C 
ENDBRANCH  26  29
ENDBRANCH   8  26
TORSDOF 7
ENDMDL
MODEL 3
REMARK VINA RESULT:      -6.5      2.577      3.714
REMARK  Name = 195546
REMARK  7 active torsions:
REMARK  status: ('A' for Active; 'I' for Inactive)
REMARK    1  A    between atoms: C_3  and  S_12
REMARK    2  A    between atoms: C_8  and  O_26
REMARK    3  A    between atoms: S_12  and  C_15
REMARK    4  A    between atoms: C_15  and  C_17
REMARK    5  A    between atoms: C_18  and  O_22
REMARK    6  A    between atoms: C_19  and  O_24
REMARK    7  A    between atoms: O_26  and  C_29
REMARK                            x       y       z     vdW  Elec       q    Type
REMARK                         _______ _______ _______ _____ _____    ______ ____
ROOT
ATOM      1  N   UNL     1     -36.315  27.137   2.624  0.00  0.00    -0.299 N 
ATOM      2  N   UNL     1     -34.490  27.937   3.610  0.00  0.00    -0.299 N 
ATOM      3  C   UNL     1     -35.431  28.175   2.722  0.00  0.00    +0.279 C 
ATOM      4  C   UNL     1     -35.919  26.165   3.507  0.00  0.00    +0.063 C 
ATOM      5  C   UNL     1     -34.780  26.689   4.110  0.00  0.00    +0.060 C 
ATOM      6  C   UNL     1     -36.446  24.912   3.822  0.00  0.00    +0.053 C 
ATOM      7  C   UNL     1     -34.111  25.930   5.085  0.00  0.00    +0.019 C 
ATOM      8  C   UNL     1     -35.769  24.171   4.795  0.00  0.00    +0.146 C 
ATOM      9  C   UNL     1     -34.621  24.668   5.417  0.00  0.00    +0.038 C 
ATOM     10  H   UNL     1     -37.096  27.095   2.027  0.00  0.00    +0.150 HD
ATOM     11  H   UNL     1     -33.742  28.525   3.862  0.00  0.00    +0.150 HD
ENDROOT
BRANCH   3  12
ATOM     12  S   UNL     1     -35.534  29.642   1.780  0.00  0.00    +0.030 S 
ATOM     13  O   UNL     1     -34.313  29.732   0.985  0.00  0.00    -0.169 OA
ATOM     14  O   UNL     1     -36.841  29.674   1.127  0.00  0.00    -0.169 OA
BRANCH  12  15
ATOM     15  C   UNL     1     -35.505  30.953   2.990  0.00  0.00    +0.203 C 
BRANCH  15  17
ATOM     16  N   UNL     1     -33.332  30.618   3.986  0.00  0.00    -0.243 NA
ATOM     17  C   UNL     1     -34.081  31.382   3.162  0.00  0.00    +0.120 C 
ATOM     18  C   UNL     1     -33.613  32.502   2.496  0.00  0.00    +0.187 C 
ATOM     19  C   UNL     1     -32.284  32.861   2.687  0.00  0.00    +0.175 C 
ATOM     20  C   UNL     1     -31.478  32.100   3.528  0.00  0.00    +0.061 C 
ATOM     21  C   UNL     1     -32.045  30.998   4.147  0.00  0.00    +0.102 C 
BRANCH  18  22
ATOM     22  O   UNL     1     -34.418  33.229   1.679  0.00  0.00    -0.467 OA
ATOM     23  C   UNL     1     -34.241  33.063   0.272  0.00  0.00    +0.253 C 
ENDBRANCH  18  22
BRANCH  19  24
ATOM     24  O   UNL     1     -31.762  33.951   2.060  0.00  0.00    -0.468 OA
ATOM     25  C   UNL     1     -31.532  35.111   2.859  0.00  0.00    +0.253 C 
ENDBRANCH  19  24
ENDBRANCH  15  17
ENDBRANCH  12  15
ENDBRANCH   3  12
BRANCH   8  26
ATOM     26  O   UNL     1     -36.238  22.937   5.141  0.00  0.00    -0.424 OA
BRANCH  26  29
ATOM     27  F   UNL     1     -36.246  21.675   6.992  0.00  0.00    -0.155 F 
ATOM     28  F   UNL     1     -34.961  21.079   5.341  0.00  0.00    -0.155 F 
ATOM     29  C   UNL     1     -35.435  22.157   6.015  0.00  0.00    +0.509 C 
ENDBRANCH  26  29
ENDBRANCH   8  26
TORSDOF 7
ENDMDL
MODEL 4
REMARK VINA RESULT:      -6.5      3.105      5.216
REMARK  Name = 195546
REMARK  7 active torsions:
REMARK  status: ('A' for Active; 'I' for Inactive)
REMARK    1  A    between atoms: C_3  and  S_12
REMARK    2  A    between atoms: C_8  and  O_26
REMARK    3  A    between atoms: S_12  and  C_15
REMARK    4  A    between atoms: C_15  and  C_17
REMARK    5  A    between atoms: C_18  and  O_22
REMARK    6  A    between atoms: C_19  and  O_24
REMARK    7  A    between atoms: O_26  and  C_29
REMARK                            x       y       z     vdW  Elec       q    Type
REMARK                         _______ _______ _______ _____ _____    ______ ____
ROOT
ATOM      1  N   UNL     1     -34.270  27.330   4.215  0.00  0.00    -0.299 N 
ATOM      2  N   UNL     1     -35.688  27.674   2.539  0.00  0.00    -0.299 N 
ATOM      3  C   UNL     1     -34.664  28.161   3.204  0.00  0.00    +0.279 C 
ATOM      4  C   UNL     1     -35.094  26.234   4.202  0.00  0.00    +0.063 C 
ATOM      5  C   UNL     1     -35.970  26.472   3.146  0.00  0.00    +0.060 C 
ATOM      6  C   UNL     1     -35.147  25.089   4.997  0.00  0.00    +0.053 C 
ATOM      7  C   UNL     1     -36.963  25.523   2.853  0.00  0.00    +0.019 C 
ATOM      8  C   UNL     1     -36.142  24.155   4.691  0.00  0.00    +0.146 C 
ATOM      9  C   UNL     1     -37.036  24.366   3.639  0.00  0.00    +0.038 C 
ATOM     10  H   UNL     1     -33.528  27.490   4.841  0.00  0.00    +0.150 HD
ATOM     11  H   UNL     1     -36.152  28.081   1.771  0.00  0.00    +0.150 HD
ENDROOT
BRANCH   3  12
ATOM     12  S   UNL     1     -33.901  29.689   2.838  0.00  0.00    +0.030 S 
ATOM     13  O   UNL     1     -34.506  30.694   3.708  0.00  0.00    -0.169 OA
ATOM     14  O   UNL     1     -32.454  29.488   2.843  0.00  0.00    -0.169 OA
BRANCH  12  15
ATOM     15  C   UNL     1     -34.391  30.043   1.160  0.00  0.00    +0.203 C 
BRANCH  15  17
ATOM     16  N   UNL     1     -34.776  32.426   1.208  0.00  0.00    -0.243 NA
ATOM     17  C   UNL     1     -35.341  31.199   1.197  0.00  0.00    +0.120 C 
ATOM     18  C   UNL     1     -36.706  30.969   1.218  0.00  0.00    +0.187 C 
ATOM     19  C   UNL     1     -37.549  32.074   1.252  0.00  0.00    +0.175 C 
ATOM     20  C   UNL     1     -37.007  33.355   1.264  0.00  0.00    +0.061 C 
ATOM     21  C   UNL     1     -35.626  33.475   1.241  0.00  0.00    +0.102 C 
BRANCH  18  22
ATOM     22  O   UNL     1     -37.213  29.709   1.204  0.00  0.00    -0.467 OA
ATOM     23  C   UNL     1     -37.616  29.182  -0.060  0.00  0.00    +0.253 C 
ENDBRANCH  18  22
BRANCH  19  24
ATOM     24  O   UNL     1     -38.901  31.915   1.273  0.00  0.00    -0.468 OA
ATOM     25  C   UNL     1     -39.692  33.034   0.874  0.00  0.00    +0.253 C 
ENDBRANCH  19  24
ENDBRANCH  15  17
ENDBRANCH  12  15
ENDBRANCH   3  12
BRANCH   8  26
ATOM     26  O   UNL     1     -36.240  23.017   5.437  0.00  0.00    -0.424 OA
BRANCH  26  29
ATOM     27  F   UNL     1     -35.054  22.124   7.114  0.00  0.00    -0.155 F 
ATOM     28  F   UNL     1     -35.007  21.136   5.177  0.00  0.00    -0.155 F 
ATOM     29  C   UNL     1     -35.031  22.353   5.776  0.00  0.00    +0.509 C 
ENDBRANCH  26  29
ENDBRANCH   8  26
TORSDOF 7
ENDMDL
MODEL 5
REMARK VINA RESULT:      -6.5      5.245      9.119
REMARK  Name = 195546
REMARK  7 active torsions:
REMARK  status: ('A' for Active; 'I' for Inactive)
REMARK    1  A    between atoms: C_3  and  S_12
REMARK    2  A    between atoms: C_8  and  O_26
REMARK    3  A    between atoms: S_12  and  C_15
REMARK    4  A    between atoms: C_15  and  C_17
REMARK    5  A    between atoms: C_18  and  O_22
REMARK    6  A    between atoms: C_19  and  O_24
REMARK    7  A    between atoms: O_26  and  C_29
REMARK                            x       y       z     vdW  Elec       q    Type
REMARK                         _______ _______ _______ _____ _____    ______ ____
ROOT
ATOM      1  N   UNL     1     -38.377  24.338   3.120  0.00  0.00    -0.299 N 
ATOM      2  N   UNL     1     -37.426  22.330   3.097  0.00  0.00    -0.299 N 
ATOM      3  C   UNL     1     -38.434  23.052   2.661  0.00  0.00    +0.279 C 
ATOM      4  C   UNL     1     -37.258  24.454   3.905  0.00  0.00    +0.063 C 
ATOM      5  C   UNL     1     -36.682  23.188   3.874  0.00  0.00    +0.060 C 
ATOM      6  C   UNL     1     -36.717  25.525   4.616  0.00  0.00    +0.053 C 
ATOM      7  C   UNL     1     -35.496  22.958   4.591  0.00  0.00    +0.019 C 
ATOM      8  C   UNL     1     -35.537  25.279   5.323  0.00  0.00    +0.146 C 
ATOM      9  C   UNL     1     -34.934  24.018   5.313  0.00  0.00    +0.038 C 
ATOM     10  H   UNL     1     -39.024  25.054   2.923  0.00  0.00    +0.150 HD
ATOM     11  H   UNL     1     -37.243  21.381   2.908  0.00  0.00    +0.150 HD
ENDROOT
BRANCH   3  12
ATOM     12  S   UNL     1     -39.694  22.439   1.619  0.00  0.00    +0.030 S 
ATOM     13  O   UNL     1     -40.016  21.090   2.077  0.00  0.00    -0.169 OA
ATOM     14  O   UNL     1     -40.742  23.453   1.525  0.00  0.00    -0.169 OA
BRANCH  12  15
ATOM     15  C   UNL     1     -38.925  22.309   0.014  0.00  0.00    +0.203 C 
BRANCH  15  17
ATOM     16  N   UNL     1     -39.693  20.178  -0.819  0.00  0.00    -0.243 NA
ATOM     17  C   UNL     1     -38.673  20.858  -0.254  0.00  0.00    +0.120 C 
ATOM     18  C   UNL     1     -37.451  20.298   0.077  0.00  0.00    +0.187 C 
ATOM     19  C   UNL     1     -37.263  18.947  -0.191  0.00  0.00    +0.175 C 
ATOM     20  C   UNL     1     -38.289  18.211  -0.773  0.00  0.00    +0.061 C 
ATOM     21  C   UNL     1     -39.474  18.868  -1.066  0.00  0.00    +0.102 C 
BRANCH  18  22
ATOM     22  O   UNL     1     -36.462  21.037   0.644  0.00  0.00    -0.467 OA
ATOM     23  C   UNL     1     -35.497  21.618  -0.233  0.00  0.00    +0.253 C 
ENDBRANCH  18  22
BRANCH  19  24
ATOM     24  O   UNL     1     -36.084  18.337   0.110  0.00  0.00    -0.468 OA
ATOM     25  C   UNL     1     -35.285  17.893  -0.985  0.00  0.00    +0.253 C 
ENDBRANCH  19  24
ENDBRANCH  15  17
ENDBRANCH  12  15
ENDBRANCH   3  12
BRANCH   8  26
ATOM     26  O   UNL     1     -34.963  26.290   6.038  0.00  0.00    -0.424 OA
BRANCH  26  29
ATOM     27  F   UNL     1     -33.287  27.319   4.966  0.00  0.00    -0.155 F 
ATOM     28  F   UNL     1     -33.089  26.979   7.105  0.00  0.00    -0.155 F 
ATOM     29  C   UNL     1     -33.552  26.427   5.955  0.00  0.00    +0.509 C 
ENDBRANCH  26  29
ENDBRANCH   8  26
TORSDOF 7
ENDMDL
MODEL 6
REMARK VINA RESULT:      -6.4      4.337      8.077
REMARK  Name = 195546
REMARK  7 active torsions:
REMARK  status: ('A' for Active; 'I' for Inactive)
REMARK    1  A    between atoms: C_3  and  S_12
REMARK    2  A    between atoms: C_8  and  O_26
REMARK    3  A    between atoms: S_12  and  C_15
REMARK    4  A    between atoms: C_15  and  C_17
REMARK    5  A    between atoms: C_18  and  O_22
REMARK    6  A    between atoms: C_19  and  O_24
REMARK    7  A    between atoms: O_26  and  C_29
REMARK                            x       y       z     vdW  Elec       q    Type
REMARK                         _______ _______ _______ _____ _____    ______ ____
ROOT
ATOM      1  N   UNL     1     -36.444  26.655   2.687  0.00  0.00    -0.299 N 
ATOM      2  N   UNL     1     -37.301  25.455   4.351  0.00  0.00    -0.299 N 
ATOM      3  C   UNL     1     -37.510  25.931   3.143  0.00  0.00    +0.279 C 
ATOM      4  C   UNL     1     -35.483  26.645   3.666  0.00  0.00    +0.063 C 
ATOM      5  C   UNL     1     -36.041  25.889   4.692  0.00  0.00    +0.060 C 
ATOM      6  C   UNL     1     -34.211  27.214   3.738  0.00  0.00    +0.053 C 
ATOM      7  C   UNL     1     -35.302  25.680   5.868  0.00  0.00    +0.019 C 
ATOM      8  C   UNL     1     -33.489  26.995   4.915  0.00  0.00    +0.146 C 
ATOM      9  C   UNL     1     -34.022  26.242   5.964  0.00  0.00    +0.038 C 
ATOM     10  H   UNL     1     -36.378  27.103   1.814  0.00  0.00    +0.150 HD
ATOM     11  H   UNL     1     -37.913  24.905   4.892  0.00  0.00    +0.150 HD
ENDROOT
BRANCH   3  12
ATOM     12  S   UNL     1     -38.977  25.670   2.232  0.00  0.00    +0.030 S 
ATOM     13  O   UNL     1     -39.847  26.817   2.475  0.00  0.00    -0.169 OA
ATOM     14  O   UNL     1     -38.607  25.303   0.867  0.00  0.00    -0.169 OA
BRANCH  12  15
ATOM     15  C   UNL     1     -39.726  24.238   2.990  0.00  0.00    +0.203 C 
BRANCH  15  17
ATOM     16  N   UNL     1     -40.457  22.882   1.132  0.00  0.00    -0.243 NA
ATOM     17  C   UNL     1     -39.510  23.073   2.076  0.00  0.00    +0.120 C 
ATOM     18  C   UNL     1     -38.391  22.272   2.232  0.00  0.00    +0.187 C 
ATOM     19  C   UNL     1     -38.234  21.202   1.359  0.00  0.00    +0.175 C 
ATOM     20  C   UNL     1     -39.187  20.970   0.373  0.00  0.00    +0.061 C 
ATOM     21  C   UNL     1     -40.270  21.832   0.302  0.00  0.00    +0.102 C 
BRANCH  18  22
ATOM     22  O   UNL     1     -37.473  22.517   3.202  0.00  0.00    -0.467 OA
ATOM     23  C   UNL     1     -36.119  22.701   2.786  0.00  0.00    +0.253 C 
ENDBRANCH  18  22
BRANCH  19  24
ATOM     24  O   UNL     1     -37.156  20.376   1.460  0.00  0.00    -0.468 OA
ATOM     25  C   UNL     1     -36.767  19.671   0.282  0.00  0.00    +0.253 C 
ENDBRANCH  19  24
ENDBRANCH  15  17
ENDBRANCH  12  15
ENDBRANCH   3  12
BRANCH   8  26
ATOM     26  O   UNL     1     -32.240  27.529   5.041  0.00  0.00    -0.424 OA
BRANCH  26  29
ATOM     27  F   UNL     1     -30.558  27.980   6.451  0.00  0.00    -0.155 F 
ATOM     28  F   UNL     1     -32.163  29.436   6.259  0.00  0.00    -0.155 F 
ATOM     29  C   UNL     1     -31.901  28.105   6.295  0.00  0.00    +0.509 C 
ENDBRANCH  26  29
ENDBRANCH   8  26
TORSDOF 7
ENDMDL
MODEL 7
REMARK VINA RESULT:      -6.4      5.770      9.850
REMARK  Name = 195546
REMARK  7 active torsions:
REMARK  status: ('A' for Active; 'I' for Inactive)
REMARK    1  A    between atoms: C_3  and  S_12
REMARK    2  A    between atoms: C_8  and  O_26
REMARK    3  A    between atoms: S_12  and  C_15
REMARK    4  A    between atoms: C_15  and  C_17
REMARK    5  A    between atoms: C_18  and  O_22
REMARK    6  A    between atoms: C_19  and  O_24
REMARK    7  A    between atoms: O_26  and  C_29
REMARK                            x       y       z     vdW  Elec       q    Type
REMARK                         _______ _______ _______ _____ _____    ______ ____
ROOT
ATOM      1  N   UNL     1     -38.384  24.326   3.123  0.00  0.00    -0.299 N 
ATOM      2  N   UNL     1     -37.437  22.315   3.086  0.00  0.00    -0.299 N 
ATOM      3  C   UNL     1     -38.442  23.044   2.652  0.00  0.00    +0.279 C 
ATOM      4  C   UNL     1     -37.268  24.432   3.913  0.00  0.00    +0.063 C 
ATOM      5  C   UNL     1     -36.694  23.165   3.874  0.00  0.00    +0.060 C 
ATOM      6  C   UNL     1     -36.727  25.496   4.636  0.00  0.00    +0.053 C 
ATOM      7  C   UNL     1     -35.512  22.925   4.593  0.00  0.00    +0.019 C 
ATOM      8  C   UNL     1     -35.550  25.240   5.346  0.00  0.00    +0.146 C 
ATOM      9  C   UNL     1     -34.951  23.978   5.327  0.00  0.00    +0.038 C 
ATOM     10  H   UNL     1     -39.028  25.045   2.929  0.00  0.00    +0.150 HD
ATOM     11  H   UNL     1     -37.256  21.368   2.890  0.00  0.00    +0.150 HD
ENDROOT
BRANCH   3  12
ATOM     12  S   UNL     1     -39.699  22.444   1.600  0.00  0.00    +0.030 S 
ATOM     13  O   UNL     1     -40.040  21.099   2.057  0.00  0.00    -0.169 OA
ATOM     14  O   UNL     1     -40.735  23.469   1.495  0.00  0.00    -0.169 OA
BRANCH  12  15
ATOM     15  C   UNL     1     -38.917  22.303   0.002  0.00  0.00    +0.203 C 
BRANCH  15  17
ATOM     16  N   UNL     1     -37.411  20.482   0.498  0.00  0.00    -0.243 NA
ATOM     17  C   UNL     1     -38.511  20.874  -0.182  0.00  0.00    +0.120 C 
ATOM     18  C   UNL     1     -39.251  20.047  -1.010  0.00  0.00    +0.187 C 
ATOM     19  C   UNL     1     -38.835  18.729  -1.149  0.00  0.00    +0.175 C 
ATOM     20  C   UNL     1     -37.707  18.285  -0.466  0.00  0.00    +0.061 C 
ATOM     21  C   UNL     1     -37.037  19.194   0.338  0.00  0.00    +0.102 C 
BRANCH  18  22
ATOM     22  O   UNL     1     -40.350  20.502  -1.667  0.00  0.00    -0.467 OA
ATOM     23  C   UNL     1     -41.613  20.328  -1.023  0.00  0.00    +0.253 C 
ENDBRANCH  18  22
BRANCH  19  24
ATOM     24  O   UNL     1     -39.520  17.865  -1.949  0.00  0.00    -0.468 OA
ATOM     25  C   UNL     1     -39.911  16.620  -1.373  0.00  0.00    +0.253 C 
ENDBRANCH  19  24
ENDBRANCH  15  17
ENDBRANCH  12  15
ENDBRANCH   3  12
BRANCH   8  26
ATOM     26  O   UNL     1     -34.977  26.243   6.072  0.00  0.00    -0.424 OA
BRANCH  26  29
ATOM     27  F   UNL     1     -33.342  27.298   4.963  0.00  0.00    -0.155 F 
ATOM     28  F   UNL     1     -33.096  26.971   7.099  0.00  0.00    -0.155 F 
ATOM     29  C   UNL     1     -33.570  26.406   5.961  0.00  0.00    +0.509 C 
ENDBRANCH  26  29
ENDBRANCH   8  26
TORSDOF 7
ENDMDL
MODEL 8
REMARK VINA RESULT:      -6.3      2.358      4.048
REMARK  Name = 195546
REMARK  7 active torsions:
REMARK  status: ('A' for Active; 'I' for Inactive)
REMARK    1  A    between atoms: C_3  and  S_12
REMARK    2  A    between atoms: C_8  and  O_26
REMARK    3  A    between atoms: S_12  and  C_15
REMARK    4  A    between atoms: C_15  and  C_17
REMARK    5  A    between atoms: C_18  and  O_22
REMARK    6  A    between atoms: C_19  and  O_24
REMARK    7  A    between atoms: O_26  and  C_29
REMARK                            x       y       z     vdW  Elec       q    Type
REMARK                         _______ _______ _______ _____ _____    ______ ____
ROOT
ATOM      1  N   UNL     1     -33.372  27.292   5.504  0.00  0.00    -0.299 N 
ATOM      2  N   UNL     1     -32.843  27.254   3.345  0.00  0.00    -0.299 N 
ATOM      3  C   UNL     1     -32.715  27.911   4.477  0.00  0.00    +0.279 C 
ATOM      4  C   UNL     1     -33.964  26.162   5.001  0.00  0.00    +0.063 C 
ATOM      5  C   UNL     1     -33.618  26.160   3.653  0.00  0.00    +0.060 C 
ATOM      6  C   UNL     1     -34.747  25.169   5.592  0.00  0.00    +0.053 C 
ATOM      7  C   UNL     1     -34.072  25.115   2.831  0.00  0.00    +0.019 C 
ATOM      8  C   UNL     1     -35.190  24.138   4.759  0.00  0.00    +0.146 C 
ATOM      9  C   UNL     1     -34.860  24.109   3.402  0.00  0.00    +0.038 C 
ATOM     10  H   UNL     1     -33.414  27.603   6.437  0.00  0.00    +0.150 HD
ATOM     11  H   UNL     1     -32.465  27.493   2.468  0.00  0.00    +0.150 HD
ENDROOT
BRANCH   3  12
ATOM     12  S   UNL     1     -31.812  29.396   4.646  0.00  0.00    +0.030 S 
ATOM     13  O   UNL     1     -32.710  30.381   5.245  0.00  0.00    -0.169 OA
ATOM     14  O   UNL     1     -30.534  29.084   5.282  0.00  0.00    -0.169 OA
BRANCH  12  15
ATOM     15  C   UNL     1     -31.471  29.906   2.971  0.00  0.00    +0.203 C 
BRANCH  15  17
ATOM     16  N   UNL     1     -30.968  32.240   3.326  0.00  0.00    -0.243 NA
ATOM     17  C   UNL     1     -31.859  31.346   2.845  0.00  0.00    +0.120 C 
ATOM     18  C   UNL     1     -33.068  31.686   2.263  0.00  0.00    +0.187 C 
ATOM     19  C   UNL     1     -33.384  33.036   2.168  0.00  0.00    +0.175 C 
ATOM     20  C   UNL     1     -32.494  33.989   2.651  0.00  0.00    +0.061 C 
ATOM     21  C   UNL     1     -31.310  33.543   3.216  0.00  0.00    +0.102 C 
BRANCH  18  22
ATOM     22  O   UNL     1     -33.922  30.739   1.797  0.00  0.00    -0.467 OA
ATOM     23  C   UNL     1     -35.000  30.355   2.652  0.00  0.00    +0.253 C 
ENDBRANCH  18  22
BRANCH  19  24
ATOM     24  O   UNL     1     -34.558  33.436   1.606  0.00  0.00    -0.468 OA
ATOM     25  C   UNL     1     -34.490  34.481   0.637  0.00  0.00    +0.253 C 
ENDBRANCH  19  24
ENDBRANCH  15  17
ENDBRANCH  12  15
ENDBRANCH   3  12
BRANCH   8  26
ATOM     26  O   UNL     1     -35.960  23.141   5.283  0.00  0.00    -0.424 OA
BRANCH  26  29
ATOM     27  F   UNL     1     -36.284  21.718   6.983  0.00  0.00    -0.155 F 
ATOM     28  F   UNL     1     -34.846  21.177   5.444  0.00  0.00    -0.155 F 
ATOM     29  C   UNL     1     -35.327  22.222   6.162  0.00  0.00    +0.509 C 
ENDBRANCH  26  29
ENDBRANCH   8  26
TORSDOF 7
ENDMDL
MODEL 9
REMARK VINA RESULT:      -6.3      1.962      2.250
REMARK  Name = 195546
REMARK  7 active torsions:
REMARK  status: ('A' for Active; 'I' for Inactive)
REMARK    1  A    between atoms: C_3  and  S_12
REMARK    2  A    between atoms: C_8  and  O_26
REMARK    3  A    between atoms: S_12  and  C_15
REMARK    4  A    between atoms: C_15  and  C_17
REMARK    5  A    between atoms: C_18  and  O_22
REMARK    6  A    between atoms: C_19  and  O_24
REMARK    7  A    between atoms: O_26  and  C_29
REMARK                            x       y       z     vdW  Elec       q    Type
REMARK                         _______ _______ _______ _____ _____    ______ ____
ROOT
ATOM      1  N   UNL     1     -33.753  26.865   4.083  0.00  0.00    -0.299 N 
ATOM      2  N   UNL     1     -35.418  27.814   2.958  0.00  0.00    -0.299 N 
ATOM      3  C   UNL     1     -34.191  27.968   3.405  0.00  0.00    +0.279 C 
ATOM      4  C   UNL     1     -34.764  25.938   4.073  0.00  0.00    +0.063 C 
ATOM      5  C   UNL     1     -35.791  26.555   3.364  0.00  0.00    +0.060 C 
ATOM      6  C   UNL     1     -34.865  24.653   4.606  0.00  0.00    +0.053 C 
ATOM      7  C   UNL     1     -36.998  25.863   3.167  0.00  0.00    +0.019 C 
ATOM      8  C   UNL     1     -36.073  23.979   4.400  0.00  0.00    +0.146 C 
ATOM      9  C   UNL     1     -37.123  24.571   3.694  0.00  0.00    +0.038 C 
ATOM     10  H   UNL     1     -32.870  26.755   4.503  0.00  0.00    +0.150 HD
ATOM     11  H   UNL     1     -35.953  28.461   2.443  0.00  0.00    +0.150 HD
ENDROOT
BRANCH   3  12
ATOM     12  S   UNL     1     -33.236  29.409   3.160  0.00  0.00    +0.030 S 
ATOM     13  O   UNL     1     -33.689  30.021   1.914  0.00  0.00    -0.169 OA
ATOM     14  O   UNL     1     -33.245  30.179   4.402  0.00  0.00    -0.169 OA
BRANCH  12  15
ATOM     15  C   UNL     1     -31.575  28.809   2.910  0.00  0.00    +0.203 C 
BRANCH  15  17
ATOM     16  N   UNL     1     -30.972  28.150   5.152  0.00  0.00    -0.243 NA
ATOM     17  C   UNL     1     -30.805  29.061   4.169  0.00  0.00    +0.120 C 
ATOM     18  C   UNL     1     -29.986  30.173   4.266  0.00  0.00    +0.187 C 
ATOM     19  C   UNL     1     -29.291  30.364   5.454  0.00  0.00    +0.175 C 
ATOM     20  C   UNL     1     -29.435  29.449   6.492  0.00  0.00    +0.061 C 
ATOM     21  C   UNL     1     -30.280  28.369   6.292  0.00  0.00    +0.102 C 
BRANCH  18  22
ATOM     22  O   UNL     1     -29.859  31.053   3.239  0.00  0.00    -0.467 OA
ATOM     23  C   UNL     1     -30.634  32.250   3.307  0.00  0.00    +0.253 C 
ENDBRANCH  18  22
BRANCH  19  24
ATOM     24  O   UNL     1     -28.469  31.438   5.614  0.00  0.00    -0.468 OA
ATOM     25  C   UNL     1     -27.076  31.171   5.772  0.00  0.00    +0.253 C 
ENDBRANCH  19  24
ENDBRANCH  15  17
ENDBRANCH  12  15
ENDBRANCH   3  12
BRANCH   8  26
ATOM     26  O   UNL     1     -36.228  22.719   4.900  0.00  0.00    -0.424 OA
BRANCH  26  29
ATOM     27  F   UNL     1     -35.888  22.082   7.021  0.00  0.00    -0.155 F 
ATOM     28  F   UNL     1     -34.805  21.044   5.445  0.00  0.00    -0.155 F 
ATOM     29  C   UNL     1     -35.257  22.264   5.832  0.00  0.00    +0.509 C 
ENDBRANCH  26  29
ENDBRANCH   8  26
TORSDOF 7
ENDMDL
