MODEL 1
REMARK VINA RESULT:      -5.7      0.000      0.000
REMARK  Name = 195778
REMARK  7 active torsions:
REMARK  status: ('A' for Active; 'I' for Inactive)
REMARK    1  A    between atoms: C_1  and  S_2
REMARK    2  A    between atoms: C_1  and  C_12
REMARK    3  A    between atoms: S_2  and  C_4
REMARK    4  A    between atoms: C_5  and  O_10
REMARK    5  A    between atoms: C_12  and  N_14
REMARK    6  A    between atoms: C_12  and  C_19
REMARK    7  A    between atoms: C_19  and  O_20
REMARK                            x       y       z     vdW  Elec       q    Type
REMARK                         _______ _______ _______ _____ _____    ______ ____
ROOT
ATOM      1  C   UNK A   1     -37.742  22.640   2.276  0.00  0.00    +0.089 C 
ENDROOT
BRANCH   1   2
ATOM      2  S   UNK A   1     -36.628  22.088   0.967  0.00  0.00    -0.131 S 
BRANCH   2   4
ATOM      3 BR   UNK A   1     -35.284  18.307  -2.027  0.00  0.00    -0.051 Br
ATOM      4  C   UNK A   1     -36.431  20.352   1.522  0.00  0.00    +0.101 C 
ATOM      5  C   UNK A   1     -36.546  19.386   0.314  0.00  0.00    +0.153 C 
ATOM      6  C   UNK A   1     -35.117  20.248   2.257  0.00  0.00    -0.013 C 
ATOM      7  C   UNK A   1     -35.217  18.996  -0.293  0.00  0.00    +0.040 C 
ATOM      8  C   UNK A   1     -34.035  19.675   1.713  0.00  0.00    -0.003 C 
ATOM      9  C   UNK A   1     -34.061  19.151   0.369  0.00  0.00    +0.004 C 
BRANCH   5  10
ATOM     10  O   UNK A   1     -37.194  18.193   0.779  0.00  0.00    -0.378 OA
ATOM     11  H   UNK A   1     -37.995  18.431   1.271  0.00  0.00    +0.211 HD
ENDBRANCH   5  10
ENDBRANCH   2   4
ENDBRANCH   1   2
BRANCH   1  12
ATOM     12  C   UNK A   1     -37.040  23.561   3.274  0.00  0.00    +0.182 C 
BRANCH  12  14
ATOM     13  O   UNK A   0     -34.684  23.983   4.916  0.00  0.00    -0.275 OA
ATOM     14  N   UNK A   1     -36.633  22.802   4.458  0.00  0.00    -0.296 N 
ATOM     15  C   UNK A   0     -35.491  23.090   5.163  0.00  0.00    +0.223 C 
ATOM     16  C   UNK A   0     -35.323  22.175   6.345  0.00  0.00    +0.095 C 
ATOM     17  H   UNK A   1     -37.199  22.055   4.759  0.00  0.00    +0.150 HD
ENDBRANCH  12  14
BRANCH  12  19
ATOM     18  O   UNK A   1     -39.163  24.641   3.698  0.00  0.00    -0.248 OA
ATOM     19  C   UNK A   1     -37.939  24.690   3.743  0.00  0.00    +0.333 C 
BRANCH  19  20
ATOM     20  O   UNK A   1     -37.263  25.781   4.185  0.00  0.00    -0.479 OA
ATOM     21  H   UNK A   1     -36.439  25.677   4.619  0.00  0.00    +0.295 HD
ENDBRANCH  19  20
ENDBRANCH  12  19
ENDBRANCH   1  12
TORSDOF 7
ENDMDL
MODEL 2
REMARK VINA RESULT:      -5.6      4.501      5.759
REMARK  Name = 195778
REMARK  7 active torsions:
REMARK  status: ('A' for Active; 'I' for Inactive)
REMARK    1  A    between atoms: C_1  and  S_2
REMARK    2  A    between atoms: C_1  and  C_12
REMARK    3  A    between atoms: S_2  and  C_4
REMARK    4  A    between atoms: C_5  and  O_10
REMARK    5  A    between atoms: C_12  and  N_14
REMARK    6  A    between atoms: C_12  and  C_19
REMARK    7  A    between atoms: C_19  and  O_20
REMARK                            x       y       z     vdW  Elec       q    Type
REMARK                         _______ _______ _______ _____ _____    ______ ____
ROOT
ATOM      1  C   UNK A   1     -34.028  26.474   4.846  0.00  0.00    +0.089 C 
ENDROOT
BRANCH   1   2
ATOM      2  S   UNK A   1     -33.994  24.976   3.841  0.00  0.00    -0.131 S 
BRANCH   2   4
ATOM      3 BR   UNK A   1     -35.732  20.508   2.398  0.00  0.00    -0.051 Br
ATOM      4  C   UNK A   1     -35.545  24.223   4.461  0.00  0.00    +0.101 C 
ATOM      5  C   UNK A   1     -36.060  23.153   3.463  0.00  0.00    +0.153 C 
ATOM      6  C   UNK A   1     -35.276  23.681   5.844  0.00  0.00    -0.013 C 
ATOM      7  C   UNK A   1     -35.630  21.742   3.796  0.00  0.00    +0.040 C 
ATOM      8  C   UNK A   1     -35.128  22.371   6.084  0.00  0.00    -0.003 C 
ATOM      9  C   UNK A   1     -35.188  21.402   5.016  0.00  0.00    +0.004 C 
BRANCH   5  10
ATOM     10  O   UNK A   1     -37.494  23.202   3.483  0.00  0.00    -0.378 OA
ATOM     11  H   UNK A   1     -37.847  22.305   3.587  0.00  0.00    +0.211 HD
ENDBRANCH   5  10
ENDBRANCH   2   4
ENDBRANCH   1   2
BRANCH   1  12
ATOM     12  C   UNK A   1     -33.101  27.557   4.292  0.00  0.00    +0.182 C 
BRANCH  12  14
ATOM     13  O   UNK A   0     -30.664  27.710   5.861  0.00  0.00    -0.275 OA
ATOM     14  N   UNK A   1     -32.778  28.526   5.341  0.00  0.00    -0.296 N 
ATOM     15  C   UNK A   0     -31.587  28.505   6.024  0.00  0.00    +0.223 C 
ATOM     16  C   UNK A   0     -31.503  29.623   7.027  0.00  0.00    +0.095 C 
ATOM     17  H   UNK A   1     -33.441  29.218   5.567  0.00  0.00    +0.150 HD
ENDBRANCH  12  14
BRANCH  12  19
ATOM     18  O   UNK A   1     -33.126  28.633   2.126  0.00  0.00    -0.248 OA
ATOM     19  C   UNK A   1     -33.733  28.321   3.144  0.00  0.00    +0.333 C 
BRANCH  19  20
ATOM     20  O   UNK A   1     -35.030  28.662   3.361  0.00  0.00    -0.479 OA
ATOM     21  H   UNK A   1     -35.695  28.003   3.349  0.00  0.00    +0.295 HD
ENDBRANCH  19  20
ENDBRANCH  12  19
ENDBRANCH   1  12
TORSDOF 7
ENDMDL
MODEL 3
REMARK VINA RESULT:      -5.6      1.304      1.587
REMARK  Name = 195778
REMARK  7 active torsions:
REMARK  status: ('A' for Active; 'I' for Inactive)
REMARK    1  A    between atoms: C_1  and  S_2
REMARK    2  A    between atoms: C_1  and  C_12
REMARK    3  A    between atoms: S_2  and  C_4
REMARK    4  A    between atoms: C_5  and  O_10
REMARK    5  A    between atoms: C_12  and  N_14
REMARK    6  A    between atoms: C_12  and  C_19
REMARK    7  A    between atoms: C_19  and  O_20
REMARK                            x       y       z     vdW  Elec       q    Type
REMARK                         _______ _______ _______ _____ _____    ______ ____
ROOT
ATOM      1  C   UNK A   1     -36.568  23.375   2.010  0.00  0.00    +0.089 C 
ENDROOT
BRANCH   1   2
ATOM      2  S   UNK A   1     -34.940  22.819   1.466  0.00  0.00    -0.131 S 
BRANCH   2   4
ATOM      3 BR   UNK A   1     -38.477  19.816  -0.416  0.00  0.00    -0.051 Br
ATOM      4  C   UNK A   1     -35.125  21.047   1.895  0.00  0.00    +0.101 C 
ATOM      5  C   UNK A   1     -36.568  20.568   1.591  0.00  0.00    +0.153 C 
ATOM      6  C   UNK A   1     -34.063  20.277   1.149  0.00  0.00    -0.013 C 
ATOM      7  C   UNK A   1     -36.730  19.917   0.237  0.00  0.00    +0.040 C 
ATOM      8  C   UNK A   1     -34.341  19.533   0.070  0.00  0.00    -0.003 C 
ATOM      9  C   UNK A   1     -35.681  19.454  -0.460  0.00  0.00    +0.004 C 
BRANCH   5  10
ATOM     10  O   UNK A   1     -36.922  19.607   2.597  0.00  0.00    -0.378 OA
ATOM     11  H   UNK A   1     -36.125  19.145   2.897  0.00  0.00    +0.211 HD
ENDBRANCH   5  10
ENDBRANCH   2   4
ENDBRANCH   1   2
BRANCH   1  12
ATOM     12  C   UNK A   1     -36.511  24.073   3.369  0.00  0.00    +0.182 C 
BRANCH  12  14
ATOM     13  O   UNK A   0     -34.726  24.233   5.653  0.00  0.00    -0.275 OA
ATOM     14  N   UNK A   1     -36.338  23.083   4.434  0.00  0.00    -0.296 N 
ATOM     15  C   UNK A   0     -35.459  23.263   5.474  0.00  0.00    +0.223 C 
ATOM     16  C   UNK A   0     -35.498  22.109   6.438  0.00  0.00    +0.095 C 
ATOM     17  H   UNK A   1     -36.872  22.256   4.404  0.00  0.00    +0.150 HD
ENDBRANCH  12  14
BRANCH  12  19
ATOM     18  O   UNK A   1     -38.903  24.381   3.546  0.00  0.00    -0.248 OA
ATOM     19  C   UNK A   1     -37.779  24.850   3.670  0.00  0.00    +0.333 C 
BRANCH  19  20
ATOM     20  O   UNK A   1     -37.556  26.134   4.055  0.00  0.00    -0.479 OA
ATOM     21  H   UNK A   1     -37.630  26.829   3.432  0.00  0.00    +0.295 HD
ENDBRANCH  19  20
ENDBRANCH  12  19
ENDBRANCH   1  12
TORSDOF 7
ENDMDL
MODEL 4
REMARK VINA RESULT:      -5.5      3.823      5.306
REMARK  Name = 195778
REMARK  7 active torsions:
REMARK  status: ('A' for Active; 'I' for Inactive)
REMARK    1  A    between atoms: C_1  and  S_2
REMARK    2  A    between atoms: C_1  and  C_12
REMARK    3  A    between atoms: S_2  and  C_4
REMARK    4  A    between atoms: C_5  and  O_10
REMARK    5  A    between atoms: C_12  and  N_14
REMARK    6  A    between atoms: C_12  and  C_19
REMARK    7  A    between atoms: C_19  and  O_20
REMARK                            x       y       z     vdW  Elec       q    Type
REMARK                         _______ _______ _______ _____ _____    ______ ____
ROOT
ATOM      1  C   UNK A   1     -34.930  26.498   4.396  0.00  0.00    +0.089 C 
ENDROOT
BRANCH   1   2
ATOM      2  S   UNK A   1     -34.203  24.853   4.241  0.00  0.00    -0.131 S 
BRANCH   2   4
ATOM      3 BR   UNK A   1     -35.391  20.429   2.221  0.00  0.00    -0.051 Br
ATOM      4  C   UNK A   1     -35.689  23.880   4.691  0.00  0.00    +0.101 C 
ATOM      5  C   UNK A   1     -36.044  22.885   3.554  0.00  0.00    +0.153 C 
ATOM      6  C   UNK A   1     -35.421  23.211   6.017  0.00  0.00    -0.013 C 
ATOM      7  C   UNK A   1     -35.480  21.497   3.751  0.00  0.00    +0.040 C 
ATOM      8  C   UNK A   1     -35.144  21.904   6.118  0.00  0.00    -0.003 C 
ATOM      9  C   UNK A   1     -35.055  21.065   4.948  0.00  0.00    +0.004 C 
BRANCH   5  10
ATOM     10  O   UNK A   1     -37.475  22.785   3.502  0.00  0.00    -0.378 OA
ATOM     11  H   UNK A   1     -37.860  23.280   4.241  0.00  0.00    +0.211 HD
ENDBRANCH   5  10
ENDBRANCH   2   4
ENDBRANCH   1   2
BRANCH   1  12
ATOM     12  C   UNK A   1     -35.111  27.174   3.037  0.00  0.00    +0.182 C 
BRANCH  12  14
ATOM     13  O   UNK A   0     -33.811  29.462   1.812  0.00  0.00    -0.275 OA
ATOM     14  N   UNK A   1     -35.441  28.589   3.221  0.00  0.00    -0.296 N 
ATOM     15  C   UNK A   0     -34.754  29.595   2.587  0.00  0.00    +0.223 C 
ATOM     16  C   UNK A   0     -35.313  30.950   2.931  0.00  0.00    +0.095 C 
ATOM     17  H   UNK A   1     -36.183  28.828   3.822  0.00  0.00    +0.150 HD
ENDBRANCH  12  14
BRANCH  12  19
ATOM     18  O   UNK A   1     -36.042  25.712   1.350  0.00  0.00    -0.248 OA
ATOM     19  C   UNK A   1     -36.230  26.546   2.228  0.00  0.00    +0.333 C 
BRANCH  19  20
ATOM     20  O   UNK A   1     -37.464  27.019   2.539  0.00  0.00    -0.479 OA
ATOM     21  H   UNK A   1     -38.192  26.830   1.981  0.00  0.00    +0.295 HD
ENDBRANCH  19  20
ENDBRANCH  12  19
ENDBRANCH   1  12
TORSDOF 7
ENDMDL
MODEL 5
REMARK VINA RESULT:      -5.4      3.630      5.266
REMARK  Name = 195778
REMARK  7 active torsions:
REMARK  status: ('A' for Active; 'I' for Inactive)
REMARK    1  A    between atoms: C_1  and  S_2
REMARK    2  A    between atoms: C_1  and  C_12
REMARK    3  A    between atoms: S_2  and  C_4
REMARK    4  A    between atoms: C_5  and  O_10
REMARK    5  A    between atoms: C_12  and  N_14
REMARK    6  A    between atoms: C_12  and  C_19
REMARK    7  A    between atoms: C_19  and  O_20
REMARK                            x       y       z     vdW  Elec       q    Type
REMARK                         _______ _______ _______ _____ _____    ______ ____
ROOT
ATOM      1  C   UNK A   1     -35.149  22.745   2.979  0.00  0.00    +0.089 C 
ENDROOT
BRANCH   1   2
ATOM      2  S   UNK A   1     -36.313  23.293   1.713  0.00  0.00    -0.131 S 
BRANCH   2   4
ATOM      3 BR   UNK A   1     -40.135  26.475   1.144  0.00  0.00    -0.051 Br
ATOM      4  C   UNK A   1     -37.828  23.280   2.744  0.00  0.00    +0.101 C 
ATOM      5  C   UNK A   1     -38.530  24.663   2.684  0.00  0.00    +0.153 C 
ATOM      6  C   UNK A   1     -38.697  22.140   2.275  0.00  0.00    -0.013 C 
ATOM      7  C   UNK A   1     -39.630  24.751   1.652  0.00  0.00    +0.040 C 
ATOM      8  C   UNK A   1     -39.799  22.334   1.538  0.00  0.00    -0.003 C 
ATOM      9  C   UNK A   1     -40.198  23.657   1.121  0.00  0.00    +0.004 C 
BRANCH   5  10
ATOM     10  O   UNK A   1     -39.106  24.908   3.976  0.00  0.00    -0.378 OA
ATOM     11  H   UNK A   1     -38.590  24.444   4.653  0.00  0.00    +0.211 HD
ENDBRANCH   5  10
ENDBRANCH   2   4
ENDBRANCH   1   2
BRANCH   1  12
ATOM     12  C   UNK A   1     -35.611  23.126   4.386  0.00  0.00    +0.182 C 
BRANCH  12  14
ATOM     13  O   UNK A   0     -36.338  25.768   5.344  0.00  0.00    -0.275 OA
ATOM     14  N   UNK A   1     -34.721  24.144   4.947  0.00  0.00    -0.296 N 
ATOM     15  C   UNK A   0     -35.176  25.369   5.372  0.00  0.00    +0.223 C 
ATOM     16  C   UNK A   0     -34.060  26.213   5.926  0.00  0.00    +0.095 C 
ATOM     17  H   UNK A   1     -33.760  23.945   5.021  0.00  0.00    +0.150 HD
ENDBRANCH  12  14
BRANCH  12  19
ATOM     18  O   UNK A   1     -35.856  22.033   6.529  0.00  0.00    -0.248 OA
ATOM     19  C   UNK A   1     -35.604  21.941   5.334  0.00  0.00    +0.333 C 
BRANCH  19  20
ATOM     20  O   UNK A   1     -35.256  20.769   4.743  0.00  0.00    -0.479 OA
ATOM     21  H   UNK A   1     -35.209  20.712   3.809  0.00  0.00    +0.295 HD
ENDBRANCH  19  20
ENDBRANCH  12  19
ENDBRANCH   1  12
TORSDOF 7
ENDMDL
MODEL 6
REMARK VINA RESULT:      -5.4      1.823      2.685
REMARK  Name = 195778
REMARK  7 active torsions:
REMARK  status: ('A' for Active; 'I' for Inactive)
REMARK    1  A    between atoms: C_1  and  S_2
REMARK    2  A    between atoms: C_1  and  C_12
REMARK    3  A    between atoms: S_2  and  C_4
REMARK    4  A    between atoms: C_5  and  O_10
REMARK    5  A    between atoms: C_12  and  N_14
REMARK    6  A    between atoms: C_12  and  C_19
REMARK    7  A    between atoms: C_19  and  O_20
REMARK                            x       y       z     vdW  Elec       q    Type
REMARK                         _______ _______ _______ _____ _____    ______ ____
ROOT
ATOM      1  C   UNK A   1     -35.186  22.363   3.229  0.00  0.00    +0.089 C 
ENDROOT
BRANCH   1   2
ATOM      2  S   UNK A   1     -36.612  21.919   2.215  0.00  0.00    -0.131 S 
BRANCH   2   4
ATOM      3 BR   UNK A   1     -36.631  19.739  -2.291  0.00  0.00    -0.051 Br
ATOM      4  C   UNK A   1     -36.169  20.166   1.915  0.00  0.00    +0.101 C 
ATOM      5  C   UNK A   1     -36.778  19.680   0.574  0.00  0.00    +0.153 C 
ATOM      6  C   UNK A   1     -34.665  20.053   1.973  0.00  0.00    -0.013 C 
ATOM      7  C   UNK A   1     -35.834  19.777  -0.603  0.00  0.00    +0.040 C 
ATOM      8  C   UNK A   1     -33.914  19.914   0.872  0.00  0.00    -0.003 C 
ATOM      9  C   UNK A   1     -34.508  19.898  -0.443  0.00  0.00    +0.004 C 
BRANCH   5  10
ATOM     10  O   UNK A   1     -37.144  18.303   0.743  0.00  0.00    -0.378 OA
ATOM     11  H   UNK A   1     -37.301  18.123   1.683  0.00  0.00    +0.211 HD
ENDBRANCH   5  10
ENDBRANCH   2   4
ENDBRANCH   1   2
BRANCH   1  12
ATOM     12  C   UNK A   1     -35.603  22.951   4.577  0.00  0.00    +0.182 C 
BRANCH  12  14
ATOM     13  O   UNK A   0     -36.266  25.623   5.498  0.00  0.00    -0.275 OA
ATOM     14  N   UNK A   1     -34.674  24.013   4.970  0.00  0.00    -0.296 N 
ATOM     15  C   UNK A   0     -35.101  25.248   5.392  0.00  0.00    +0.223 C 
ATOM     16  C   UNK A   0     -33.945  26.139   5.758  0.00  0.00    +0.095 C 
ATOM     17  H   UNK A   1     -33.707  23.835   4.928  0.00  0.00    +0.150 HD
ENDBRANCH  12  14
BRANCH  12  19
ATOM     18  O   UNK A   1     -36.010  22.132   6.816  0.00  0.00    -0.248 OA
ATOM     19  C   UNK A   1     -35.602  21.912   5.682  0.00  0.00    +0.333 C 
BRANCH  19  20
ATOM     20  O   UNK A   1     -35.071  20.718   5.311  0.00  0.00    -0.479 OA
ATOM     21  H   UNK A   1     -34.197  20.679   4.976  0.00  0.00    +0.295 HD
ENDBRANCH  19  20
ENDBRANCH  12  19
ENDBRANCH   1  12
TORSDOF 7
ENDMDL
MODEL 7
REMARK VINA RESULT:      -5.3      2.069      3.390
REMARK  Name = 195778
REMARK  7 active torsions:
REMARK  status: ('A' for Active; 'I' for Inactive)
REMARK    1  A    between atoms: C_1  and  S_2
REMARK    2  A    between atoms: C_1  and  C_12
REMARK    3  A    between atoms: S_2  and  C_4
REMARK    4  A    between atoms: C_5  and  O_10
REMARK    5  A    between atoms: C_12  and  N_14
REMARK    6  A    between atoms: C_12  and  C_19
REMARK    7  A    between atoms: C_19  and  O_20
REMARK                            x       y       z     vdW  Elec       q    Type
REMARK                         _______ _______ _______ _____ _____    ______ ____
ROOT
ATOM      1  C   UNK A   1     -36.363  25.112   2.342  0.00  0.00    +0.089 C 
ENDROOT
BRANCH   1   2
ATOM      2  S   UNK A   1     -36.130  23.745   1.186  0.00  0.00    -0.131 S 
BRANCH   2   4
ATOM      3 BR   UNK A   1     -38.000  19.427  -0.523  0.00  0.00    -0.051 Br
ATOM      4  C   UNK A   1     -36.767  22.401   2.257  0.00  0.00    +0.101 C 
ATOM      5  C   UNK A   1     -37.732  21.488   1.456  0.00  0.00    +0.153 C 
ATOM      6  C   UNK A   1     -35.581  21.668   2.834  0.00  0.00    -0.013 C 
ATOM      7  C   UNK A   1     -37.074  20.261   0.868  0.00  0.00    +0.040 C 
ATOM      8  C   UNK A   1     -35.199  20.462   2.392  0.00  0.00    -0.003 C 
ATOM      9  C   UNK A   1     -35.891  19.808   1.309  0.00  0.00    +0.004 C 
BRANCH   5  10
ATOM     10  O   UNK A   1     -38.762  21.057   2.358  0.00  0.00    -0.378 OA
ATOM     11  H   UNK A   1     -39.617  21.403   2.061  0.00  0.00    +0.211 HD
ENDBRANCH   5  10
ENDBRANCH   2   4
ENDBRANCH   1   2
BRANCH   1  12
ATOM     12  C   UNK A   1     -37.257  24.720   3.520  0.00  0.00    +0.182 C 
BRANCH  12  14
ATOM     13  O   UNK A   0     -39.911  23.858   2.721  0.00  0.00    -0.275 OA
ATOM     14  N   UNK A   1     -38.484  25.518   3.505  0.00  0.00    -0.296 N 
ATOM     15  C   UNK A   0     -39.693  25.005   3.105  0.00  0.00    +0.223 C 
ATOM     16  C   UNK A   0     -40.792  26.028   3.211  0.00  0.00    +0.095 C 
ATOM     17  H   UNK A   1     -38.441  26.459   3.792  0.00  0.00    +0.150 HD
ENDBRANCH  12  14
BRANCH  12  19
ATOM     18  O   UNK A   1     -36.073  24.053   5.521  0.00  0.00    -0.248 OA
ATOM     19  C   UNK A   1     -36.578  24.951   4.857  0.00  0.00    +0.333 C 
BRANCH  19  20
ATOM     20  O   UNK A   1     -36.612  26.243   5.273  0.00  0.00    -0.479 OA
ATOM     21  H   UNK A   1     -36.784  26.440   6.172  0.00  0.00    +0.295 HD
ENDBRANCH  19  20
ENDBRANCH  12  19
ENDBRANCH   1  12
TORSDOF 7
ENDMDL
MODEL 8
REMARK VINA RESULT:      -5.2      3.496      5.163
REMARK  Name = 195778
REMARK  7 active torsions:
REMARK  status: ('A' for Active; 'I' for Inactive)
REMARK    1  A    between atoms: C_1  and  S_2
REMARK    2  A    between atoms: C_1  and  C_12
REMARK    3  A    between atoms: S_2  and  C_4
REMARK    4  A    between atoms: C_5  and  O_10
REMARK    5  A    between atoms: C_12  and  N_14
REMARK    6  A    between atoms: C_12  and  C_19
REMARK    7  A    between atoms: C_19  and  O_20
REMARK                            x       y       z     vdW  Elec       q    Type
REMARK                         _______ _______ _______ _____ _____    ______ ____
ROOT
ATOM      1  C   UNK A   1     -34.589  25.598   2.958  0.00  0.00    +0.089 C 
ENDROOT
BRANCH   1   2
ATOM      2  S   UNK A   1     -34.095  24.924   4.558  0.00  0.00    -0.131 S 
BRANCH   2   4
ATOM      3 BR   UNK A   1     -35.317  20.625   2.302  0.00  0.00    -0.051 Br
ATOM      4  C   UNK A   1     -35.621  23.972   4.910  0.00  0.00    +0.101 C 
ATOM      5  C   UNK A   1     -35.958  23.038   3.718  0.00  0.00    +0.153 C 
ATOM      6  C   UNK A   1     -35.419  23.239   6.213  0.00  0.00    -0.013 C 
ATOM      7  C   UNK A   1     -35.436  21.628   3.873  0.00  0.00    +0.040 C 
ATOM      8  C   UNK A   1     -35.178  21.922   6.266  0.00  0.00    -0.003 C 
ATOM      9  C   UNK A   1     -35.067  21.133   5.064  0.00  0.00    +0.004 C 
BRANCH   5  10
ATOM     10  O   UNK A   1     -37.388  22.978   3.610  0.00  0.00    -0.378 OA
ATOM     11  H   UNK A   1     -37.788  23.479   4.338  0.00  0.00    +0.211 HD
ENDBRANCH   5  10
ENDBRANCH   2   4
ENDBRANCH   1   2
BRANCH   1  12
ATOM     12  C   UNK A   1     -35.393  26.890   3.104  0.00  0.00    +0.182 C 
BRANCH  12  14
ATOM     13  O   UNK A   0     -38.086  25.814   3.215  0.00  0.00    -0.275 OA
ATOM     14  N   UNK A   1     -36.422  26.961   2.065  0.00  0.00    -0.296 N 
ATOM     15  C   UNK A   0     -37.671  26.413   2.225  0.00  0.00    +0.223 C 
ATOM     16  C   UNK A   0     -38.539  26.649   1.019  0.00  0.00    +0.095 C 
ATOM     17  H   UNK A   1     -36.210  27.417   1.219  0.00  0.00    +0.150 HD
ENDBRANCH  12  14
BRANCH  12  19
ATOM     18  O   UNK A   1     -34.915  29.258   3.224  0.00  0.00    -0.248 OA
ATOM     19  C   UNK A   1     -34.522  28.126   2.969  0.00  0.00    +0.333 C 
BRANCH  19  20
ATOM     20  O   UNK A   1     -33.273  27.868   2.504  0.00  0.00    -0.479 OA
ATOM     21  H   UNK A   1     -32.961  28.302   1.735  0.00  0.00    +0.295 HD
ENDBRANCH  19  20
ENDBRANCH  12  19
ENDBRANCH   1  12
TORSDOF 7
ENDMDL
MODEL 9
REMARK VINA RESULT:      -5.2      1.709      3.013
REMARK  Name = 195778
REMARK  7 active torsions:
REMARK  status: ('A' for Active; 'I' for Inactive)
REMARK    1  A    between atoms: C_1  and  S_2
REMARK    2  A    between atoms: C_1  and  C_12
REMARK    3  A    between atoms: S_2  and  C_4
REMARK    4  A    between atoms: C_5  and  O_10
REMARK    5  A    between atoms: C_12  and  N_14
REMARK    6  A    between atoms: C_12  and  C_19
REMARK    7  A    between atoms: C_19  and  O_20
REMARK                            x       y       z     vdW  Elec       q    Type
REMARK                         _______ _______ _______ _____ _____    ______ ____
ROOT
ATOM      1  C   UNK A   1     -35.160  22.864   2.381  0.00  0.00    +0.089 C 
ENDROOT
BRANCH   1   2
ATOM      2  S   UNK A   1     -34.821  21.940   0.868  0.00  0.00    -0.131 S 
BRANCH   2   4
ATOM      3 BR   UNK A   1     -36.090  18.090  -2.070  0.00  0.00    -0.051 Br
ATOM      4  C   UNK A   1     -35.268  20.274   1.486  0.00  0.00    +0.101 C 
ATOM      5  C   UNK A   1     -36.102  19.512   0.423  0.00  0.00    +0.153 C 
ATOM      6  C   UNK A   1     -33.993  19.567   1.875  0.00  0.00    -0.013 C 
ATOM      7  C   UNK A   1     -35.284  18.602  -0.465  0.00  0.00    +0.040 C 
ATOM      8  C   UNK A   1     -33.452  18.599   1.123  0.00  0.00    -0.003 C 
ATOM      9  C   UNK A   1     -34.049  18.200  -0.127  0.00  0.00    +0.004 C 
BRANCH   5  10
ATOM     10  O   UNK A   1     -37.062  18.709   1.125  0.00  0.00    -0.378 OA
ATOM     11  H   UNK A   1     -37.489  18.098   0.504  0.00  0.00    +0.211 HD
ENDBRANCH   5  10
ENDBRANCH   2   4
ENDBRANCH   1   2
BRANCH   1  12
ATOM     12  C   UNK A   1     -36.244  22.197   3.228  0.00  0.00    +0.182 C 
BRANCH  12  14
ATOM     13  O   UNK A   0     -38.574  21.415   1.683  0.00  0.00    -0.275 OA
ATOM     14  N   UNK A   1     -37.506  22.926   3.092  0.00  0.00    -0.296 N 
ATOM     15  C   UNK A   0     -38.549  22.460   2.329  0.00  0.00    +0.223 C 
ATOM     16  C   UNK A   0     -39.733  23.388   2.382  0.00  0.00    +0.095 C 
ATOM     17  H   UNK A   1     -37.612  23.783   3.564  0.00  0.00    +0.150 HD
ENDBRANCH  12  14
BRANCH  12  19
ATOM     18  O   UNK A   1     -36.045  23.132   5.450  0.00  0.00    -0.248 OA
ATOM     19  C   UNK A   1     -35.887  22.174   4.703  0.00  0.00    +0.333 C 
BRANCH  19  20
ATOM     20  O   UNK A   1     -35.339  21.002   5.115  0.00  0.00    -0.479 OA
ATOM     21  H   UNK A   1     -35.727  20.189   4.860  0.00  0.00    +0.295 HD
ENDBRANCH  19  20
ENDBRANCH  12  19
ENDBRANCH   1  12
TORSDOF 7
ENDMDL
