MODEL 1
REMARK VINA RESULT:      -5.5      0.000      0.000
REMARK  Name = 60667
REMARK  9 active torsions:
REMARK  status: ('A' for Active; 'I' for Inactive)
REMARK    1  A    between atoms: S_1  and  C_4
REMARK    2  A    between atoms: S_1  and  N_16
REMARK    3  A    between atoms: C_7  and  N_10
REMARK    4  A    between atoms: N_10  and  S_12
REMARK    5  A    between atoms: N_16  and  C_17
REMARK    6  A    between atoms: N_16  and  C_20
REMARK    7  A    between atoms: C_20  and  C_21
REMARK    8  A    between atoms: C_21  and  N_22
REMARK    9  A    between atoms: N_22  and  C_25
REMARK                            x       y       z     vdW  Elec       q    Type
REMARK                         _______ _______ _______ _____ _____    ______ ____
ROOT
ATOM      1  S   UNL     1     -36.541  24.227   4.292  0.00  0.00    +0.063 S 
ATOM      2  O   UNL     1     -37.853  24.832   4.147  0.00  0.00    -0.153 OA
ATOM      3  O   UNL     1     -36.042  23.915   5.620  0.00  0.00    -0.153 OA
ENDROOT
BRANCH   1   4
ATOM      4  C   UNL     1     -36.554  22.717   3.368  0.00  0.00    +0.122 C 
ATOM      5  C   UNL     1     -35.502  21.832   3.511  0.00  0.00    +0.021 C 
ATOM      6  C   UNL     1     -37.617  22.454   2.524  0.00  0.00    +0.021 C 
ATOM      7  C   UNL     1     -36.574  20.358   1.927  0.00  0.00    +0.065 C 
ATOM      8  C   UNL     1     -35.512  20.642   2.784  0.00  0.00    +0.017 C 
ATOM      9  C   UNL     1     -37.627  21.264   1.796  0.00  0.00    +0.017 C 
BRANCH   7  10
ATOM     10  N   UNL     1     -36.586  19.139   1.182  0.00  0.00    -0.219 N 
ATOM     11  H   UNL     1     -37.259  18.443   1.362  0.00  0.00    +0.173 HD
BRANCH  10  12
ATOM     12  S   UNL     1     -35.390  18.920  -0.037  0.00  0.00    +0.056 S 
ATOM     13  O   UNL     1     -35.289  20.148  -0.804  0.00  0.00    -0.154 OA
ATOM     14  O   UNL     1     -34.204  18.291   0.507  0.00  0.00    -0.154 OA
ATOM     15  C   UNL     1     -36.213  17.730  -1.074  0.00  0.00    +0.200 C 
ENDBRANCH  10  12
ENDBRANCH   7  10
ENDBRANCH   1   4
BRANCH   1  16
ATOM     16  N   UNL     1     -35.375  25.176   3.448  0.00  0.00    -0.159 NA
BRANCH  16  17
ATOM     17  C   UNL     1     -35.399  25.143   1.964  0.00  0.00    +0.080 C 
ATOM     18  C   UNL     1     -35.744  26.530   1.431  0.00  0.00    +0.019 C 
ATOM     19  C   UNL     1     -34.054  24.666   1.424  0.00  0.00    +0.019 C 
ENDBRANCH  16  17
BRANCH  16  20
ATOM     20  C   UNL     1     -35.076  26.533   3.971  0.00  0.00    +0.073 C 
BRANCH  20  21
ATOM     21  C   UNL     1     -33.741  26.510   4.700  0.00  0.00    -0.062 C 
BRANCH  21  22
ATOM     22  N   UNL     1     -33.175  27.850   4.763  0.00  0.00    +0.386 N 
ATOM     23  H   UNL     1     -33.922  28.520   4.944  0.00  0.00    -0.084 HD
ATOM     24  H   UNL     1     -32.722  28.055   3.872  0.00  0.00    -0.084 HD
BRANCH  22  25
ATOM     25  C   UNL     1     -32.181  27.946   5.823  0.00  0.00    -0.062 C 
ATOM     26  C   UNL     1     -32.662  27.206   7.068  0.00  0.00    -0.023 C 
ATOM     27  C   UNL     1     -31.907  29.415   6.131  0.00  0.00    -0.023 C 
ENDBRANCH  22  25
ENDBRANCH  21  22
ENDBRANCH  20  21
ENDBRANCH  16  20
ENDBRANCH   1  16
TORSDOF 9
ENDMDL
MODEL 2
REMARK VINA RESULT:      -5.4      3.236      7.176
REMARK  Name = 60667
REMARK  9 active torsions:
REMARK  status: ('A' for Active; 'I' for Inactive)
REMARK    1  A    between atoms: S_1  and  C_4
REMARK    2  A    between atoms: S_1  and  N_16
REMARK    3  A    between atoms: C_7  and  N_10
REMARK    4  A    between atoms: N_10  and  S_12
REMARK    5  A    between atoms: N_16  and  C_17
REMARK    6  A    between atoms: N_16  and  C_20
REMARK    7  A    between atoms: C_20  and  C_21
REMARK    8  A    between atoms: C_21  and  N_22
REMARK    9  A    between atoms: N_22  and  C_25
REMARK                            x       y       z     vdW  Elec       q    Type
REMARK                         _______ _______ _______ _____ _____    ______ ____
ROOT
ATOM      1  S   UNL     1     -36.320  24.598   0.853  0.00  0.00    +0.063 S 
ATOM      2  O   UNL     1     -37.166  25.552   0.159  0.00  0.00    -0.153 OA
ATOM      3  O   UNL     1     -35.418  23.755   0.089  0.00  0.00    -0.153 OA
ENDROOT
BRANCH   1   4
ATOM      4  C   UNL     1     -35.334  25.512   2.005  0.00  0.00    +0.122 C 
ATOM      5  C   UNL     1     -35.859  26.652   2.584  0.00  0.00    +0.021 C 
ATOM      6  C   UNL     1     -34.060  25.064   2.303  0.00  0.00    +0.021 C 
ATOM      7  C   UNL     1     -33.795  26.938   3.806  0.00  0.00    +0.065 C 
ATOM      8  C   UNL     1     -35.083  27.371   3.493  0.00  0.00    +0.017 C 
ATOM      9  C   UNL     1     -33.283  25.784   3.211  0.00  0.00    +0.017 C 
BRANCH   7  10
ATOM     10  N   UNL     1     -32.999  27.673   4.736  0.00  0.00    -0.219 N 
ATOM     11  H   UNL     1     -32.864  27.347   5.655  0.00  0.00    +0.173 HD
BRANCH  10  12
ATOM     12  S   UNL     1     -32.284  29.147   4.207  0.00  0.00    +0.056 S 
ATOM     13  O   UNL     1     -32.150  29.098   2.763  0.00  0.00    -0.154 OA
ATOM     14  O   UNL     1     -32.906  30.287   4.851  0.00  0.00    -0.154 OA
ATOM     15  C   UNL     1     -30.648  28.963   4.883  0.00  0.00    +0.200 C 
ENDBRANCH  10  12
ENDBRANCH   7  10
ENDBRANCH   1   4
BRANCH   1  16
ATOM     16  N   UNL     1     -37.290  23.614   1.885  0.00  0.00    -0.159 NA
BRANCH  16  17
ATOM     17  C   UNL     1     -38.744  23.910   1.956  0.00  0.00    +0.080 C 
ATOM     18  C   UNL     1     -39.529  22.602   1.956  0.00  0.00    +0.019 C 
ATOM     19  C   UNL     1     -39.054  24.737   3.200  0.00  0.00    +0.019 C 
ENDBRANCH  16  17
BRANCH  16  20
ATOM     20  C   UNL     1     -37.017  22.155   1.909  0.00  0.00    +0.073 C 
BRANCH  20  21
ATOM     21  C   UNL     1     -36.020  21.847   3.016  0.00  0.00    -0.062 C 
BRANCH  21  22
ATOM     22  N   UNL     1     -36.489  22.387   4.285  0.00  0.00    +0.386 N 
ATOM     23  H   UNL     1     -36.967  21.652   4.805  0.00  0.00    -0.084 HD
ATOM     24  H   UNL     1     -37.127  23.161   4.094  0.00  0.00    -0.084 HD
BRANCH  22  25
ATOM     25  C   UNL     1     -35.376  22.888   5.080  0.00  0.00    -0.062 C 
ATOM     26  C   UNL     1     -35.092  21.944   6.245  0.00  0.00    -0.023 C 
ATOM     27  C   UNL     1     -35.700  24.292   5.580  0.00  0.00    -0.023 C 
ENDBRANCH  22  25
ENDBRANCH  21  22
ENDBRANCH  20  21
ENDBRANCH  16  20
ENDBRANCH   1  16
TORSDOF 9
ENDMDL
MODEL 3
REMARK VINA RESULT:      -5.4      2.808      3.344
REMARK  Name = 60667
REMARK  9 active torsions:
REMARK  status: ('A' for Active; 'I' for Inactive)
REMARK    1  A    between atoms: S_1  and  C_4
REMARK    2  A    between atoms: S_1  and  N_16
REMARK    3  A    between atoms: C_7  and  N_10
REMARK    4  A    between atoms: N_10  and  S_12
REMARK    5  A    between atoms: N_16  and  C_17
REMARK    6  A    between atoms: N_16  and  C_20
REMARK    7  A    between atoms: C_20  and  C_21
REMARK    8  A    between atoms: C_21  and  N_22
REMARK    9  A    between atoms: N_22  and  C_25
REMARK                            x       y       z     vdW  Elec       q    Type
REMARK                         _______ _______ _______ _____ _____    ______ ____
ROOT
ATOM      1  S   UNL     1     -37.720  23.130   1.674  0.00  0.00    +0.063 S 
ATOM      2  O   UNL     1     -38.342  23.379   0.387  0.00  0.00    -0.153 OA
ATOM      3  O   UNL     1     -38.555  22.876   2.834  0.00  0.00    -0.153 OA
ENDROOT
BRANCH   1   4
ATOM      4  C   UNL     1     -36.652  21.731   1.480  0.00  0.00    +0.122 C 
ATOM      5  C   UNL     1     -35.865  21.333   2.544  0.00  0.00    +0.021 C 
ATOM      6  C   UNL     1     -36.630  21.066   0.268  0.00  0.00    +0.021 C 
ATOM      7  C   UNL     1     -34.986  19.546   1.177  0.00  0.00    +0.065 C 
ATOM      8  C   UNL     1     -35.025  20.230   2.392  0.00  0.00    +0.017 C 
ATOM      9  C   UNL     1     -35.789  19.963   0.115  0.00  0.00    +0.017 C 
BRANCH   7  10
ATOM     10  N   UNL     1     -34.127  18.416   1.020  0.00  0.00    -0.219 N 
ATOM     11  H   UNL     1     -34.478  17.499   1.094  0.00  0.00    +0.173 HD
BRANCH  10  12
ATOM     12  S   UNL     1     -32.460  18.702   0.698  0.00  0.00    +0.056 S 
ATOM     13  O   UNL     1     -32.254  20.134   0.584  0.00  0.00    -0.154 OA
ATOM     14  O   UNL     1     -31.619  17.904   1.568  0.00  0.00    -0.154 OA
ATOM     15  C   UNL     1     -32.338  18.030  -0.945  0.00  0.00    +0.200 C 
ENDBRANCH  10  12
ENDBRANCH   7  10
ENDBRANCH   1   4
BRANCH   1  16
ATOM     16  N   UNL     1     -36.612  24.403   2.033  0.00  0.00    -0.159 NA
BRANCH  16  17
ATOM     17  C   UNL     1     -35.685  24.837   0.956  0.00  0.00    +0.080 C 
ATOM     18  C   UNL     1     -35.871  26.329   0.698  0.00  0.00    +0.019 C 
ATOM     19  C   UNL     1     -34.243  24.521   1.342  0.00  0.00    +0.019 C 
ENDBRANCH  16  17
BRANCH  16  20
ATOM     20  C   UNL     1     -37.109  25.548   2.835  0.00  0.00    +0.073 C 
BRANCH  20  21
ATOM     21  C   UNL     1     -36.483  25.502   4.222  0.00  0.00    -0.062 C 
BRANCH  21  22
ATOM     22  N   UNL     1     -36.581  24.159   4.776  0.00  0.00    +0.386 N 
ATOM     23  H   UNL     1     -36.589  23.482   4.014  0.00  0.00    -0.084 HD
ATOM     24  H   UNL     1     -37.442  24.093   5.320  0.00  0.00    -0.084 HD
BRANCH  22  25
ATOM     25  C   UNL     1     -35.453  23.875   5.654  0.00  0.00    -0.062 C 
ATOM     26  C   UNL     1     -34.140  24.214   4.954  0.00  0.00    -0.023 C 
ATOM     27  C   UNL     1     -35.490  22.408   6.069  0.00  0.00    -0.023 C 
ENDBRANCH  22  25
ENDBRANCH  21  22
ENDBRANCH  20  21
ENDBRANCH  16  20
ENDBRANCH   1  16
TORSDOF 9
ENDMDL
MODEL 4
REMARK VINA RESULT:      -5.4      4.418      7.519
REMARK  Name = 60667
REMARK  9 active torsions:
REMARK  status: ('A' for Active; 'I' for Inactive)
REMARK    1  A    between atoms: S_1  and  C_4
REMARK    2  A    between atoms: S_1  and  N_16
REMARK    3  A    between atoms: C_7  and  N_10
REMARK    4  A    between atoms: N_10  and  S_12
REMARK    5  A    between atoms: N_16  and  C_17
REMARK    6  A    between atoms: N_16  and  C_20
REMARK    7  A    between atoms: C_20  and  C_21
REMARK    8  A    between atoms: C_21  and  N_22
REMARK    9  A    between atoms: N_22  and  C_25
REMARK                            x       y       z     vdW  Elec       q    Type
REMARK                         _______ _______ _______ _____ _____    ______ ____
ROOT
ATOM      1  S   UNL     1     -37.277  24.621   1.290  0.00  0.00    +0.063 S 
ATOM      2  O   UNL     1     -37.160  24.823  -0.143  0.00  0.00    -0.153 OA
ATOM      3  O   UNL     1     -36.281  25.198   2.175  0.00  0.00    -0.153 OA
ENDROOT
BRANCH   1   4
ATOM      4  C   UNL     1     -38.852  25.260   1.784  0.00  0.00    +0.122 C 
ATOM      5  C   UNL     1     -39.242  25.143   3.104  0.00  0.00    +0.021 C 
ATOM      6  C   UNL     1     -39.659  25.865   0.837  0.00  0.00    +0.021 C 
ATOM      7  C   UNL     1     -41.312  26.259   2.554  0.00  0.00    +0.065 C 
ATOM      8  C   UNL     1     -40.482  25.647   3.494  0.00  0.00    +0.017 C 
ATOM      9  C   UNL     1     -40.900  26.368   1.226  0.00  0.00    +0.017 C 
BRANCH   7  10
ATOM     10  N   UNL     1     -42.582  26.776   2.952  0.00  0.00    -0.219 N 
ATOM     11  H   UNL     1     -43.381  26.201   2.965  0.00  0.00    +0.173 HD
BRANCH  10  12
ATOM     12  S   UNL     1     -42.678  28.434   3.408  0.00  0.00    +0.056 S 
ATOM     13  O   UNL     1     -41.922  28.617   4.633  0.00  0.00    -0.154 OA
ATOM     14  O   UNL     1     -42.453  29.299   2.267  0.00  0.00    -0.154 OA
ATOM     15  C   UNL     1     -44.400  28.541   3.843  0.00  0.00    +0.200 C 
ENDBRANCH  10  12
ENDBRANCH   7  10
ENDBRANCH   1   4
BRANCH   1  16
ATOM     16  N   UNL     1     -37.432  22.936   1.621  0.00  0.00    -0.159 NA
BRANCH  16  17
ATOM     17  C   UNL     1     -38.503  22.188   0.915  0.00  0.00    +0.080 C 
ATOM     18  C   UNL     1     -37.877  21.095   0.055  0.00  0.00    +0.019 C 
ATOM     19  C   UNL     1     -39.487  21.599   1.922  0.00  0.00    +0.019 C 
ENDBRANCH  16  17
BRANCH  16  20
ATOM     20  C   UNL     1     -36.187  22.138   1.750  0.00  0.00    +0.073 C 
BRANCH  20  21
ATOM     21  C   UNL     1     -36.061  21.628   3.178  0.00  0.00    -0.062 C 
BRANCH  21  22
ATOM     22  N   UNL     1     -36.550  22.628   4.118  0.00  0.00    +0.386 N 
ATOM     23  H   UNL     1     -37.320  22.233   4.656  0.00  0.00    -0.084 HD
ATOM     24  H   UNL     1     -36.864  23.444   3.591  0.00  0.00    -0.084 HD
BRANCH  22  25
ATOM     25  C   UNL     1     -35.494  23.043   5.032  0.00  0.00    -0.062 C 
ATOM     26  C   UNL     1     -35.433  22.102   6.232  0.00  0.00    -0.023 C 
ATOM     27  C   UNL     1     -35.743  24.481   5.475  0.00  0.00    -0.023 C 
ENDBRANCH  22  25
ENDBRANCH  21  22
ENDBRANCH  20  21
ENDBRANCH  16  20
ENDBRANCH   1  16
TORSDOF 9
ENDMDL
MODEL 5
REMARK VINA RESULT:      -5.3      3.078      7.127
REMARK  Name = 60667
REMARK  9 active torsions:
REMARK  status: ('A' for Active; 'I' for Inactive)
REMARK    1  A    between atoms: S_1  and  C_4
REMARK    2  A    between atoms: S_1  and  N_16
REMARK    3  A    between atoms: C_7  and  N_10
REMARK    4  A    between atoms: N_10  and  S_12
REMARK    5  A    between atoms: N_16  and  C_17
REMARK    6  A    between atoms: N_16  and  C_20
REMARK    7  A    between atoms: C_20  and  C_21
REMARK    8  A    between atoms: C_21  and  N_22
REMARK    9  A    between atoms: N_22  and  C_25
REMARK                            x       y       z     vdW  Elec       q    Type
REMARK                         _______ _______ _______ _____ _____    ______ ____
ROOT
ATOM      1  S   UNL     1     -36.042  24.748   0.767  0.00  0.00    +0.063 S 
ATOM      2  O   UNL     1     -36.863  25.498  -0.167  0.00  0.00    -0.153 OA
ATOM      3  O   UNL     1     -35.037  23.832   0.258  0.00  0.00    -0.153 OA
ENDROOT
BRANCH   1   4
ATOM      4  C   UNL     1     -35.207  25.924   1.794  0.00  0.00    +0.122 C 
ATOM      5  C   UNL     1     -34.046  25.547   2.441  0.00  0.00    +0.021 C 
ATOM      6  C   UNL     1     -35.735  27.195   1.927  0.00  0.00    +0.021 C 
ATOM      7  C   UNL     1     -33.904  27.761   3.397  0.00  0.00    +0.065 C 
ATOM      8  C   UNL     1     -33.387  26.474   3.249  0.00  0.00    +0.017 C 
ATOM      9  C   UNL     1     -35.078  28.122   2.736  0.00  0.00    +0.017 C 
BRANCH   7  10
ATOM     10  N   UNL     1     -33.230  28.710   4.224  0.00  0.00    -0.219 N 
ATOM     11  H   UNL     1     -33.400  29.675   4.129  0.00  0.00    +0.173 HD
BRANCH  10  12
ATOM     12  S   UNL     1     -32.111  28.121   5.393  0.00  0.00    +0.056 S 
ATOM     13  O   UNL     1     -32.817  27.228   6.293  0.00  0.00    -0.154 OA
ATOM     14  O   UNL     1     -30.874  27.705   4.763  0.00  0.00    -0.154 OA
ATOM     15  C   UNL     1     -31.786  29.617   6.300  0.00  0.00    +0.200 C 
ENDBRANCH  10  12
ENDBRANCH   7  10
ENDBRANCH   1   4
BRANCH   1  16
ATOM     16  N   UNL     1     -37.058  23.921   1.888  0.00  0.00    -0.159 NA
BRANCH  16  17
ATOM     17  C   UNL     1     -38.463  24.384   2.022  0.00  0.00    +0.080 C 
ATOM     18  C   UNL     1     -39.393  23.177   2.074  0.00  0.00    +0.019 C 
ATOM     19  C   UNL     1     -38.617  25.251   3.268  0.00  0.00    +0.019 C 
ENDBRANCH  16  17
BRANCH  16  20
ATOM     20  C   UNL     1     -36.950  22.443   1.962  0.00  0.00    +0.073 C 
BRANCH  20  21
ATOM     21  C   UNL     1     -35.988  22.061   3.077  0.00  0.00    -0.062 C 
BRANCH  21  22
ATOM     22  N   UNL     1     -36.490  22.534   4.361  0.00  0.00    +0.386 N 
ATOM     23  H   UNL     1     -36.974  21.770   4.832  0.00  0.00    -0.084 HD
ATOM     24  H   UNL     1     -37.128  23.312   4.195  0.00  0.00    -0.084 HD
BRANCH  22  25
ATOM     25  C   UNL     1     -35.398  22.999   5.206  0.00  0.00    -0.062 C 
ATOM     26  C   UNL     1     -35.302  22.142   6.465  0.00  0.00    -0.023 C 
ATOM     27  C   UNL     1     -35.619  24.467   5.558  0.00  0.00    -0.023 C 
ENDBRANCH  22  25
ENDBRANCH  21  22
ENDBRANCH  20  21
ENDBRANCH  16  20
ENDBRANCH   1  16
TORSDOF 9
ENDMDL
MODEL 6
REMARK VINA RESULT:      -5.3      2.801      7.832
REMARK  Name = 60667
REMARK  9 active torsions:
REMARK  status: ('A' for Active; 'I' for Inactive)
REMARK    1  A    between atoms: S_1  and  C_4
REMARK    2  A    between atoms: S_1  and  N_16
REMARK    3  A    between atoms: C_7  and  N_10
REMARK    4  A    between atoms: N_10  and  S_12
REMARK    5  A    between atoms: N_16  and  C_17
REMARK    6  A    between atoms: N_16  and  C_20
REMARK    7  A    between atoms: C_20  and  C_21
REMARK    8  A    between atoms: C_21  and  N_22
REMARK    9  A    between atoms: N_22  and  C_25
REMARK                            x       y       z     vdW  Elec       q    Type
REMARK                         _______ _______ _______ _____ _____    ______ ____
ROOT
ATOM      1  S   UNL     1     -35.763  22.831   4.247  0.00  0.00    +0.063 S 
ATOM      2  O   UNL     1     -34.818  21.883   3.686  0.00  0.00    -0.153 OA
ATOM      3  O   UNL     1     -36.324  22.585   5.564  0.00  0.00    -0.153 OA
ENDROOT
BRANCH   1   4
ATOM      4  C   UNL     1     -34.957  24.406   4.306  0.00  0.00    +0.122 C 
ATOM      5  C   UNL     1     -34.076  24.748   3.297  0.00  0.00    +0.021 C 
ATOM      6  C   UNL     1     -35.227  25.261   5.358  0.00  0.00    +0.021 C 
ATOM      7  C   UNL     1     -33.699  26.866   4.396  0.00  0.00    +0.065 C 
ATOM      8  C   UNL     1     -33.441  25.989   3.343  0.00  0.00    +0.017 C 
ATOM      9  C   UNL     1     -34.592  26.502   5.404  0.00  0.00    +0.017 C 
BRANCH   7  10
ATOM     10  N   UNL     1     -33.050  28.137   4.443  0.00  0.00    -0.219 N 
ATOM     11  H   UNL     1     -33.273  28.843   3.794  0.00  0.00    +0.173 HD
BRANCH  10  12
ATOM     12  S   UNL     1     -31.866  28.401   5.666  0.00  0.00    +0.056 S 
ATOM     13  O   UNL     1     -32.150  29.670   6.311  0.00  0.00    -0.154 OA
ATOM     14  O   UNL     1     -31.660  27.203   6.455  0.00  0.00    -0.154 OA
ATOM     15  C   UNL     1     -30.421  28.647   4.657  0.00  0.00    +0.200 C 
ENDBRANCH  10  12
ENDBRANCH   7  10
ENDBRANCH   1   4
BRANCH   1  16
ATOM     16  N   UNL     1     -37.041  23.103   3.122  0.00  0.00    -0.159 NA
BRANCH  16  17
ATOM     17  C   UNL     1     -37.538  24.494   2.961  0.00  0.00    +0.080 C 
ATOM     18  C   UNL     1     -37.283  24.962   1.533  0.00  0.00    +0.019 C 
ATOM     19  C   UNL     1     -39.022  24.567   3.307  0.00  0.00    +0.019 C 
ENDBRANCH  16  17
BRANCH  16  20
ATOM     20  C   UNL     1     -36.992  22.377   1.828  0.00  0.00    +0.073 C 
BRANCH  20  21
ATOM     21  C   UNL     1     -37.706  21.041   1.972  0.00  0.00    -0.062 C 
BRANCH  21  22
ATOM     22  N   UNL     1     -36.738  19.966   2.141  0.00  0.00    +0.386 N 
ATOM     23  H   UNL     1     -37.235  19.095   2.324  0.00  0.00    -0.084 HD
ATOM     24  H   UNL     1     -36.126  20.199   2.923  0.00  0.00    -0.084 HD
BRANCH  22  25
ATOM     25  C   UNL     1     -35.923  19.807   0.944  0.00  0.00    -0.062 C 
ATOM     26  C   UNL     1     -36.496  18.705   0.056  0.00  0.00    -0.023 C 
ATOM     27  C   UNL     1     -34.485  19.494   1.347  0.00  0.00    -0.023 C 
ENDBRANCH  22  25
ENDBRANCH  21  22
ENDBRANCH  20  21
ENDBRANCH  16  20
ENDBRANCH   1  16
TORSDOF 9
ENDMDL
MODEL 7
REMARK VINA RESULT:      -5.2      2.925      4.970
REMARK  Name = 60667
REMARK  9 active torsions:
REMARK  status: ('A' for Active; 'I' for Inactive)
REMARK    1  A    between atoms: S_1  and  C_4
REMARK    2  A    between atoms: S_1  and  N_16
REMARK    3  A    between atoms: C_7  and  N_10
REMARK    4  A    between atoms: N_10  and  S_12
REMARK    5  A    between atoms: N_16  and  C_17
REMARK    6  A    between atoms: N_16  and  C_20
REMARK    7  A    between atoms: C_20  and  C_21
REMARK    8  A    between atoms: C_21  and  N_22
REMARK    9  A    between atoms: N_22  and  C_25
REMARK                            x       y       z     vdW  Elec       q    Type
REMARK                         _______ _______ _______ _____ _____    ______ ____
ROOT
ATOM      1  S   UNL     1     -35.028  24.327   2.163  0.00  0.00    +0.063 S 
ATOM      2  O   UNL     1     -33.695  24.776   2.522  0.00  0.00    -0.153 OA
ATOM      3  O   UNL     1     -35.744  24.998   1.093  0.00  0.00    -0.153 OA
ENDROOT
BRANCH   1   4
ATOM      4  C   UNL     1     -34.906  22.617   1.722  0.00  0.00    +0.122 C 
ATOM      5  C   UNL     1     -34.318  22.273   0.519  0.00  0.00    +0.021 C 
ATOM      6  C   UNL     1     -35.400  21.661   2.591  0.00  0.00    +0.021 C 
ATOM      7  C   UNL     1     -34.713  19.946   1.034  0.00  0.00    +0.065 C 
ATOM      8  C   UNL     1     -34.220  20.926   0.172  0.00  0.00    +0.017 C 
ATOM      9  C   UNL     1     -35.303  20.314   2.243  0.00  0.00    +0.017 C 
BRANCH   7  10
ATOM     10  N   UNL     1     -34.613  18.566   0.679  0.00  0.00    -0.219 N 
ATOM     11  H   UNL     1     -35.419  18.017   0.551  0.00  0.00    +0.173 HD
BRANCH  10  12
ATOM     12  S   UNL     1     -33.041  17.890   0.483  0.00  0.00    +0.056 S 
ATOM     13  O   UNL     1     -32.456  18.434  -0.728  0.00  0.00    -0.154 OA
ATOM     14  O   UNL     1     -32.306  17.915   1.732  0.00  0.00    -0.154 OA
ATOM     15  C   UNL     1     -33.469  16.198   0.136  0.00  0.00    +0.200 C 
ENDBRANCH  10  12
ENDBRANCH   7  10
ENDBRANCH   1   4
BRANCH   1  16
ATOM     16  N   UNL     1     -36.018  24.282   3.575  0.00  0.00    -0.159 NA
BRANCH  16  17
ATOM     17  C   UNL     1     -35.367  24.534   4.885  0.00  0.00    +0.080 C 
ATOM     18  C   UNL     1     -35.984  25.771   5.530  0.00  0.00    +0.019 C 
ATOM     19  C   UNL     1     -35.510  23.313   5.790  0.00  0.00    +0.019 C 
ENDBRANCH  16  17
BRANCH  16  20
ATOM     20  C   UNL     1     -37.367  24.897   3.496  0.00  0.00    +0.073 C 
BRANCH  20  21
ATOM     21  C   UNL     1     -38.363  23.867   2.986  0.00  0.00    -0.062 C 
BRANCH  21  22
ATOM     22  N   UNL     1     -38.607  24.060   1.563  0.00  0.00    +0.386 N 
ATOM     23  H   UNL     1     -37.753  24.396   1.120  0.00  0.00    -0.084 HD
ATOM     24  H   UNL     1     -39.359  24.740   1.451  0.00  0.00    -0.084 HD
BRANCH  22  25
ATOM     25  C   UNL     1     -39.011  22.811   0.931  0.00  0.00    -0.062 C 
ATOM     26  C   UNL     1     -39.087  21.693   1.968  0.00  0.00    -0.023 C 
ATOM     27  C   UNL     1     -38.025  22.462  -0.180  0.00  0.00    -0.023 C 
ENDBRANCH  22  25
ENDBRANCH  21  22
ENDBRANCH  20  21
ENDBRANCH  16  20
ENDBRANCH   1  16
TORSDOF 9
ENDMDL
MODEL 8
REMARK VINA RESULT:      -5.2      1.664      2.107
REMARK  Name = 60667
REMARK  9 active torsions:
REMARK  status: ('A' for Active; 'I' for Inactive)
REMARK    1  A    between atoms: S_1  and  C_4
REMARK    2  A    between atoms: S_1  and  N_16
REMARK    3  A    between atoms: C_7  and  N_10
REMARK    4  A    between atoms: N_10  and  S_12
REMARK    5  A    between atoms: N_16  and  C_17
REMARK    6  A    between atoms: N_16  and  C_20
REMARK    7  A    between atoms: C_20  and  C_21
REMARK    8  A    between atoms: C_21  and  N_22
REMARK    9  A    between atoms: N_22  and  C_25
REMARK                            x       y       z     vdW  Elec       q    Type
REMARK                         _______ _______ _______ _____ _____    ______ ____
ROOT
ATOM      1  S   UNL     1     -37.732  24.400   3.310  0.00  0.00    +0.063 S 
ATOM      2  O   UNL     1     -39.183  24.367   3.284  0.00  0.00    -0.153 OA
ATOM      3  O   UNL     1     -37.046  24.670   4.561  0.00  0.00    -0.153 OA
ENDROOT
BRANCH   1   4
ATOM      4  C   UNL     1     -37.160  22.829   2.727  0.00  0.00    +0.122 C 
ATOM      5  C   UNL     1     -35.960  22.332   3.199  0.00  0.00    +0.021 C 
ATOM      6  C   UNL     1     -37.928  22.131   1.812  0.00  0.00    +0.021 C 
ATOM      7  C   UNL     1     -36.268  20.375   1.817  0.00  0.00    +0.065 C 
ATOM      8  C   UNL     1     -35.510  21.094   2.741  0.00  0.00    +0.017 C 
ATOM      9  C   UNL     1     -37.477  20.894   1.352  0.00  0.00    +0.017 C 
BRANCH   7  10
ATOM     10  N   UNL     1     -35.809  19.107   1.348  0.00  0.00    -0.219 N 
ATOM     11  H   UNL     1     -36.372  18.304   1.427  0.00  0.00    +0.173 HD
BRANCH  10  12
ATOM     12  S   UNL     1     -34.241  19.022   0.640  0.00  0.00    +0.056 S 
ATOM     13  O   UNL     1     -34.077  20.158  -0.247  0.00  0.00    -0.154 OA
ATOM     14  O   UNL     1     -33.237  18.717   1.639  0.00  0.00    -0.154 OA
ATOM     15  C   UNL     1     -34.440  17.586  -0.392  0.00  0.00    +0.200 C 
ENDBRANCH  10  12
ENDBRANCH   7  10
ENDBRANCH   1   4
BRANCH   1  16
ATOM     16  N   UNL     1     -37.161  25.483   2.096  0.00  0.00    -0.159 NA
BRANCH  16  17
ATOM     17  C   UNL     1     -37.712  25.339   0.724  0.00  0.00    +0.080 C 
ATOM     18  C   UNL     1     -38.417  26.630   0.322  0.00  0.00    +0.019 C 
ATOM     19  C   UNL     1     -36.598  24.992  -0.259  0.00  0.00    +0.019 C 
ENDBRANCH  16  17
BRANCH  16  20
ATOM     20  C   UNL     1     -36.968  26.906   2.472  0.00  0.00    +0.073 C 
BRANCH  20  21
ATOM     21  C   UNL     1     -35.496  27.157   2.762  0.00  0.00    -0.062 C 
BRANCH  21  22
ATOM     22  N   UNL     1     -35.259  27.173   4.199  0.00  0.00    +0.386 N 
ATOM     23  H   UNL     1     -35.996  26.645   4.665  0.00  0.00    -0.084 HD
ATOM     24  H   UNL     1     -35.258  28.142   4.518  0.00  0.00    -0.084 HD
BRANCH  22  25
ATOM     25  C   UNL     1     -33.969  26.576   4.520  0.00  0.00    -0.062 C 
ATOM     26  C   UNL     1     -33.717  25.356   3.640  0.00  0.00    -0.023 C 
ATOM     27  C   UNL     1     -33.937  26.201   5.999  0.00  0.00    -0.023 C 
ENDBRANCH  22  25
ENDBRANCH  21  22
ENDBRANCH  20  21
ENDBRANCH  16  20
ENDBRANCH   1  16
TORSDOF 9
ENDMDL
MODEL 9
REMARK VINA RESULT:      -5.1      3.583      5.254
REMARK  Name = 60667
REMARK  9 active torsions:
REMARK  status: ('A' for Active; 'I' for Inactive)
REMARK    1  A    between atoms: S_1  and  C_4
REMARK    2  A    between atoms: S_1  and  N_16
REMARK    3  A    between atoms: C_7  and  N_10
REMARK    4  A    between atoms: N_10  and  S_12
REMARK    5  A    between atoms: N_16  and  C_17
REMARK    6  A    between atoms: N_16  and  C_20
REMARK    7  A    between atoms: C_20  and  C_21
REMARK    8  A    between atoms: C_21  and  N_22
REMARK    9  A    between atoms: N_22  and  C_25
REMARK                            x       y       z     vdW  Elec       q    Type
REMARK                         _______ _______ _______ _____ _____    ______ ____
ROOT
ATOM      1  S   UNL     1     -35.434  21.572  -0.251  0.00  0.00    +0.063 S 
ATOM      2  O   UNL     1     -35.004  22.260  -1.455  0.00  0.00    -0.153 OA
ATOM      3  O   UNL     1     -36.675  20.819  -0.263  0.00  0.00    -0.153 OA
ENDROOT
BRANCH   1   4
ATOM      4  C   UNL     1     -34.143  20.449   0.202  0.00  0.00    +0.122 C 
ATOM      5  C   UNL     1     -34.477  19.227   0.754  0.00  0.00    +0.021 C 
ATOM      6  C   UNL     1     -32.826  20.818  -0.008  0.00  0.00    +0.021 C 
ATOM      7  C   UNL     1     -32.126  18.694   0.907  0.00  0.00    +0.065 C 
ATOM      8  C   UNL     1     -33.460  18.341   1.109  0.00  0.00    +0.017 C 
ATOM      9  C   UNL     1     -31.809  19.933   0.349  0.00  0.00    +0.017 C 
BRANCH   7  10
ATOM     10  N   UNL     1     -31.084  17.788   1.271  0.00  0.00    -0.219 N 
ATOM     11  H   UNL     1     -30.714  17.782   2.183  0.00  0.00    +0.173 HD
BRANCH  10  12
ATOM     12  S   UNL     1     -30.492  16.706   0.068  0.00  0.00    +0.056 S 
ATOM     13  O   UNL     1     -30.943  15.367   0.396  0.00  0.00    -0.154 OA
ATOM     14  O   UNL     1     -30.694  17.247  -1.261  0.00  0.00    -0.154 OA
ATOM     15  C   UNL     1     -28.749  16.766   0.423  0.00  0.00    +0.200 C 
ENDBRANCH  10  12
ENDBRANCH   7  10
ENDBRANCH   1   4
BRANCH   1  16
ATOM     16  N   UNL     1     -35.449  22.681   1.070  0.00  0.00    -0.159 NA
BRANCH  16  17
ATOM     17  C   UNL     1     -35.164  24.109   0.778  0.00  0.00    +0.080 C 
ATOM     18  C   UNL     1     -36.268  24.979   1.370  0.00  0.00    +0.019 C 
ATOM     19  C   UNL     1     -33.798  24.500   1.335  0.00  0.00    +0.019 C 
ENDBRANCH  16  17
BRANCH  16  20
ATOM     20  C   UNL     1     -36.511  22.524   2.095  0.00  0.00    +0.073 C 
BRANCH  20  21
ATOM     21  C   UNL     1     -35.884  22.078   3.407  0.00  0.00    -0.062 C 
BRANCH  21  22
ATOM     22  N   UNL     1     -36.530  22.744   4.530  0.00  0.00    +0.386 N 
ATOM     23  H   UNL     1     -37.224  22.117   4.935  0.00  0.00    -0.084 HD
ATOM     24  H   UNL     1     -36.974  23.597   4.190  0.00  0.00    -0.084 HD
BRANCH  22  25
ATOM     25  C   UNL     1     -35.556  23.102   5.552  0.00  0.00    -0.062 C 
ATOM     26  C   UNL     1     -34.515  24.060   4.979  0.00  0.00    -0.023 C 
ATOM     27  C   UNL     1     -34.897  21.836   6.091  0.00  0.00    -0.023 C 
ENDBRANCH  22  25
ENDBRANCH  21  22
ENDBRANCH  20  21
ENDBRANCH  16  20
ENDBRANCH   1  16
TORSDOF 9
ENDMDL
