MODEL 1
REMARK VINA RESULT:      -6.6      0.000      0.000
REMARK  Name = 5487206
REMARK  3 active torsions:
REMARK  status: ('A' for Active; 'I' for Inactive)
REMARK    1  A    between atoms: C_7  and  O_23
REMARK    2  A    between atoms: C_8  and  N_14
REMARK    3  A    between atoms: C_10  and  O_25
REMARK                            x       y       z     vdW  Elec       q    Type
REMARK                         _______ _______ _______ _____ _____    ______ ____
ROOT
ATOM      1  S   UNL     1     -36.318  25.328   4.875  0.00  0.00    +0.049 S 
ATOM      2  P   UNL     1     -35.070  23.656   5.193  0.00  0.00    +0.106 P 
ATOM      3  O   UNL     1     -36.914  22.640   1.239  0.00  0.00    -0.330 OA
ATOM      4  O   UNL     1     -35.172  22.994   3.714  0.00  0.00    -0.332 OA
ATOM      5  O   UNL     1     -37.650  24.528   4.265  0.00  0.00    -0.265 OA
ATOM      6  C   UNL     1     -36.275  22.120   3.470  0.00  0.00    +0.182 C 
ATOM      7  C   UNL     1     -35.802  20.988   2.574  0.00  0.00    +0.187 C 
ATOM      8  C   UNL     1     -36.035  21.506   1.156  0.00  0.00    +0.224 C 
ATOM      9  C   UNL     1     -37.343  22.796   2.606  0.00  0.00    +0.204 C 
ATOM     10  C   UNL     1     -37.598  24.283   2.861  0.00  0.00    +0.274 C 
ATOM     11  H   UNL     1     -35.562  22.818   6.173  0.00  0.00    +0.101 HD
ENDROOT
BRANCH   8  14
ATOM     12 CL   UNL     1     -31.603  17.837   1.131  0.00  0.00    -0.082 Cl
ATOM     13 CL   UNL     1     -29.545  19.621  -0.594  0.00  0.00    -0.086 Cl
ATOM     14  N   UNL     1     -34.801  21.883   0.461  0.00  0.00    -0.262 N 
ATOM     15  N   UNL     1     -33.389  23.119  -0.730  0.00  0.00    -0.251 NA
ATOM     16  C   UNL     1     -33.657  21.134   0.358  0.00  0.00    +0.066 C 
ATOM     17  C   UNL     1     -34.591  23.060  -0.204  0.00  0.00    +0.221 C 
ATOM     18  C   UNL     1     -32.791  21.927  -0.391  0.00  0.00    +0.074 C 
ATOM     19  C   UNL     1     -33.317  19.870   0.839  0.00  0.00    +0.028 C 
ATOM     20  C   UNL     1     -31.505  21.445  -0.685  0.00  0.00    +0.085 C 
ATOM     21  C   UNL     1     -32.032  19.406   0.537  0.00  0.00    +0.066 C 
ATOM     22  C   UNL     1     -31.140  20.178  -0.212  0.00  0.00    +0.052 C 
ENDBRANCH   8  14
BRANCH   7  23
ATOM     23  O   UNL     1     -36.635  19.845   2.767  0.00  0.00    -0.378 OA
ATOM     24  H   UNL     1     -37.399  20.091   3.312  0.00  0.00    +0.211 HD
ENDBRANCH   7  23
BRANCH  10  25
ATOM     25  O   UNL     1     -38.855  24.612   2.262  0.00  0.00    -0.358 OA
ATOM     26  H   UNL     1     -38.762  24.616   1.297  0.00  0.00    +0.213 HD
ENDBRANCH  10  25
TORSDOF 3
ENDMDL
MODEL 2
REMARK VINA RESULT:      -6.5      4.948      6.307
REMARK  Name = 5487206
REMARK  3 active torsions:
REMARK  status: ('A' for Active; 'I' for Inactive)
REMARK    1  A    between atoms: C_7  and  O_23
REMARK    2  A    between atoms: C_8  and  N_14
REMARK    3  A    between atoms: C_10  and  O_25
REMARK                            x       y       z     vdW  Elec       q    Type
REMARK                         _______ _______ _______ _____ _____    ______ ____
ROOT
ATOM      1  S   UNL     1     -34.730  20.245   1.672  0.00  0.00    +0.049 S 
ATOM      2  P   UNL     1     -35.950  21.537   0.533  0.00  0.00    +0.106 P 
ATOM      3  O   UNL     1     -35.835  23.675   4.468  0.00  0.00    -0.330 OA
ATOM      4  O   UNL     1     -35.981  22.801   1.553  0.00  0.00    -0.332 OA
ATOM      5  O   UNL     1     -35.581  20.306   3.107  0.00  0.00    -0.265 OA
ATOM      6  C   UNL     1     -36.971  22.778   2.581  0.00  0.00    +0.182 C 
ATOM      7  C   UNL     1     -37.473  24.196   2.797  0.00  0.00    +0.187 C 
ATOM      8  C   UNL     1     -36.536  24.771   3.858  0.00  0.00    +0.224 C 
ATOM      9  C   UNL     1     -36.357  22.439   3.942  0.00  0.00    +0.204 C 
ATOM     10  C   UNL     1     -35.232  21.401   3.952  0.00  0.00    +0.274 C 
ATOM     11  H   UNL     1     -37.208  21.011   0.317  0.00  0.00    +0.101 HD
ENDROOT
BRANCH   8  14
ATOM     12 CL   UNL     1     -32.638  27.081   7.404  0.00  0.00    -0.082 Cl
ATOM     13 CL   UNL     1     -31.139  28.969   5.263  0.00  0.00    -0.086 Cl
ATOM     14  N   UNL     1     -35.575  25.741   3.326  0.00  0.00    -0.262 N 
ATOM     15  N   UNL     1     -34.545  27.039   1.843  0.00  0.00    -0.251 NA
ATOM     16  C   UNL     1     -34.586  26.383   4.026  0.00  0.00    +0.066 C 
ATOM     17  C   UNL     1     -35.510  26.165   2.027  0.00  0.00    +0.221 C 
ATOM     18  C   UNL     1     -33.958  27.187   3.079  0.00  0.00    +0.074 C 
ATOM     19  C   UNL     1     -34.200  26.331   5.365  0.00  0.00    +0.028 C 
ATOM     20  C   UNL     1     -32.878  27.994   3.475  0.00  0.00    +0.085 C 
ATOM     21  C   UNL     1     -33.123  27.141   5.742  0.00  0.00    +0.066 C 
ATOM     22  C   UNL     1     -32.472  27.958   4.815  0.00  0.00    +0.052 C 
ENDBRANCH   8  14
BRANCH   7  23
ATOM     23  O   UNL     1     -38.790  24.160   3.346  0.00  0.00    -0.378 OA
ATOM     24  H   UNL     1     -38.738  23.961   4.294  0.00  0.00    +0.211 HD
ENDBRANCH   7  23
BRANCH  10  25
ATOM     25  O   UNL     1     -35.079  20.947   5.300  0.00  0.00    -0.358 OA
ATOM     26  H   UNL     1     -35.104  21.707   5.902  0.00  0.00    +0.213 HD
ENDBRANCH  10  25
TORSDOF 3
ENDMDL
MODEL 3
REMARK VINA RESULT:      -6.3      5.190      6.665
REMARK  Name = 5487206
REMARK  3 active torsions:
REMARK  status: ('A' for Active; 'I' for Inactive)
REMARK    1  A    between atoms: C_7  and  O_23
REMARK    2  A    between atoms: C_8  and  N_14
REMARK    3  A    between atoms: C_10  and  O_25
REMARK                            x       y       z     vdW  Elec       q    Type
REMARK                         _______ _______ _______ _____ _____    ______ ____
ROOT
ATOM      1  S   UNL     1     -34.765  20.727   1.947  0.00  0.00    +0.049 S 
ATOM      2  P   UNL     1     -35.721  22.365   1.020  0.00  0.00    +0.106 P 
ATOM      3  O   UNL     1     -35.696  23.670   5.306  0.00  0.00    -0.330 OA
ATOM      4  O   UNL     1     -35.690  23.401   2.270  0.00  0.00    -0.332 OA
ATOM      5  O   UNL     1     -35.724  20.624   3.310  0.00  0.00    -0.265 OA
ATOM      6  C   UNL     1     -36.762  23.312   3.210  0.00  0.00    +0.182 C 
ATOM      7  C   UNL     1     -37.110  24.716   3.677  0.00  0.00    +0.187 C 
ATOM      8  C   UNL     1     -36.208  24.946   4.887  0.00  0.00    +0.224 C 
ATOM      9  C   UNL     1     -36.313  22.639   4.510  0.00  0.00    +0.204 C 
ATOM     10  C   UNL     1     -35.323  21.479   4.379  0.00  0.00    +0.274 C 
ATOM     11  H   UNL     1     -37.008  22.062   0.626  0.00  0.00    +0.101 HD
ENDROOT
BRANCH   8  14
ATOM     12 CL   UNL     1     -36.652  28.700   0.550  0.00  0.00    -0.082 Cl
ATOM     13 CL   UNL     1     -33.779  30.125   0.885  0.00  0.00    -0.086 Cl
ATOM     14  N   UNL     1     -35.096  25.864   4.622  0.00  0.00    -0.262 N 
ATOM     15  N   UNL     1     -33.114  26.842   4.861  0.00  0.00    -0.251 NA
ATOM     16  C   UNL     1     -35.036  26.815   3.636  0.00  0.00    +0.066 C 
ATOM     17  C   UNL     1     -33.925  25.919   5.327  0.00  0.00    +0.221 C 
ATOM     18  C   UNL     1     -33.790  27.412   3.806  0.00  0.00    +0.074 C 
ATOM     19  C   UNL     1     -35.938  27.193   2.641  0.00  0.00    +0.028 C 
ATOM     20  C   UNL     1     -33.404  28.449   2.940  0.00  0.00    +0.085 C 
ATOM     21  C   UNL     1     -35.537  28.227   1.787  0.00  0.00    +0.066 C 
ATOM     22  C   UNL     1     -34.293  28.845   1.933  0.00  0.00    +0.052 C 
ENDBRANCH   8  14
BRANCH   7  23
ATOM     23  O   UNL     1     -38.464  24.750   4.125  0.00  0.00    -0.378 OA
ATOM     24  H   UNL     1     -38.841  25.626   3.948  0.00  0.00    +0.211 HD
ENDBRANCH   7  23
BRANCH  10  25
ATOM     25  O   UNL     1     -35.342  20.758   5.614  0.00  0.00    -0.358 OA
ATOM     26  H   UNL     1     -34.793  19.962   5.532  0.00  0.00    +0.213 HD
ENDBRANCH  10  25
TORSDOF 3
ENDMDL
MODEL 4
REMARK VINA RESULT:      -6.2      2.882      3.616
REMARK  Name = 5487206
REMARK  3 active torsions:
REMARK  status: ('A' for Active; 'I' for Inactive)
REMARK    1  A    between atoms: C_7  and  O_23
REMARK    2  A    between atoms: C_8  and  N_14
REMARK    3  A    between atoms: C_10  and  O_25
REMARK                            x       y       z     vdW  Elec       q    Type
REMARK                         _______ _______ _______ _____ _____    ______ ____
ROOT
ATOM      1  S   UNL     1     -39.001  26.684   0.877  0.00  0.00    +0.049 S 
ATOM      2  P   UNL     1     -37.067  26.158   0.213  0.00  0.00    +0.106 P 
ATOM      3  O   UNL     1     -37.843  22.981   3.275  0.00  0.00    -0.330 OA
ATOM      4  O   UNL     1     -36.959  24.699   0.919  0.00  0.00    -0.332 OA
ATOM      5  O   UNL     1     -38.780  26.416   2.510  0.00  0.00    -0.265 OA
ATOM      6  C   UNL     1     -36.499  24.667   2.271  0.00  0.00    +0.182 C 
ATOM      7  C   UNL     1     -35.635  23.431   2.456  0.00  0.00    +0.187 C 
ATOM      8  C   UNL     1     -36.620  22.341   2.876  0.00  0.00    +0.224 C 
ATOM      9  C   UNL     1     -37.651  24.409   3.247  0.00  0.00    +0.204 C 
ATOM     10  C   UNL     1     -38.994  25.066   2.920  0.00  0.00    +0.274 C 
ATOM     11  H   UNL     1     -36.102  27.031   0.673  0.00  0.00    +0.101 HD
ENDROOT
BRANCH   8  14
ATOM     12 CL   UNL     1     -32.540  18.539   1.458  0.00  0.00    -0.082 Cl
ATOM     13 CL   UNL     1     -34.160  16.974  -0.849  0.00  0.00    -0.086 Cl
ATOM     14  N   UNL     1     -36.894  21.362   1.820  0.00  0.00    -0.262 N 
ATOM     15  N   UNL     1     -38.017  20.287   0.231  0.00  0.00    -0.251 NA
ATOM     16  C   UNL     1     -36.040  20.392   1.360  0.00  0.00    +0.066 C 
ATOM     17  C   UNL     1     -38.061  21.259   1.115  0.00  0.00    +0.221 C 
ATOM     18  C   UNL     1     -36.765  19.734   0.370  0.00  0.00    +0.074 C 
ATOM     19  C   UNL     1     -34.737  20.044   1.716  0.00  0.00    +0.028 C 
ATOM     20  C   UNL     1     -36.168  18.664  -0.317  0.00  0.00    +0.085 C 
ATOM     21  C   UNL     1     -34.158  18.976   1.021  0.00  0.00    +0.066 C 
ATOM     22  C   UNL     1     -34.860  18.297   0.023  0.00  0.00    +0.052 C 
ENDBRANCH   8  14
BRANCH   7  23
ATOM     23  O   UNL     1     -34.725  23.640   3.535  0.00  0.00    -0.378 OA
ATOM     24  H   UNL     1     -33.881  23.967   3.185  0.00  0.00    +0.211 HD
ENDBRANCH   7  23
BRANCH  10  25
ATOM     25  O   UNL     1     -39.786  25.038   4.110  0.00  0.00    -0.358 OA
ATOM     26  H   UNL     1     -39.670  25.868   4.596  0.00  0.00    +0.213 HD
ENDBRANCH  10  25
TORSDOF 3
ENDMDL
MODEL 5
REMARK VINA RESULT:      -6.1      4.818      6.443
REMARK  Name = 5487206
REMARK  3 active torsions:
REMARK  status: ('A' for Active; 'I' for Inactive)
REMARK    1  A    between atoms: C_7  and  O_23
REMARK    2  A    between atoms: C_8  and  N_14
REMARK    3  A    between atoms: C_10  and  O_25
REMARK                            x       y       z     vdW  Elec       q    Type
REMARK                         _______ _______ _______ _____ _____    ______ ____
ROOT
ATOM      1  S   UNL     1     -31.882  19.198  -2.013  0.00  0.00    +0.049 S 
ATOM      2  P   UNL     1     -33.841  19.623  -2.677  0.00  0.00    +0.106 P 
ATOM      3  O   UNL     1     -34.432  19.452   1.761  0.00  0.00    -0.330 OA
ATOM      4  O   UNL     1     -34.511  19.976  -1.240  0.00  0.00    -0.332 OA
ATOM      5  O   UNL     1     -32.262  18.087  -0.827  0.00  0.00    -0.265 OA
ATOM      6  C   UNL     1     -35.012  18.880  -0.474  0.00  0.00    +0.182 C 
ATOM      7  C   UNL     1     -36.278  19.329   0.237  0.00  0.00    +0.187 C 
ATOM      8  C   UNL     1     -35.784  19.896   1.566  0.00  0.00    +0.224 C 
ATOM      9  C   UNL     1     -34.084  18.544   0.697  0.00  0.00    +0.204 C 
ATOM     10  C   UNL     1     -32.579  18.662   0.440  0.00  0.00    +0.274 C 
ATOM     11  H   UNL     1     -34.436  18.531  -3.275  0.00  0.00    +0.101 HD
ENDROOT
BRANCH   8  14
ATOM     12 CL   UNL     1     -35.298  22.476   6.686  0.00  0.00    -0.082 Cl
ATOM     13 CL   UNL     1     -35.553  25.529   5.683  0.00  0.00    -0.086 Cl
ATOM     14  N   UNL     1     -35.841  21.359   1.635  0.00  0.00    -0.262 N 
ATOM     15  N   UNL     1     -36.016  23.461   0.935  0.00  0.00    -0.251 NA
ATOM     16  C   UNL     1     -35.743  22.130   2.765  0.00  0.00    +0.066 C 
ATOM     17  C   UNL     1     -36.003  22.200   0.569  0.00  0.00    +0.221 C 
ATOM     18  C   UNL     1     -35.855  23.438   2.302  0.00  0.00    +0.074 C 
ATOM     19  C   UNL     1     -35.570  21.805   4.111  0.00  0.00    +0.028 C 
ATOM     20  C   UNL     1     -35.794  24.498   3.223  0.00  0.00    +0.085 C 
ATOM     21  C   UNL     1     -35.512  22.873   5.014  0.00  0.00    +0.066 C 
ATOM     22  C   UNL     1     -35.621  24.196   4.580  0.00  0.00    +0.052 C 
ENDBRANCH   8  14
BRANCH   7  23
ATOM     23  O   UNL     1     -37.097  18.195   0.519  0.00  0.00    -0.378 OA
ATOM     24  H   UNL     1     -37.590  18.349   1.340  0.00  0.00    +0.211 HD
ENDBRANCH   7  23
BRANCH  10  25
ATOM     25  O   UNL     1     -31.909  17.948   1.482  0.00  0.00    -0.358 OA
ATOM     26  H   UNL     1     -31.385  17.229   1.096  0.00  0.00    +0.213 HD
ENDBRANCH  10  25
TORSDOF 3
ENDMDL
MODEL 6
REMARK VINA RESULT:      -6.1      3.936      5.233
REMARK  Name = 5487206
REMARK  3 active torsions:
REMARK  status: ('A' for Active; 'I' for Inactive)
REMARK    1  A    between atoms: C_7  and  O_23
REMARK    2  A    between atoms: C_8  and  N_14
REMARK    3  A    between atoms: C_10  and  O_25
REMARK                            x       y       z     vdW  Elec       q    Type
REMARK                         _______ _______ _______ _____ _____    ______ ____
ROOT
ATOM      1  S   UNL     1     -33.799  26.918   0.551  0.00  0.00    +0.049 S 
ATOM      2  P   UNL     1     -32.373  26.221   1.942  0.00  0.00    +0.106 P 
ATOM      3  O   UNL     1     -36.194  25.539   4.180  0.00  0.00    -0.330 OA
ATOM      4  O   UNL     1     -33.388  25.510   2.992  0.00  0.00    -0.332 OA
ATOM      5  O   UNL     1     -34.806  27.720   1.613  0.00  0.00    -0.265 OA
ATOM      6  C   UNL     1     -33.962  26.341   4.001  0.00  0.00    +0.182 C 
ATOM      7  C   UNL     1     -34.067  25.535   5.286  0.00  0.00    +0.187 C 
ATOM      8  C   UNL     1     -35.440  24.869   5.202  0.00  0.00    +0.224 C 
ATOM      9  C   UNL     1     -35.428  26.660   3.697  0.00  0.00    +0.204 C 
ATOM     10  C   UNL     1     -35.793  26.893   2.228  0.00  0.00    +0.274 C 
ATOM     11  H   UNL     1     -31.663  27.253   2.523  0.00  0.00    +0.101 HD
ENDROOT
BRANCH   8  14
ATOM     12 CL   UNL     1     -36.213  23.071  -0.208  0.00  0.00    -0.082 Cl
ATOM     13 CL   UNL     1     -35.881  19.907   0.312  0.00  0.00    -0.086 Cl
ATOM     14  N   UNL     1     -35.377  23.434   4.912  0.00  0.00    -0.262 N 
ATOM     15  N   UNL     1     -35.145  21.254   5.279  0.00  0.00    -0.251 NA
ATOM     16  C   UNL     1     -35.537  22.837   3.688  0.00  0.00    +0.066 C 
ATOM     17  C   UNL     1     -35.145  22.447   5.830  0.00  0.00    +0.221 C 
ATOM     18  C   UNL     1     -35.388  21.477   3.943  0.00  0.00    +0.074 C 
ATOM     19  C   UNL     1     -35.792  23.356   2.418  0.00  0.00    +0.028 C 
ATOM     20  C   UNL     1     -35.496  20.565   2.880  0.00  0.00    +0.085 C 
ATOM     21  C   UNL     1     -35.897  22.434   1.371  0.00  0.00    +0.066 C 
ATOM     22  C   UNL     1     -35.752  21.063   1.595  0.00  0.00    +0.052 C 
ENDBRANCH   8  14
BRANCH   7  23
ATOM     23  O   UNL     1     -34.074  26.418   6.406  0.00  0.00    -0.378 OA
ATOM     24  H   UNL     1     -33.379  26.154   7.029  0.00  0.00    +0.211 HD
ENDBRANCH   7  23
BRANCH  10  25
ATOM     25  O   UNL     1     -37.064  27.547   2.200  0.00  0.00    -0.358 OA
ATOM     26  H   UNL     1     -36.978  28.402   1.751  0.00  0.00    +0.213 HD
ENDBRANCH  10  25
TORSDOF 3
ENDMDL
MODEL 7
REMARK VINA RESULT:      -6.0      3.896      4.990
REMARK  Name = 5487206
REMARK  3 active torsions:
REMARK  status: ('A' for Active; 'I' for Inactive)
REMARK    1  A    between atoms: C_7  and  O_23
REMARK    2  A    between atoms: C_8  and  N_14
REMARK    3  A    between atoms: C_10  and  O_25
REMARK                            x       y       z     vdW  Elec       q    Type
REMARK                         _______ _______ _______ _____ _____    ______ ____
ROOT
ATOM      1  S   UNL     1     -36.712  26.837   0.441  0.00  0.00    +0.049 S 
ATOM      2  P   UNL     1     -34.765  26.514   1.188  0.00  0.00    +0.106 P 
ATOM      3  O   UNL     1     -37.267  24.769   4.469  0.00  0.00    -0.330 OA
ATOM      4  O   UNL     1     -35.140  25.528   2.423  0.00  0.00    -0.332 OA
ATOM      5  O   UNL     1     -37.445  27.309   1.864  0.00  0.00    -0.265 OA
ATOM      6  C   UNL     1     -35.507  26.148   3.656  0.00  0.00    +0.182 C 
ATOM      7  C   UNL     1     -34.955  25.310   4.798  0.00  0.00    +0.187 C 
ATOM      8  C   UNL     1     -36.062  24.301   5.097  0.00  0.00    +0.224 C 
ATOM      9  C   UNL     1     -37.018  26.068   3.895  0.00  0.00    +0.204 C 
ATOM     10  C   UNL     1     -37.920  26.231   2.669  0.00  0.00    +0.274 C 
ATOM     11  H   UNL     1     -34.171  27.684   1.618  0.00  0.00    +0.101 HD
ENDROOT
BRANCH   8  14
ATOM     12 CL   UNL     1     -37.631  22.733  -0.212  0.00  0.00    -0.082 Cl
ATOM     13 CL   UNL     1     -36.512  19.710  -0.143  0.00  0.00    -0.086 Cl
ATOM     14  N   UNL     1     -35.757  22.944   4.635  0.00  0.00    -0.262 N 
ATOM     15  N   UNL     1     -34.982  20.862   4.690  0.00  0.00    -0.251 NA
ATOM     16  C   UNL     1     -36.057  22.409   3.408  0.00  0.00    +0.066 C 
ATOM     17  C   UNL     1     -35.115  21.981   5.364  0.00  0.00    +0.221 C 
ATOM     18  C   UNL     1     -35.563  21.109   3.468  0.00  0.00    +0.074 C 
ATOM     19  C   UNL     1     -36.699  22.935   2.287  0.00  0.00    +0.028 C 
ATOM     20  C   UNL     1     -35.709  20.270   2.350  0.00  0.00    +0.085 C 
ATOM     21  C   UNL     1     -36.836  22.086   1.183  0.00  0.00    +0.066 C 
ATOM     22  C   UNL     1     -36.350  20.777   1.212  0.00  0.00    +0.052 C 
ENDBRANCH   8  14
BRANCH   7  23
ATOM     23  O   UNL     1     -34.783  26.130   5.953  0.00  0.00    -0.378 OA
ATOM     24  H   UNL     1     -34.077  25.762   6.507  0.00  0.00    +0.211 HD
ENDBRANCH   7  23
BRANCH  10  25
ATOM     25  O   UNL     1     -39.238  26.518   3.142  0.00  0.00    -0.358 OA
ATOM     26  H   UNL     1     -39.635  25.711   3.504  0.00  0.00    +0.213 HD
ENDBRANCH  10  25
TORSDOF 3
ENDMDL
MODEL 8
REMARK VINA RESULT:      -5.9      4.713      6.196
REMARK  Name = 5487206
REMARK  3 active torsions:
REMARK  status: ('A' for Active; 'I' for Inactive)
REMARK    1  A    between atoms: C_7  and  O_23
REMARK    2  A    between atoms: C_8  and  N_14
REMARK    3  A    between atoms: C_10  and  O_25
REMARK                            x       y       z     vdW  Elec       q    Type
REMARK                         _______ _______ _______ _____ _____    ______ ____
ROOT
ATOM      1  S   UNL     1     -35.561  20.774  -0.960  0.00  0.00    +0.049 S 
ATOM      2  P   UNL     1     -36.827  22.275  -1.734  0.00  0.00    +0.106 P 
ATOM      3  O   UNL     1     -38.210  22.066   2.522  0.00  0.00    -0.330 OA
ATOM      4  O   UNL     1     -37.450  22.811  -0.334  0.00  0.00    -0.332 OA
ATOM      5  O   UNL     1     -36.685  19.962  -0.031  0.00  0.00    -0.265 OA
ATOM      6  C   UNL     1     -38.590  22.117   0.174  0.00  0.00    +0.182 C 
ATOM      7  C   UNL     1     -39.522  23.129   0.820  0.00  0.00    +0.187 C 
ATOM      8  C   UNL     1     -39.051  23.203   2.271  0.00  0.00    +0.224 C 
ATOM      9  C   UNL     1     -38.217  21.218   1.356  0.00  0.00    +0.204 C 
ATOM     10  C   UNL     1     -36.867  20.500   1.278  0.00  0.00    +0.274 C 
ATOM     11  H   UNL     1     -37.795  21.760  -2.572  0.00  0.00    +0.101 HD
ENDROOT
BRANCH   8  14
ATOM     12 CL   UNL     1     -34.765  23.019   6.105  0.00  0.00    -0.082 Cl
ATOM     13 CL   UNL     1     -33.942  26.135   6.017  0.00  0.00    -0.086 Cl
ATOM     14  N   UNL     1     -38.326  24.436   2.589  0.00  0.00    -0.262 N 
ATOM     15  N   UNL     1     -37.763  26.586   2.522  0.00  0.00    -0.251 NA
ATOM     16  C   UNL     1     -37.286  24.571   3.473  0.00  0.00    +0.066 C 
ATOM     17  C   UNL     1     -38.574  25.667   2.047  0.00  0.00    +0.221 C 
ATOM     18  C   UNL     1     -36.952  25.921   3.412  0.00  0.00    +0.074 C 
ATOM     19  C   UNL     1     -36.628  23.654   4.293  0.00  0.00    +0.028 C 
ATOM     20  C   UNL     1     -35.903  26.403   4.213  0.00  0.00    +0.085 C 
ATOM     21  C   UNL     1     -35.586  24.152   5.084  0.00  0.00    +0.066 C 
ATOM     22  C   UNL     1     -35.228  25.501   5.045  0.00  0.00    +0.052 C 
ENDBRANCH   8  14
BRANCH   7  23
ATOM     23  O   UNL     1     -40.856  22.624   0.815  0.00  0.00    -0.378 OA
ATOM     24  H   UNL     1     -41.225  22.696  -0.079  0.00  0.00    +0.211 HD
ENDBRANCH   7  23
BRANCH  10  25
ATOM     25  O   UNL     1     -36.887  19.444   2.242  0.00  0.00    -0.358 OA
ATOM     26  H   UNL     1     -36.990  19.818   3.130  0.00  0.00    +0.213 HD
ENDBRANCH  10  25
TORSDOF 3
ENDMDL
MODEL 9
REMARK VINA RESULT:      -5.9      5.672      6.791
REMARK  Name = 5487206
REMARK  3 active torsions:
REMARK  status: ('A' for Active; 'I' for Inactive)
REMARK    1  A    between atoms: C_7  and  O_23
REMARK    2  A    between atoms: C_8  and  N_14
REMARK    3  A    between atoms: C_10  and  O_25
REMARK                            x       y       z     vdW  Elec       q    Type
REMARK                         _______ _______ _______ _____ _____    ______ ____
ROOT
ATOM      1  S   UNL     1     -37.610  22.619   1.565  0.00  0.00    +0.049 S 
ATOM      2  P   UNL     1     -37.904  24.709   1.626  0.00  0.00    +0.106 P 
ATOM      3  O   UNL     1     -34.602  24.196   4.610  0.00  0.00    -0.330 OA
ATOM      4  O   UNL     1     -36.588  25.112   2.489  0.00  0.00    -0.332 OA
ATOM      5  O   UNL     1     -37.409  22.353   3.201  0.00  0.00    -0.265 OA
ATOM      6  C   UNL     1     -36.705  25.058   3.911  0.00  0.00    +0.182 C 
ATOM      7  C   UNL     1     -35.905  26.205   4.504  0.00  0.00    +0.187 C 
ATOM      8  C   UNL     1     -34.505  25.626   4.702  0.00  0.00    +0.224 C 
ATOM      9  C   UNL     1     -35.990  23.831   4.485  0.00  0.00    +0.204 C 
ATOM     10  C   UNL     1     -36.075  22.539   3.669  0.00  0.00    +0.274 C 
ATOM     11  H   UNL     1     -39.075  25.052   2.272  0.00  0.00    +0.101 HD
ENDROOT
BRANCH   8  14
ATOM     12 CL   UNL     1     -31.600  30.453   5.874  0.00  0.00    -0.082 Cl
ATOM     13 CL   UNL     1     -29.824  30.578   3.186  0.00  0.00    -0.086 Cl
ATOM     14  N   UNL     1     -33.524  26.121   3.732  0.00  0.00    -0.262 N 
ATOM     15  N   UNL     1     -32.302  26.200   1.877  0.00  0.00    -0.251 NA
ATOM     16  C   UNL     1     -32.750  27.247   3.851  0.00  0.00    +0.066 C 
ATOM     17  C   UNL     1     -33.221  25.530   2.536  0.00  0.00    +0.221 C 
ATOM     18  C   UNL     1     -31.996  27.274   2.680  0.00  0.00    +0.074 C 
ATOM     19  C   UNL     1     -32.648  28.213   4.852  0.00  0.00    +0.028 C 
ATOM     20  C   UNL     1     -31.081  28.321   2.481  0.00  0.00    +0.085 C 
ATOM     21  C   UNL     1     -31.732  29.249   4.635  0.00  0.00    +0.066 C 
ATOM     22  C   UNL     1     -30.961  29.303   3.472  0.00  0.00    +0.052 C 
ENDBRANCH   8  14
BRANCH   7  23
ATOM     23  O   UNL     1     -36.428  26.541   5.788  0.00  0.00    -0.378 OA
ATOM     24  H   UNL     1     -37.195  27.125   5.681  0.00  0.00    +0.211 HD
ENDBRANCH   7  23
BRANCH  10  25
ATOM     25  O   UNL     1     -35.706  21.461   4.533  0.00  0.00    -0.358 OA
ATOM     26  H   UNL     1     -36.345  21.396   5.260  0.00  0.00    +0.213 HD
ENDBRANCH  10  25
TORSDOF 3
ENDMDL
