MODEL 1
REMARK VINA RESULT:      -6.8      0.000      0.000
REMARK  Name = 2092
REMARK  7 active torsions:
REMARK  status: ('A' for Active; 'I' for Inactive)
REMARK    1  A    between atoms: N_1  and  C_20
REMARK    2  A    between atoms: C_12  and  O_16
REMARK    3  A    between atoms: C_13  and  O_18
REMARK    4  A    between atoms: C_20  and  C_21
REMARK    5  A    between atoms: C_21  and  C_22
REMARK    6  A    between atoms: C_22  and  N_24
REMARK    7  A    between atoms: C_25  and  C_28
REMARK                            x       y       z     vdW  Elec       q    Type
REMARK                         _______ _______ _______ _____ _____    ______ ____
ROOT
ATOM      1  N   UNL     1     -32.137  28.739   5.064  0.00  0.00    -0.232 N 
ATOM      2  N   UNL     1     -33.417  26.797   5.371  0.00  0.00    -0.332 NA
ATOM      3  N   UNL     1     -33.873  28.310   3.552  0.00  0.00    -0.313 NA
ATOM      4  N   UNL     1     -35.619  27.872   2.035  0.00  0.00    -0.332 N 
ATOM      5  C   UNL     1     -33.196  27.908   4.639  0.00  0.00    +0.204 C 
ATOM      6  C   UNL     1     -31.825  29.955   4.341  0.00  0.00    +0.125 C 
ATOM      7  C   UNL     1     -35.205  26.314   3.847  0.00  0.00    +0.074 C 
ATOM      8  C   UNL     1     -34.424  26.000   4.972  0.00  0.00    +0.134 C 
ATOM      9  C   UNL     1     -34.874  27.490   3.179  0.00  0.00    +0.193 C 
ATOM     10  C   UNL     1     -36.255  25.473   3.439  0.00  0.00    +0.046 C 
ATOM     11  C   UNL     1     -34.724  24.831   5.666  0.00  0.00    +0.127 C 
ATOM     12  C   UNL     1     -36.534  24.312   4.152  0.00  0.00    +0.169 C 
ATOM     13  C   UNL     1     -35.767  23.990   5.267  0.00  0.00    +0.157 C 
ATOM     14  H   UNL     1     -35.393  28.703   1.557  0.00  0.00    +0.145 HD
ATOM     15  H   UNL     1     -36.362  27.309   1.721  0.00  0.00    +0.145 HD
ENDROOT
BRANCH  12  16
ATOM     16  O   UNL     1     -37.553  23.502   3.751  0.00  0.00    -0.469 OA
ATOM     17  C   UNL     1     -37.292  22.625   2.657  0.00  0.00    +0.253 C 
ENDBRANCH  12  16
BRANCH  13  18
ATOM     18  O   UNL     1     -36.022  22.858   5.979  0.00  0.00    -0.472 OA
ATOM     19  C   UNL     1     -35.043  21.822   5.922  0.00  0.00    +0.252 C 
ENDBRANCH  13  18
BRANCH   1  20
ATOM     20  C   UNL     1     -31.360  28.393   6.237  0.00  0.00    +0.105 C 
BRANCH  20  21
ATOM     21  C   UNL     1     -30.572  29.600   6.746  0.00  0.00    +0.043 C 
BRANCH  21  22
ATOM     22  C   UNL     1     -29.163  29.260   7.229  0.00  0.00    +0.091 C 
BRANCH  22  24
ATOM     23  O   UNL     1     -28.338  26.514   6.776  0.00  0.00    -0.272 OA
ATOM     24  N   UNL     1     -28.322  28.764   6.174  0.00  0.00    -0.302 N 
ATOM     25  C   UNL     1     -27.979  27.425   6.035  0.00  0.00    +0.250 C 
ATOM     26  H   UNL     1     -27.972  29.407   5.516  0.00  0.00    +0.150 HD
BRANCH  25  28
ATOM     27  O   UNL     1     -27.577  25.957   4.252  0.00  0.00    -0.347 OA
ATOM     28  C   UNL     1     -27.115  27.177   4.839  0.00  0.00    +0.191 C 
ATOM     29  C   UNL     1     -27.249  28.265   3.790  0.00  0.00    +0.042 C 
ATOM     30  C   UNL     1     -28.354  27.734   2.908  0.00  0.00    +0.035 C 
ATOM     31  C   UNL     1     -28.100  26.244   2.948  0.00  0.00    +0.143 C 
ENDBRANCH  25  28
ENDBRANCH  22  24
ENDBRANCH  21  22
ENDBRANCH  20  21
ENDBRANCH   1  20
TORSDOF 7
ENDMDL
MODEL 2
REMARK VINA RESULT:      -6.8      4.892      8.037
REMARK  Name = 2092
REMARK  7 active torsions:
REMARK  status: ('A' for Active; 'I' for Inactive)
REMARK    1  A    between atoms: N_1  and  C_20
REMARK    2  A    between atoms: C_12  and  O_16
REMARK    3  A    between atoms: C_13  and  O_18
REMARK    4  A    between atoms: C_20  and  C_21
REMARK    5  A    between atoms: C_21  and  C_22
REMARK    6  A    between atoms: C_22  and  N_24
REMARK    7  A    between atoms: C_25  and  C_28
REMARK                            x       y       z     vdW  Elec       q    Type
REMARK                         _______ _______ _______ _____ _____    ______ ____
ROOT
ATOM      1  N   UNL     1     -34.081  29.482   2.436  0.00  0.00    -0.232 N 
ATOM      2  N   UNL     1     -35.200  27.459   2.833  0.00  0.00    -0.332 NA
ATOM      3  N   UNL     1     -33.504  28.257   4.348  0.00  0.00    -0.313 NA
ATOM      4  N   UNL     1     -32.931  27.021   6.267  0.00  0.00    -0.332 N 
ATOM      5  C   UNL     1     -34.270  28.342   3.248  0.00  0.00    +0.204 C 
ATOM      6  C   UNL     1     -33.102  30.486   2.800  0.00  0.00    +0.125 C 
ATOM      7  C   UNL     1     -34.646  26.170   4.779  0.00  0.00    +0.074 C 
ATOM      8  C   UNL     1     -35.387  26.371   3.602  0.00  0.00    +0.134 C 
ATOM      9  C   UNL     1     -33.716  27.157   5.094  0.00  0.00    +0.193 C 
ATOM     10  C   UNL     1     -34.850  25.029   5.574  0.00  0.00    +0.046 C 
ATOM     11  C   UNL     1     -36.328  25.406   3.253  0.00  0.00    +0.127 C 
ATOM     12  C   UNL     1     -35.795  24.080   5.201  0.00  0.00    +0.169 C 
ATOM     13  C   UNL     1     -36.536  24.269   4.039  0.00  0.00    +0.157 C 
ATOM     14  H   UNL     1     -32.270  27.714   6.498  0.00  0.00    +0.145 HD
ATOM     15  H   UNL     1     -33.045  26.236   6.848  0.00  0.00    +0.145 HD
ENDROOT
BRANCH  12  16
ATOM     16  O   UNL     1     -35.987  22.977   5.977  0.00  0.00    -0.469 OA
ATOM     17  C   UNL     1     -35.025  21.930   5.865  0.00  0.00    +0.253 C 
ENDBRANCH  12  16
BRANCH  13  18
ATOM     18  O   UNL     1     -37.467  23.352   3.655  0.00  0.00    -0.472 OA
ATOM     19  C   UNL     1     -37.084  22.426   2.640  0.00  0.00    +0.252 C 
ENDBRANCH  13  18
BRANCH   1  20
ATOM     20  C   UNL     1     -34.852  29.652   1.222  0.00  0.00    +0.105 C 
BRANCH  20  21
ATOM     21  C   UNL     1     -35.299  31.104   1.056  0.00  0.00    +0.043 C 
BRANCH  21  22
ATOM     22  C   UNL     1     -36.537  31.467   1.874  0.00  0.00    +0.091 C 
BRANCH  22  24
ATOM     23  O   UNL     1     -39.345  32.093   1.479  0.00  0.00    -0.272 OA
ATOM     24  N   UNL     1     -37.104  32.730   1.487  0.00  0.00    -0.302 N 
ATOM     25  C   UNL     1     -38.467  32.938   1.322  0.00  0.00    +0.250 C 
ATOM     26  H   UNL     1     -36.494  33.487   1.332  0.00  0.00    +0.150 HD
BRANCH  25  28
ATOM     27  O   UNL     1     -40.207  34.489   1.067  0.00  0.00    -0.347 OA
ATOM     28  C   UNL     1     -38.789  34.349   0.941  0.00  0.00    +0.191 C 
ATOM     29  C   UNL     1     -38.148  35.362   1.870  0.00  0.00    +0.042 C 
ATOM     30  C   UNL     1     -39.216  35.566   2.919  0.00  0.00    +0.035 C 
ATOM     31  C   UNL     1     -40.483  35.440   2.104  0.00  0.00    +0.143 C 
ENDBRANCH  25  28
ENDBRANCH  22  24
ENDBRANCH  21  22
ENDBRANCH  20  21
ENDBRANCH   1  20
TORSDOF 7
ENDMDL
MODEL 3
REMARK VINA RESULT:      -6.6      5.906     10.825
REMARK  Name = 2092
REMARK  7 active torsions:
REMARK  status: ('A' for Active; 'I' for Inactive)
REMARK    1  A    between atoms: N_1  and  C_20
REMARK    2  A    between atoms: C_12  and  O_16
REMARK    3  A    between atoms: C_13  and  O_18
REMARK    4  A    between atoms: C_20  and  C_21
REMARK    5  A    between atoms: C_21  and  C_22
REMARK    6  A    between atoms: C_22  and  N_24
REMARK    7  A    between atoms: C_25  and  C_28
REMARK                            x       y       z     vdW  Elec       q    Type
REMARK                         _______ _______ _______ _____ _____    ______ ____
ROOT
ATOM      1  N   UNL     1     -40.870  25.174   1.382  0.00  0.00    -0.232 N 
ATOM      2  N   UNL     1     -38.972  25.364   2.746  0.00  0.00    -0.332 NA
ATOM      3  N   UNL     1     -39.626  23.238   1.820  0.00  0.00    -0.313 NA
ATOM      4  N   UNL     1     -38.370  21.298   2.264  0.00  0.00    -0.332 N 
ATOM      5  C   UNL     1     -39.767  24.559   2.014  0.00  0.00    +0.204 C 
ATOM      6  C   UNL     1     -41.782  24.389   0.575  0.00  0.00    +0.125 C 
ATOM      7  C   UNL     1     -37.664  23.410   3.222  0.00  0.00    +0.074 C 
ATOM      8  C   UNL     1     -37.918  24.786   3.351  0.00  0.00    +0.134 C 
ATOM      9  C   UNL     1     -38.562  22.691   2.438  0.00  0.00    +0.193 C 
ATOM     10  C   UNL     1     -36.560  22.817   3.858  0.00  0.00    +0.046 C 
ATOM     11  C   UNL     1     -37.041  25.540   4.127  0.00  0.00    +0.127 C 
ATOM     12  C   UNL     1     -35.700  23.594   4.629  0.00  0.00    +0.169 C 
ATOM     13  C   UNL     1     -35.941  24.957   4.763  0.00  0.00    +0.157 C 
ATOM     14  H   UNL     1     -39.000  20.780   1.711  0.00  0.00    +0.145 HD
ATOM     15  H   UNL     1     -37.608  20.847   2.694  0.00  0.00    +0.145 HD
ENDROOT
BRANCH  12  16
ATOM     16  O   UNL     1     -34.633  23.012   5.242  0.00  0.00    -0.469 OA
ATOM     17  C   UNL     1     -34.884  21.828   5.997  0.00  0.00    +0.253 C 
ENDBRANCH  12  16
BRANCH  13  18
ATOM     18  O   UNL     1     -35.112  25.736   5.512  0.00  0.00    -0.472 OA
ATOM     19  C   UNL     1     -34.063  26.414   4.824  0.00  0.00    +0.252 C 
ENDBRANCH  13  18
BRANCH   1  20
ATOM     20  C   UNL     1     -41.112  26.592   1.547  0.00  0.00    +0.105 C 
BRANCH  20  21
ATOM     21  C   UNL     1     -42.545  26.853   2.009  0.00  0.00    +0.043 C 
BRANCH  21  22
ATOM     22  C   UNL     1     -42.754  26.675   3.512  0.00  0.00    +0.091 C 
BRANCH  22  24
ATOM     23  O   UNL     1     -42.002  29.108   4.906  0.00  0.00    -0.272 OA
ATOM     24  N   UNL     1     -43.630  27.668   4.069  0.00  0.00    -0.302 N 
ATOM     25  C   UNL     1     -43.179  28.807   4.723  0.00  0.00    +0.250 C 
ATOM     26  H   UNL     1     -44.601  27.533   3.983  0.00  0.00    +0.150 HD
BRANCH  25  28
ATOM     27  O   UNL     1     -45.197  28.845   5.915  0.00  0.00    -0.347 OA
ATOM     28  C   UNL     1     -44.299  29.685   5.184  0.00  0.00    +0.191 C 
ATOM     29  C   UNL     1     -43.831  30.779   6.125  0.00  0.00    +0.042 C 
ATOM     30  C   UNL     1     -43.987  30.132   7.481  0.00  0.00    +0.035 C 
ATOM     31  C   UNL     1     -45.219  29.279   7.282  0.00  0.00    +0.143 C 
ENDBRANCH  25  28
ENDBRANCH  22  24
ENDBRANCH  21  22
ENDBRANCH  20  21
ENDBRANCH   1  20
TORSDOF 7
ENDMDL
MODEL 4
REMARK VINA RESULT:      -6.4      3.698      5.917
REMARK  Name = 2092
REMARK  7 active torsions:
REMARK  status: ('A' for Active; 'I' for Inactive)
REMARK    1  A    between atoms: N_1  and  C_20
REMARK    2  A    between atoms: C_12  and  O_16
REMARK    3  A    between atoms: C_13  and  O_18
REMARK    4  A    between atoms: C_20  and  C_21
REMARK    5  A    between atoms: C_21  and  C_22
REMARK    6  A    between atoms: C_22  and  N_24
REMARK    7  A    between atoms: C_25  and  C_28
REMARK                            x       y       z     vdW  Elec       q    Type
REMARK                         _______ _______ _______ _____ _____    ______ ____
ROOT
ATOM      1  N   UNL     1     -35.855  24.106   5.000  0.00  0.00    -0.232 N 
ATOM      2  N   UNL     1     -37.786  24.888   3.922  0.00  0.00    -0.332 NA
ATOM      3  N   UNL     1     -36.982  22.646   3.556  0.00  0.00    -0.313 NA
ATOM      4  N   UNL     1     -38.119  21.185   2.104  0.00  0.00    -0.332 N 
ATOM      5  C   UNL     1     -36.928  23.866   4.114  0.00  0.00    +0.204 C 
ATOM      6  C   UNL     1     -34.881  23.068   5.268  0.00  0.00    +0.125 C 
ATOM      7  C   UNL     1     -38.976  23.429   2.435  0.00  0.00    +0.074 C 
ATOM      8  C   UNL     1     -38.812  24.666   3.080  0.00  0.00    +0.134 C 
ATOM      9  C   UNL     1     -38.019  22.458   2.719  0.00  0.00    +0.193 C 
ATOM     10  C   UNL     1     -40.051  23.209   1.557  0.00  0.00    +0.046 C 
ATOM     11  C   UNL     1     -39.749  25.664   2.822  0.00  0.00    +0.127 C 
ATOM     12  C   UNL     1     -40.972  24.224   1.316  0.00  0.00    +0.169 C 
ATOM     13  C   UNL     1     -40.821  25.452   1.950  0.00  0.00    +0.157 C 
ATOM     14  H   UNL     1     -37.448  20.491   2.298  0.00  0.00    +0.145 HD
ATOM     15  H   UNL     1     -38.859  20.994   1.483  0.00  0.00    +0.145 HD
ENDROOT
BRANCH  12  16
ATOM     16  O   UNL     1     -42.011  24.003   0.464  0.00  0.00    -0.469 OA
ATOM     17  C   UNL     1     -41.721  24.023  -0.932  0.00  0.00    +0.253 C 
ENDBRANCH  12  16
BRANCH  13  18
ATOM     18  O   UNL     1     -41.711  26.459   1.729  0.00  0.00    -0.472 OA
ATOM     19  C   UNL     1     -42.569  26.814   2.812  0.00  0.00    +0.252 C 
ENDBRANCH  13  18
BRANCH   1  20
ATOM     20  C   UNL     1     -35.707  25.398   5.638  0.00  0.00    +0.105 C 
BRANCH  20  21
ATOM     21  C   UNL     1     -34.276  25.917   5.498  0.00  0.00    +0.043 C 
BRANCH  21  22
ATOM     22  C   UNL     1     -34.003  26.635   4.178  0.00  0.00    +0.091 C 
BRANCH  22  24
ATOM     23  O   UNL     1     -31.243  27.331   3.608  0.00  0.00    -0.272 OA
ATOM     24  N   UNL     1     -33.369  27.910   4.363  0.00  0.00    -0.302 N 
ATOM     25  C   UNL     1     -32.035  28.153   4.061  0.00  0.00    +0.250 C 
ATOM     26  H   UNL     1     -33.908  28.652   4.723  0.00  0.00    +0.150 HD
BRANCH  25  28
ATOM     27  O   UNL     1     -32.546  30.071   5.309  0.00  0.00    -0.347 OA
ATOM     28  C   UNL     1     -31.637  29.571   4.325  0.00  0.00    +0.191 C 
ATOM     29  C   UNL     1     -30.238  29.683   4.900  0.00  0.00    +0.042 C 
ATOM     30  C   UNL     1     -30.492  29.641   6.388  0.00  0.00    +0.035 C 
ATOM     31  C   UNL     1     -31.811  30.372   6.503  0.00  0.00    +0.143 C 
ENDBRANCH  25  28
ENDBRANCH  22  24
ENDBRANCH  21  22
ENDBRANCH  20  21
ENDBRANCH   1  20
TORSDOF 7
ENDMDL
MODEL 5
REMARK VINA RESULT:      -6.2      4.135      8.208
REMARK  Name = 2092
REMARK  7 active torsions:
REMARK  status: ('A' for Active; 'I' for Inactive)
REMARK    1  A    between atoms: N_1  and  C_20
REMARK    2  A    between atoms: C_12  and  O_16
REMARK    3  A    between atoms: C_13  and  O_18
REMARK    4  A    between atoms: C_20  and  C_21
REMARK    5  A    between atoms: C_21  and  C_22
REMARK    6  A    between atoms: C_22  and  N_24
REMARK    7  A    between atoms: C_25  and  C_28
REMARK                            x       y       z     vdW  Elec       q    Type
REMARK                         _______ _______ _______ _____ _____    ______ ____
ROOT
ATOM      1  N   UNL     1     -39.763  25.144   1.456  0.00  0.00    -0.232 N 
ATOM      2  N   UNL     1     -38.085  24.533   2.977  0.00  0.00    -0.332 NA
ATOM      3  N   UNL     1     -37.968  26.616   1.772  0.00  0.00    -0.313 NA
ATOM      4  N   UNL     1     -36.162  28.090   2.095  0.00  0.00    -0.332 N 
ATOM      5  C   UNL     1     -38.543  25.448   2.100  0.00  0.00    +0.204 C 
ATOM      6  C   UNL     1     -40.334  26.067   0.496  0.00  0.00    +0.125 C 
ATOM      7  C   UNL     1     -36.228  26.008   3.336  0.00  0.00    +0.074 C 
ATOM      8  C   UNL     1     -36.925  24.816   3.596  0.00  0.00    +0.134 C 
ATOM      9  C   UNL     1     -36.809  26.868   2.408  0.00  0.00    +0.193 C 
ATOM     10  C   UNL     1     -35.016  26.293   3.988  0.00  0.00    +0.046 C 
ATOM     11  C   UNL     1     -36.375  23.930   4.519  0.00  0.00    +0.127 C 
ATOM     12  C   UNL     1     -34.489  25.389   4.905  0.00  0.00    +0.169 C 
ATOM     13  C   UNL     1     -35.170  24.206   5.171  0.00  0.00    +0.157 C 
ATOM     14  H   UNL     1     -36.565  28.705   1.439  0.00  0.00    +0.145 HD
ATOM     15  H   UNL     1     -35.311  28.324   2.531  0.00  0.00    +0.145 HD
ENDROOT
BRANCH  12  16
ATOM     16  O   UNL     1     -33.314  25.672   5.533  0.00  0.00    -0.469 OA
ATOM     17  C   UNL     1     -33.310  26.778   6.434  0.00  0.00    +0.253 C 
ENDBRANCH  12  16
BRANCH  13  18
ATOM     18  O   UNL     1     -34.673  23.307   6.065  0.00  0.00    -0.472 OA
ATOM     19  C   UNL     1     -35.445  22.130   6.297  0.00  0.00    +0.252 C 
ENDBRANCH  13  18
BRANCH   1  20
ATOM     20  C   UNL     1     -40.448  23.900   1.736  0.00  0.00    +0.105 C 
BRANCH  20  21
ATOM     21  C   UNL     1     -39.776  22.731   1.016  0.00  0.00    +0.043 C 
BRANCH  21  22
ATOM     22  C   UNL     1     -39.640  21.472   1.871  0.00  0.00    +0.091 C 
BRANCH  22  24
ATOM     23  O   UNL     1     -37.776  20.016   0.188  0.00  0.00    -0.272 OA
ATOM     24  N   UNL     1     -38.271  21.148   2.162  0.00  0.00    -0.302 N 
ATOM     25  C   UNL     1     -37.449  20.445   1.292  0.00  0.00    +0.250 C 
ATOM     26  H   UNL     1     -37.896  21.442   3.024  0.00  0.00    +0.150 HD
BRANCH  25  28
ATOM     27  O   UNL     1     -35.208  20.095   0.697  0.00  0.00    -0.347 OA
ATOM     28  C   UNL     1     -36.064  20.265   1.830  0.00  0.00    +0.191 C 
ATOM     29  C   UNL     1     -35.575  21.483   2.590  0.00  0.00    +0.042 C 
ATOM     30  C   UNL     1     -34.884  22.285   1.513  0.00  0.00    +0.035 C 
ATOM     31  C   UNL     1     -34.296  21.199   0.641  0.00  0.00    +0.143 C 
ENDBRANCH  25  28
ENDBRANCH  22  24
ENDBRANCH  21  22
ENDBRANCH  20  21
ENDBRANCH   1  20
TORSDOF 7
ENDMDL
MODEL 6
REMARK VINA RESULT:      -6.2      3.369      5.332
REMARK  Name = 2092
REMARK  7 active torsions:
REMARK  status: ('A' for Active; 'I' for Inactive)
REMARK    1  A    between atoms: N_1  and  C_20
REMARK    2  A    between atoms: C_12  and  O_16
REMARK    3  A    between atoms: C_13  and  O_18
REMARK    4  A    between atoms: C_20  and  C_21
REMARK    5  A    between atoms: C_21  and  C_22
REMARK    6  A    between atoms: C_22  and  N_24
REMARK    7  A    between atoms: C_25  and  C_28
REMARK                            x       y       z     vdW  Elec       q    Type
REMARK                         _______ _______ _______ _____ _____    ______ ____
ROOT
ATOM      1  N   UNL     1     -35.756  24.709   4.671  0.00  0.00    -0.232 N 
ATOM      2  N   UNL     1     -35.362  22.788   3.384  0.00  0.00    -0.332 NA
ATOM      3  N   UNL     1     -37.552  23.786   3.484  0.00  0.00    -0.313 NA
ATOM      4  N   UNL     1     -39.353  22.854   2.289  0.00  0.00    -0.332 N 
ATOM      5  C   UNL     1     -36.250  23.711   3.803  0.00  0.00    +0.204 C 
ATOM      6  C   UNL     1     -36.637  25.744   5.174  0.00  0.00    +0.125 C 
ATOM      7  C   UNL     1     -37.170  21.807   2.150  0.00  0.00    +0.074 C 
ATOM      8  C   UNL     1     -35.825  21.835   2.555  0.00  0.00    +0.134 C 
ATOM      9  C   UNL     1     -37.983  22.818   2.654  0.00  0.00    +0.193 C 
ATOM     10  C   UNL     1     -37.642  20.806   1.284  0.00  0.00    +0.046 C 
ATOM     11  C   UNL     1     -34.979  20.840   2.072  0.00  0.00    +0.127 C 
ATOM     12  C   UNL     1     -36.775  19.824   0.816  0.00  0.00    +0.169 C 
ATOM     13  C   UNL     1     -35.442  19.841   1.210  0.00  0.00    +0.157 C 
ATOM     14  H   UNL     1     -39.937  23.564   2.641  0.00  0.00    +0.145 HD
ATOM     15  H   UNL     1     -39.719  22.169   1.685  0.00  0.00    +0.145 HD
ENDROOT
BRANCH  12  16
ATOM     16  O   UNL     1     -37.240  18.857  -0.022  0.00  0.00    -0.469 OA
ATOM     17  C   UNL     1     -38.453  19.133  -0.722  0.00  0.00    +0.253 C 
ENDBRANCH  12  16
BRANCH  13  18
ATOM     18  O   UNL     1     -34.575  18.890   0.764  0.00  0.00    -0.472 OA
ATOM     19  C   UNL     1     -33.307  18.813   1.413  0.00  0.00    +0.252 C 
ENDBRANCH  13  18
BRANCH   1  20
ATOM     20  C   UNL     1     -34.367  24.700   5.081  0.00  0.00    +0.105 C 
BRANCH  20  21
ATOM     21  C   UNL     1     -33.978  26.031   5.725  0.00  0.00    +0.043 C 
BRANCH  21  22
ATOM     22  C   UNL     1     -33.320  27.016   4.762  0.00  0.00    +0.091 C 
BRANCH  22  24
ATOM     23  O   UNL     1     -30.527  27.792   4.590  0.00  0.00    -0.272 OA
ATOM     24  N   UNL     1     -32.673  28.105   5.441  0.00  0.00    -0.302 N 
ATOM     25  C   UNL     1     -31.324  28.403   5.297  0.00  0.00    +0.250 C 
ATOM     26  H   UNL     1     -33.214  28.669   6.039  0.00  0.00    +0.150 HD
BRANCH  25  28
ATOM     27  O   UNL     1     -29.622  29.984   5.615  0.00  0.00    -0.347 OA
ATOM     28  C   UNL     1     -30.913  29.600   6.095  0.00  0.00    +0.191 C 
ATOM     29  C   UNL     1     -31.844  30.781   5.892  0.00  0.00    +0.042 C 
ATOM     30  C   UNL     1     -31.192  31.516   4.745  0.00  0.00    +0.035 C 
ATOM     31  C   UNL     1     -29.723  31.283   5.016  0.00  0.00    +0.143 C 
ENDBRANCH  25  28
ENDBRANCH  22  24
ENDBRANCH  21  22
ENDBRANCH  20  21
ENDBRANCH   1  20
TORSDOF 7
ENDMDL
MODEL 7
REMARK VINA RESULT:      -6.1      4.436      7.076
REMARK  Name = 2092
REMARK  7 active torsions:
REMARK  status: ('A' for Active; 'I' for Inactive)
REMARK    1  A    between atoms: N_1  and  C_20
REMARK    2  A    between atoms: C_12  and  O_16
REMARK    3  A    between atoms: C_13  and  O_18
REMARK    4  A    between atoms: C_20  and  C_21
REMARK    5  A    between atoms: C_21  and  C_22
REMARK    6  A    between atoms: C_22  and  N_24
REMARK    7  A    between atoms: C_25  and  C_28
REMARK                            x       y       z     vdW  Elec       q    Type
REMARK                         _______ _______ _______ _____ _____    ______ ____
ROOT
ATOM      1  N   UNL     1     -35.873  24.321   4.937  0.00  0.00    -0.232 N 
ATOM      2  N   UNL     1     -37.834  25.019   3.857  0.00  0.00    -0.332 NA
ATOM      3  N   UNL     1     -36.978  22.787   3.554  0.00  0.00    -0.313 NA
ATOM      4  N   UNL     1     -38.094  21.251   2.163  0.00  0.00    -0.332 N 
ATOM      5  C   UNL     1     -36.949  24.025   4.072  0.00  0.00    +0.204 C 
ATOM      6  C   UNL     1     -34.870  23.317   5.228  0.00  0.00    +0.125 C 
ATOM      7  C   UNL     1     -39.003  23.483   2.431  0.00  0.00    +0.074 C 
ATOM      8  C   UNL     1     -38.863  24.745   3.034  0.00  0.00    +0.134 C 
ATOM      9  C   UNL     1     -38.019  22.546   2.736  0.00  0.00    +0.193 C 
ATOM     10  C   UNL     1     -40.081  23.208   1.574  0.00  0.00    +0.046 C 
ATOM     11  C   UNL     1     -39.827  25.710   2.754  0.00  0.00    +0.127 C 
ATOM     12  C   UNL     1     -41.030  24.191   1.310  0.00  0.00    +0.169 C 
ATOM     13  C   UNL     1     -40.903  25.443   1.902  0.00  0.00    +0.157 C 
ATOM     14  H   UNL     1     -37.403  20.581   2.372  0.00  0.00    +0.145 HD
ATOM     15  H   UNL     1     -38.835  21.022   1.558  0.00  0.00    +0.145 HD
ENDROOT
BRANCH  12  16
ATOM     16  O   UNL     1     -42.072  23.917   0.478  0.00  0.00    -0.469 OA
ATOM     17  C   UNL     1     -41.770  23.750  -0.906  0.00  0.00    +0.253 C 
ENDBRANCH  12  16
BRANCH  13  18
ATOM     18  O   UNL     1     -41.820  26.420   1.659  0.00  0.00    -0.472 OA
ATOM     19  C   UNL     1     -42.598  26.868   2.767  0.00  0.00    +0.252 C 
ENDBRANCH  13  18
BRANCH   1  20
ATOM     20  C   UNL     1     -35.751  25.636   5.531  0.00  0.00    +0.105 C 
BRANCH  20  21
ATOM     21  C   UNL     1     -34.295  26.102   5.535  0.00  0.00    +0.043 C 
BRANCH  21  22
ATOM     22  C   UNL     1     -33.975  27.142   4.463  0.00  0.00    +0.091 C 
BRANCH  22  24
ATOM     23  O   UNL     1     -34.571  26.259   1.763  0.00  0.00    -0.272 OA
ATOM     24  N   UNL     1     -35.120  27.484   3.666  0.00  0.00    -0.302 N 
ATOM     25  C   UNL     1     -35.324  27.011   2.376  0.00  0.00    +0.250 C 
ATOM     26  H   UNL     1     -35.796  28.085   4.055  0.00  0.00    +0.150 HD
BRANCH  25  28
ATOM     27  O   UNL     1     -36.481  28.921   1.661  0.00  0.00    -0.347 OA
ATOM     28  C   UNL     1     -36.607  27.501   1.782  0.00  0.00    +0.191 C 
ATOM     29  C   UNL     1     -36.852  26.946   0.392  0.00  0.00    +0.042 C 
ATOM     30  C   UNL     1     -36.222  27.995  -0.494  0.00  0.00    +0.035 C 
ATOM     31  C   UNL     1     -36.511  29.267   0.270  0.00  0.00    +0.143 C 
ENDBRANCH  25  28
ENDBRANCH  22  24
ENDBRANCH  21  22
ENDBRANCH  20  21
ENDBRANCH   1  20
TORSDOF 7
ENDMDL
MODEL 8
REMARK VINA RESULT:      -5.9      5.328     10.492
REMARK  Name = 2092
REMARK  7 active torsions:
REMARK  status: ('A' for Active; 'I' for Inactive)
REMARK    1  A    between atoms: N_1  and  C_20
REMARK    2  A    between atoms: C_12  and  O_16
REMARK    3  A    between atoms: C_13  and  O_18
REMARK    4  A    between atoms: C_20  and  C_21
REMARK    5  A    between atoms: C_21  and  C_22
REMARK    6  A    between atoms: C_22  and  N_24
REMARK    7  A    between atoms: C_25  and  C_28
REMARK                            x       y       z     vdW  Elec       q    Type
REMARK                         _______ _______ _______ _____ _____    ______ ____
ROOT
ATOM      1  N   UNL     1     -38.939  24.719   2.355  0.00  0.00    -0.232 N 
ATOM      2  N   UNL     1     -37.075  26.052   2.853  0.00  0.00    -0.332 NA
ATOM      3  N   UNL     1     -37.441  23.958   3.987  0.00  0.00    -0.313 NA
ATOM      4  N   UNL     1     -35.931  23.199   5.625  0.00  0.00    -0.332 N 
ATOM      5  C   UNL     1     -37.759  24.918   3.104  0.00  0.00    +0.204 C 
ATOM      6  C   UNL     1     -39.742  23.530   2.556  0.00  0.00    +0.125 C 
ATOM      7  C   UNL     1     -35.511  25.314   4.515  0.00  0.00    +0.074 C 
ATOM      8  C   UNL     1     -35.948  26.248   3.561  0.00  0.00    +0.134 C 
ATOM      9  C   UNL     1     -36.309  24.185   4.679  0.00  0.00    +0.193 C 
ATOM     10  C   UNL     1     -34.332  25.529   5.250  0.00  0.00    +0.046 C 
ATOM     11  C   UNL     1     -35.176  27.391   3.369  0.00  0.00    +0.127 C 
ATOM     12  C   UNL     1     -33.580  26.681   5.038  0.00  0.00    +0.169 C 
ATOM     13  C   UNL     1     -34.003  27.612   4.096  0.00  0.00    +0.157 C 
ATOM     14  H   UNL     1     -36.489  22.397   5.748  0.00  0.00    +0.145 HD
ATOM     15  H   UNL     1     -35.112  23.316   6.158  0.00  0.00    +0.145 HD
ENDROOT
BRANCH  12  16
ATOM     16  O   UNL     1     -32.440  26.883   5.754  0.00  0.00    -0.469 OA
ATOM     17  C   UNL     1     -32.587  27.375   7.085  0.00  0.00    +0.253 C 
ENDBRANCH  12  16
BRANCH  13  18
ATOM     18  O   UNL     1     -33.282  28.746   3.872  0.00  0.00    -0.472 OA
ATOM     19  C   UNL     1     -32.545  28.815   2.653  0.00  0.00    +0.252 C 
ENDBRANCH  13  18
BRANCH   1  20
ATOM     20  C   UNL     1     -39.370  25.709   1.390  0.00  0.00    +0.105 C 
BRANCH  20  21
ATOM     21  C   UNL     1     -40.810  26.146   1.659  0.00  0.00    +0.043 C 
BRANCH  21  22
ATOM     22  C   UNL     1     -41.002  26.850   3.001  0.00  0.00    +0.091 C 
BRANCH  22  24
ATOM     23  O   UNL     1     -41.937  28.875   4.859  0.00  0.00    -0.272 OA
ATOM     24  N   UNL     1     -42.355  27.289   3.205  0.00  0.00    -0.302 N 
ATOM     25  C   UNL     1     -42.711  28.270   4.122  0.00  0.00    +0.250 C 
ATOM     26  H   UNL     1     -43.066  26.873   2.667  0.00  0.00    +0.150 HD
BRANCH  25  28
ATOM     27  O   UNL     1     -44.354  29.803   4.790  0.00  0.00    -0.347 OA
ATOM     28  C   UNL     1     -44.180  28.553   4.115  0.00  0.00    +0.191 C 
ATOM     29  C   UNL     1     -44.735  28.713   2.713  0.00  0.00    +0.042 C 
ATOM     30  C   UNL     1     -44.605  30.199   2.477  0.00  0.00    +0.035 C 
ATOM     31  C   UNL     1     -44.870  30.760   3.856  0.00  0.00    +0.143 C 
ENDBRANCH  25  28
ENDBRANCH  22  24
ENDBRANCH  21  22
ENDBRANCH  20  21
ENDBRANCH   1  20
TORSDOF 7
ENDMDL
MODEL 9
REMARK VINA RESULT:      -5.9      4.306      9.772
REMARK  Name = 2092
REMARK  7 active torsions:
REMARK  status: ('A' for Active; 'I' for Inactive)
REMARK    1  A    between atoms: N_1  and  C_20
REMARK    2  A    between atoms: C_12  and  O_16
REMARK    3  A    between atoms: C_13  and  O_18
REMARK    4  A    between atoms: C_20  and  C_21
REMARK    5  A    between atoms: C_21  and  C_22
REMARK    6  A    between atoms: C_22  and  N_24
REMARK    7  A    between atoms: C_25  and  C_28
REMARK                            x       y       z     vdW  Elec       q    Type
REMARK                         _______ _______ _______ _____ _____    ______ ____
ROOT
ATOM      1  N   UNL     1     -37.933  22.911   1.635  0.00  0.00    -0.232 N 
ATOM      2  N   UNL     1     -36.382  24.622   2.048  0.00  0.00    -0.332 NA
ATOM      3  N   UNL     1     -36.891  22.974   3.732  0.00  0.00    -0.313 NA
ATOM      4  N   UNL     1     -35.840  23.044   5.837  0.00  0.00    -0.332 N 
ATOM      5  C   UNL     1     -37.023  23.533   2.518  0.00  0.00    +0.204 C 
ATOM      6  C   UNL     1     -38.669  21.734   2.051  0.00  0.00    +0.125 C 
ATOM      7  C   UNL     1     -35.288  24.728   4.181  0.00  0.00    +0.074 C 
ATOM      8  C   UNL     1     -35.513  25.219   2.883  0.00  0.00    +0.134 C 
ATOM      9  C   UNL     1     -36.014  23.596   4.542  0.00  0.00    +0.193 C 
ATOM     10  C   UNL     1     -34.378  25.360   5.044  0.00  0.00    +0.046 C 
ATOM     11  C   UNL     1     -34.805  26.350   2.484  0.00  0.00    +0.127 C 
ATOM     12  C   UNL     1     -33.685  26.489   4.620  0.00  0.00    +0.169 C 
ATOM     13  C   UNL     1     -33.898  26.984   3.338  0.00  0.00    +0.157 C 
ATOM     14  H   UNL     1     -36.349  22.245   6.102  0.00  0.00    +0.145 HD
ATOM     15  H   UNL     1     -35.211  23.461   6.469  0.00  0.00    +0.145 HD
ENDROOT
BRANCH  12  16
ATOM     16  O   UNL     1     -32.804  27.097   5.463  0.00  0.00    -0.469 OA
ATOM     17  C   UNL     1     -32.980  26.868   6.860  0.00  0.00    +0.253 C 
ENDBRANCH  12  16
BRANCH  13  18
ATOM     18  O   UNL     1     -33.230  28.088   2.901  0.00  0.00    -0.472 OA
ATOM     19  C   UNL     1     -34.013  29.240   2.596  0.00  0.00    +0.252 C 
ENDBRANCH  13  18
BRANCH   1  20
ATOM     20  C   UNL     1     -38.152  23.451   0.309  0.00  0.00    +0.105 C 
BRANCH  20  21
ATOM     21  C   UNL     1     -39.627  23.792   0.094  0.00  0.00    +0.043 C 
BRANCH  21  22
ATOM     22  C   UNL     1     -39.949  25.277   0.257  0.00  0.00    +0.091 C 
BRANCH  22  24
ATOM     23  O   UNL     1     -39.457  26.543   2.822  0.00  0.00    -0.272 OA
ATOM     24  N   UNL     1     -40.900  25.524   1.304  0.00  0.00    -0.302 N 
ATOM     25  C   UNL     1     -40.573  26.141   2.505  0.00  0.00    +0.250 C 
ATOM     26  H   UNL     1     -41.833  25.243   1.163  0.00  0.00    +0.150 HD
BRANCH  25  28
ATOM     27  O   UNL     1     -41.561  27.525   4.119  0.00  0.00    -0.347 OA
ATOM     28  C   UNL     1     -41.755  26.298   3.409  0.00  0.00    +0.191 C 
ATOM     29  C   UNL     1     -43.060  26.417   2.644  0.00  0.00    +0.042 C 
ATOM     30  C   UNL     1     -43.196  27.910   2.461  0.00  0.00    +0.035 C 
ATOM     31  C   UNL     1     -42.601  28.440   3.746  0.00  0.00    +0.143 C 
ENDBRANCH  25  28
ENDBRANCH  22  24
ENDBRANCH  21  22
ENDBRANCH  20  21
ENDBRANCH   1  20
TORSDOF 7
ENDMDL
