MODEL 1
REMARK VINA RESULT:      -6.1      0.000      0.000
REMARK  Name = 53946133
REMARK  4 active torsions:
REMARK  status: ('A' for Active; 'I' for Inactive)
REMARK    1  A    between atoms: C_1  and  S_20
REMARK    2  A    between atoms: C_2  and  C_14
REMARK    3  A    between atoms: C_3  and  C_9
REMARK    4  A    between atoms: S_20  and  N_24
REMARK                            x       y       z     vdW  Elec       q    Type
REMARK                         _______ _______ _______ _____ _____    ______ ____
ROOT
ATOM      1  C   UNL     1     -34.971  22.894   2.237  0.00  0.00    +0.124 C 
ATOM      2  C   UNL     1     -34.550  22.332   1.032  0.00  0.00    +0.019 C 
ATOM      3  C   UNL     1     -34.685  24.230   2.521  0.00  0.00    +0.033 C 
ATOM      4  C   UNL     1     -33.842  23.105   0.110  0.00  0.00    +0.001 C 
ATOM      5  C   UNL     1     -33.977  25.002   1.601  0.00  0.00    +0.000 C 
ATOM      6  C   UNL     1     -33.555  24.440   0.396  0.00  0.00    -0.000 C 
ENDROOT
BRANCH   3   9
ATOM      7  N   UNL     1     -34.296  24.885   4.861  0.00  0.00    -0.313 N 
ATOM      8  N   UNL     1     -36.256  25.442   3.977  0.00  0.00    -0.313 N 
ATOM      9  C   UNL     1     -35.102  24.852   3.758  0.00  0.00    +0.169 C 
ATOM     10  C   UNL     1     -34.979  25.538   5.848  0.00  0.00    +0.075 C 
ATOM     11  C   UNL     1     -36.186  25.872   5.278  0.00  0.00    +0.075 C 
ATOM     12  H   UNL     1     -33.390  24.508   4.932  0.00  0.00    +0.149 HD
ATOM     13  H   UNL     1     -37.005  25.552   3.347  0.00  0.00    +0.149 HD
ENDBRANCH   3   9
BRANCH   2  14
ATOM     14  C   UNL     1     -34.825  20.952   0.695  0.00  0.00    +0.001 C 
ATOM     15  C   UNL     1     -36.028  20.612   0.078  0.00  0.00    +0.000 C 
ATOM     16  C   UNL     1     -33.887  19.962   0.988  0.00  0.00    +0.000 C 
ATOM     17  C   UNL     1     -36.294  19.281  -0.247  0.00  0.00    +0.000 C 
ATOM     18  C   UNL     1     -34.153  18.632   0.663  0.00  0.00    +0.000 C 
ATOM     19  C   UNL     1     -35.357  18.292   0.046  0.00  0.00    +0.000 C 
ENDBRANCH   2  14
BRANCH   1  20
ATOM     20  S   UNL     1     -35.865  21.918   3.398  0.00  0.00    +0.077 S 
ATOM     21  O   UNL     1     -35.211  20.627   3.510  0.00  0.00    -0.150 OA
ATOM     22  O   UNL     1     -36.067  22.739   4.578  0.00  0.00    -0.150 OA
BRANCH  20  24
ATOM     23  O   UNL     1     -38.358  23.770   3.139  0.00  0.00    -0.251 OA
ATOM     24  N   UNL     1     -37.360  21.724   2.589  0.00  0.00    -0.169 N 
ATOM     25  N   UNL     1     -39.536  22.245   1.896  0.00  0.00    -0.312 N 
ATOM     26  C   UNL     1     -38.426  22.677   2.584  0.00  0.00    +0.316 C 
ATOM     27  H   UNL     1     -37.498  20.889   2.087  0.00  0.00    +0.178 HD
ATOM     28  H   UNL     1     -40.329  22.823   1.830  0.00  0.00    +0.147 HD
ATOM     29  H   UNL     1     -39.536  21.357   1.471  0.00  0.00    +0.147 HD
ENDBRANCH  20  24
ENDBRANCH   1  20
TORSDOF 4
ENDMDL
MODEL 2
REMARK VINA RESULT:      -6.1      3.954      5.655
REMARK  Name = 53946133
REMARK  4 active torsions:
REMARK  status: ('A' for Active; 'I' for Inactive)
REMARK    1  A    between atoms: C_1  and  S_20
REMARK    2  A    between atoms: C_2  and  C_14
REMARK    3  A    between atoms: C_3  and  C_9
REMARK    4  A    between atoms: S_20  and  N_24
REMARK                            x       y       z     vdW  Elec       q    Type
REMARK                         _______ _______ _______ _____ _____    ______ ____
ROOT
ATOM      1  C   UNL     1     -35.500  25.795   3.234  0.00  0.00    +0.124 C 
ATOM      2  C   UNL     1     -36.353  24.736   3.545  0.00  0.00    +0.019 C 
ATOM      3  C   UNL     1     -35.989  26.905   2.545  0.00  0.00    +0.033 C 
ATOM      4  C   UNL     1     -37.695  24.786   3.168  0.00  0.00    +0.001 C 
ATOM      5  C   UNL     1     -37.331  26.955   2.167  0.00  0.00    +0.000 C 
ATOM      6  C   UNL     1     -38.183  25.896   2.479  0.00  0.00    -0.000 C 
ENDROOT
BRANCH   3   9
ATOM      7  N   UNL     1     -35.200  29.212   2.874  0.00  0.00    -0.313 N 
ATOM      8  N   UNL     1     -34.242  28.049   1.242  0.00  0.00    -0.313 N 
ATOM      9  C   UNL     1     -35.141  28.024   2.201  0.00  0.00    +0.169 C 
ATOM     10  C   UNL     1     -34.279  30.050   2.309  0.00  0.00    +0.075 C 
ATOM     11  C   UNL     1     -33.701  29.309   1.304  0.00  0.00    +0.075 C 
ATOM     12  H   UNL     1     -35.796  29.427   3.627  0.00  0.00    +0.149 HD
ATOM     13  H   UNL     1     -34.007  27.325   0.619  0.00  0.00    +0.149 HD
ENDBRANCH   3   9
BRANCH   2  14
ATOM     14  C   UNL     1     -35.887  23.566   4.259  0.00  0.00    +0.001 C 
ATOM     15  C   UNL     1     -35.815  23.582   5.651  0.00  0.00    +0.000 C 
ATOM     16  C   UNL     1     -35.513  22.422   3.553  0.00  0.00    +0.000 C 
ATOM     17  C   UNL     1     -35.367  22.454   6.339  0.00  0.00    +0.000 C 
ATOM     18  C   UNL     1     -35.066  21.294   4.241  0.00  0.00    +0.000 C 
ATOM     19  C   UNL     1     -34.992  21.310   5.634  0.00  0.00    +0.000 C 
ENDBRANCH   2  14
BRANCH   1  20
ATOM     20  S   UNL     1     -33.805  25.731   3.711  0.00  0.00    +0.077 S 
ATOM     21  O   UNL     1     -33.634  24.627   4.638  0.00  0.00    -0.150 OA
ATOM     22  O   UNL     1     -33.018  25.791   2.493  0.00  0.00    -0.150 OA
BRANCH  20  24
ATOM     23  O   UNL     1     -31.334  27.529   4.319  0.00  0.00    -0.251 OA
ATOM     24  N   UNL     1     -33.641  27.209   4.557  0.00  0.00    -0.169 N 
ATOM     25  N   UNL     1     -32.559  29.046   5.525  0.00  0.00    -0.312 N 
ATOM     26  C   UNL     1     -32.413  27.908   4.767  0.00  0.00    +0.316 C 
ATOM     27  H   UNL     1     -34.460  27.611   4.928  0.00  0.00    +0.178 HD
ATOM     28  H   UNL     1     -31.775  29.604   5.732  0.00  0.00    +0.147 HD
ATOM     29  H   UNL     1     -33.449  29.303   5.860  0.00  0.00    +0.147 HD
ENDBRANCH  20  24
ENDBRANCH   1  20
TORSDOF 4
ENDMDL
MODEL 3
REMARK VINA RESULT:      -6.0      2.952      5.924
REMARK  Name = 53946133
REMARK  4 active torsions:
REMARK  status: ('A' for Active; 'I' for Inactive)
REMARK    1  A    between atoms: C_1  and  S_20
REMARK    2  A    between atoms: C_2  and  C_14
REMARK    3  A    between atoms: C_3  and  C_9
REMARK    4  A    between atoms: S_20  and  N_24
REMARK                            x       y       z     vdW  Elec       q    Type
REMARK                         _______ _______ _______ _____ _____    ______ ____
ROOT
ATOM      1  C   UNL     1     -37.706  23.967   2.072  0.00  0.00    +0.124 C 
ATOM      2  C   UNL     1     -37.352  25.193   2.636  0.00  0.00    +0.019 C 
ATOM      3  C   UNL     1     -38.811  23.882   1.225  0.00  0.00    +0.033 C 
ATOM      4  C   UNL     1     -38.104  26.334   2.353  0.00  0.00    +0.001 C 
ATOM      5  C   UNL     1     -39.562  25.022   0.943  0.00  0.00    +0.000 C 
ATOM      6  C   UNL     1     -39.209  26.248   1.507  0.00  0.00    -0.000 C 
ENDROOT
BRANCH   3   9
ATOM      7  N   UNL     1     -38.618  22.150  -0.513  0.00  0.00    -0.313 N 
ATOM      8  N   UNL     1     -40.158  21.829   1.055  0.00  0.00    -0.313 N 
ATOM      9  C   UNL     1     -39.212  22.632   0.619  0.00  0.00    +0.169 C 
ATOM     10  C   UNL     1     -39.222  20.963  -0.820  0.00  0.00    +0.075 C 
ATOM     11  C   UNL     1     -40.169  20.787   0.162  0.00  0.00    +0.075 C 
ATOM     12  H   UNL     1     -37.889  22.579  -1.016  0.00  0.00    +0.149 HD
ATOM     13  H   UNL     1     -40.730  21.947   1.847  0.00  0.00    +0.149 HD
ENDBRANCH   3   9
BRANCH   2  14
ATOM     14  C   UNL     1     -36.214  25.327   3.520  0.00  0.00    +0.001 C 
ATOM     15  C   UNL     1     -34.921  25.318   2.996  0.00  0.00    +0.000 C 
ATOM     16  C   UNL     1     -36.410  25.466   4.893  0.00  0.00    +0.000 C 
ATOM     17  C   UNL     1     -33.824  25.449   3.848  0.00  0.00    +0.000 C 
ATOM     18  C   UNL     1     -35.312  25.597   5.745  0.00  0.00    +0.000 C 
ATOM     19  C   UNL     1     -34.019  25.587   5.222  0.00  0.00    +0.000 C 
ENDBRANCH   2  14
BRANCH   1  20
ATOM     20  S   UNL     1     -36.756  22.527   2.429  0.00  0.00    +0.077 S 
ATOM     21  O   UNL     1     -37.549  21.360   2.091  0.00  0.00    -0.150 OA
ATOM     22  O   UNL     1     -35.448  22.720   1.829  0.00  0.00    -0.150 OA
BRANCH  20  24
ATOM     23  O   UNL     1     -35.080  20.904   4.496  0.00  0.00    -0.251 OA
ATOM     24  N   UNL     1     -36.612  22.637   4.131  0.00  0.00    -0.169 N 
ATOM     25  N   UNL     1     -35.910  22.065   6.291  0.00  0.00    -0.312 N 
ATOM     26  C   UNL     1     -35.800  21.790   4.947  0.00  0.00    +0.316 C 
ATOM     27  H   UNL     1     -37.130  23.341   4.584  0.00  0.00    +0.178 HD
ATOM     28  H   UNL     1     -35.394  21.540   6.944  0.00  0.00    +0.147 HD
ATOM     29  H   UNL     1     -36.505  22.786   6.598  0.00  0.00    +0.147 HD
ENDBRANCH  20  24
ENDBRANCH   1  20
TORSDOF 4
ENDMDL
MODEL 4
REMARK VINA RESULT:      -6.0      1.568      5.237
REMARK  Name = 53946133
REMARK  4 active torsions:
REMARK  status: ('A' for Active; 'I' for Inactive)
REMARK    1  A    between atoms: C_1  and  S_20
REMARK    2  A    between atoms: C_2  and  C_14
REMARK    3  A    between atoms: C_3  and  C_9
REMARK    4  A    between atoms: S_20  and  N_24
REMARK                            x       y       z     vdW  Elec       q    Type
REMARK                         _______ _______ _______ _____ _____    ______ ____
ROOT
ATOM      1  C   UNL     1     -34.907  22.441   1.878  0.00  0.00    +0.124 C 
ATOM      2  C   UNL     1     -34.659  23.796   2.094  0.00  0.00    +0.019 C 
ATOM      3  C   UNL     1     -34.474  21.832   0.699  0.00  0.00    +0.033 C 
ATOM      4  C   UNL     1     -33.979  24.544   1.132  0.00  0.00    +0.001 C 
ATOM      5  C   UNL     1     -33.796  22.580  -0.262  0.00  0.00    +0.000 C 
ATOM      6  C   UNL     1     -33.548  23.935  -0.046  0.00  0.00    -0.000 C 
ENDROOT
BRANCH   3   9
ATOM      7  N   UNL     1     -33.802  19.466   0.771  0.00  0.00    -0.313 N 
ATOM      8  N   UNL     1     -35.777  19.920  -0.139  0.00  0.00    -0.313 N 
ATOM      9  C   UNL     1     -34.710  20.431   0.434  0.00  0.00    +0.169 C 
ATOM     10  C   UNL     1     -34.324  18.262   0.388  0.00  0.00    +0.075 C 
ATOM     11  C   UNL     1     -35.543  18.568  -0.170  0.00  0.00    +0.075 C 
ATOM     12  H   UNL     1     -32.933  19.612   1.207  0.00  0.00    +0.149 HD
ATOM     13  H   UNL     1     -36.570  20.399  -0.471  0.00  0.00    +0.149 HD
ENDBRANCH   3   9
BRANCH   2  14
ATOM     14  C   UNL     1     -35.089  24.468   3.302  0.00  0.00    +0.001 C 
ATOM     15  C   UNL     1     -34.209  24.601   4.376  0.00  0.00    +0.000 C 
ATOM     16  C   UNL     1     -36.382  24.982   3.392  0.00  0.00    +0.000 C 
ATOM     17  C   UNL     1     -34.623  25.249   5.540  0.00  0.00    +0.000 C 
ATOM     18  C   UNL     1     -36.796  25.630   4.556  0.00  0.00    +0.000 C 
ATOM     19  C   UNL     1     -35.916  25.762   5.630  0.00  0.00    +0.000 C 
ENDBRANCH   2  14
BRANCH   1  20
ATOM     20  S   UNL     1     -35.764  21.498   3.093  0.00  0.00    +0.077 S 
ATOM     21  O   UNL     1     -35.792  20.113   2.662  0.00  0.00    -0.150 OA
ATOM     22  O   UNL     1     -35.198  21.850   4.383  0.00  0.00    -0.150 OA
BRANCH  20  24
ATOM     23  O   UNL     1     -38.101  20.988   1.095  0.00  0.00    -0.251 OA
ATOM     24  N   UNL     1     -37.339  22.157   2.976  0.00  0.00    -0.169 N 
ATOM     25  N   UNL     1     -39.469  22.541   2.081  0.00  0.00    -0.312 N 
ATOM     26  C   UNL     1     -38.300  21.825   1.970  0.00  0.00    +0.316 C 
ATOM     27  H   UNL     1     -37.605  22.817   3.656  0.00  0.00    +0.178 HD
ATOM     28  H   UNL     1     -40.200  22.392   1.439  0.00  0.00    +0.147 HD
ATOM     29  H   UNL     1     -39.575  23.202   2.803  0.00  0.00    +0.147 HD
ENDBRANCH  20  24
ENDBRANCH   1  20
TORSDOF 4
ENDMDL
MODEL 5
REMARK VINA RESULT:      -5.9      3.061      4.538
REMARK  Name = 53946133
REMARK  4 active torsions:
REMARK  status: ('A' for Active; 'I' for Inactive)
REMARK    1  A    between atoms: C_1  and  S_20
REMARK    2  A    between atoms: C_2  and  C_14
REMARK    3  A    between atoms: C_3  and  C_9
REMARK    4  A    between atoms: S_20  and  N_24
REMARK                            x       y       z     vdW  Elec       q    Type
REMARK                         _______ _______ _______ _____ _____    ______ ____
ROOT
ATOM      1  C   UNL     1     -36.703  24.644   1.911  0.00  0.00    +0.124 C 
ATOM      2  C   UNL     1     -35.485  24.070   2.275  0.00  0.00    +0.019 C 
ATOM      3  C   UNL     1     -36.835  25.275   0.674  0.00  0.00    +0.033 C 
ATOM      4  C   UNL     1     -34.398  24.128   1.402  0.00  0.00    +0.001 C 
ATOM      5  C   UNL     1     -35.749  25.333  -0.198  0.00  0.00    +0.000 C 
ATOM      6  C   UNL     1     -34.530  24.760   0.166  0.00  0.00    -0.000 C 
ENDROOT
BRANCH   3   9
ATOM      7  N   UNL     1     -38.328  27.216   0.428  0.00  0.00    -0.313 N 
ATOM      8  N   UNL     1     -39.089  25.266  -0.315  0.00  0.00    -0.313 N 
ATOM      9  C   UNL     1     -38.079  25.883   0.257  0.00  0.00    +0.169 C 
ATOM     10  C   UNL     1     -39.577  27.466  -0.067  0.00  0.00    +0.075 C 
ATOM     11  C   UNL     1     -40.026  26.247  -0.520  0.00  0.00    +0.075 C 
ATOM     12  H   UNL     1     -37.720  27.875   0.834  0.00  0.00    +0.149 HD
ATOM     13  H   UNL     1     -39.158  24.312  -0.547  0.00  0.00    +0.149 HD
ENDBRANCH   3   9
BRANCH   2  14
ATOM     14  C   UNL     1     -35.304  23.405   3.548  0.00  0.00    +0.001 C 
ATOM     15  C   UNL     1     -35.570  22.042   3.665  0.00  0.00    +0.000 C 
ATOM     16  C   UNL     1     -34.862  24.128   4.656  0.00  0.00    +0.000 C 
ATOM     17  C   UNL     1     -35.395  21.400   4.892  0.00  0.00    +0.000 C 
ATOM     18  C   UNL     1     -34.687  23.486   5.882  0.00  0.00    +0.000 C 
ATOM     19  C   UNL     1     -34.954  22.122   6.000  0.00  0.00    +0.000 C 
ENDBRANCH   2  14
BRANCH   1  20
ATOM     20  S   UNL     1     -38.075  24.570   3.014  0.00  0.00    +0.077 S 
ATOM     21  O   UNL     1     -37.579  24.708   4.371  0.00  0.00    -0.150 OA
ATOM     22  O   UNL     1     -39.079  25.488   2.506  0.00  0.00    -0.150 OA
BRANCH  20  24
ATOM     23  O   UNL     1     -40.545  23.394   1.520  0.00  0.00    -0.251 OA
ATOM     24  N   UNL     1     -38.612  22.964   2.770  0.00  0.00    -0.169 N 
ATOM     25  N   UNL     1     -40.018  21.230   2.063  0.00  0.00    -0.312 N 
ATOM     26  C   UNL     1     -39.797  22.587   2.066  0.00  0.00    +0.316 C 
ATOM     27  H   UNL     1     -38.059  22.241   3.145  0.00  0.00    +0.178 HD
ATOM     28  H   UNL     1     -40.808  20.861   1.607  0.00  0.00    +0.147 HD
ATOM     29  H   UNL     1     -39.386  20.628   2.519  0.00  0.00    +0.147 HD
ENDBRANCH  20  24
ENDBRANCH   1  20
TORSDOF 4
ENDMDL
MODEL 6
REMARK VINA RESULT:      -5.9      2.445      4.099
REMARK  Name = 53946133
REMARK  4 active torsions:
REMARK  status: ('A' for Active; 'I' for Inactive)
REMARK    1  A    between atoms: C_1  and  S_20
REMARK    2  A    between atoms: C_2  and  C_14
REMARK    3  A    between atoms: C_3  and  C_9
REMARK    4  A    between atoms: S_20  and  N_24
REMARK                            x       y       z     vdW  Elec       q    Type
REMARK                         _______ _______ _______ _____ _____    ______ ____
ROOT
ATOM      1  C   UNL     1     -37.588  22.359   1.394  0.00  0.00    +0.124 C 
ATOM      2  C   UNL     1     -37.179  21.212   0.714  0.00  0.00    +0.019 C 
ATOM      3  C   UNL     1     -38.923  22.761   1.344  0.00  0.00    +0.033 C 
ATOM      4  C   UNL     1     -38.104  20.467  -0.018  0.00  0.00    +0.001 C 
ATOM      5  C   UNL     1     -39.847  22.016   0.611  0.00  0.00    +0.000 C 
ATOM      6  C   UNL     1     -39.438  20.870  -0.069  0.00  0.00    -0.000 C 
ENDROOT
BRANCH   3   9
ATOM      7  N   UNL     1     -39.589  25.129   1.385  0.00  0.00    -0.313 N 
ATOM      8  N   UNL     1     -39.674  24.031   3.314  0.00  0.00    -0.313 N 
ATOM      9  C   UNL     1     -39.390  23.943   2.033  0.00  0.00    +0.169 C 
ATOM     10  C   UNL     1     -40.027  26.034   2.312  0.00  0.00    +0.075 C 
ATOM     11  C   UNL     1     -40.071  25.331   3.494  0.00  0.00    +0.075 C 
ATOM     12  H   UNL     1     -39.442  25.302   0.428  0.00  0.00    +0.149 HD
ATOM     13  H   UNL     1     -39.615  23.321   3.993  0.00  0.00    +0.149 HD
ENDBRANCH   3   9
BRANCH   2  14
ATOM     14  C   UNL     1     -35.804  20.759   0.740  0.00  0.00    +0.001 C 
ATOM     15  C   UNL     1     -35.349  19.977   1.801  0.00  0.00    +0.000 C 
ATOM     16  C   UNL     1     -34.937  21.103  -0.296  0.00  0.00    +0.000 C 
ATOM     17  C   UNL     1     -34.025  19.538   1.826  0.00  0.00    +0.000 C 
ATOM     18  C   UNL     1     -33.612  20.665  -0.271  0.00  0.00    +0.000 C 
ATOM     19  C   UNL     1     -33.156  19.883   0.790  0.00  0.00    +0.000 C 
ENDBRANCH   2  14
BRANCH   1  20
ATOM     20  S   UNL     1     -36.419  23.298   2.319  0.00  0.00    +0.077 S 
ATOM     21  O   UNL     1     -35.098  23.046   1.775  0.00  0.00    -0.150 OA
ATOM     22  O   UNL     1     -36.930  24.655   2.396  0.00  0.00    -0.150 OA
BRANCH  20  24
ATOM     23  O   UNL     1     -34.805  23.682   4.957  0.00  0.00    -0.251 OA
ATOM     24  N   UNL     1     -36.546  22.564   3.859  0.00  0.00    -0.169 N 
ATOM     25  N   UNL     1     -35.990  22.072   6.080  0.00  0.00    -0.312 N 
ATOM     26  C   UNL     1     -35.701  22.842   4.978  0.00  0.00    +0.316 C 
ATOM     27  H   UNL     1     -37.258  21.897   3.985  0.00  0.00    +0.178 HD
ATOM     28  H   UNL     1     -35.468  22.181   6.907  0.00  0.00    +0.147 HD
ATOM     29  H   UNL     1     -36.719  21.412   6.041  0.00  0.00    +0.147 HD
ENDBRANCH  20  24
ENDBRANCH   1  20
TORSDOF 4
ENDMDL
MODEL 7
REMARK VINA RESULT:      -5.9      2.530      3.426
REMARK  Name = 53946133
REMARK  4 active torsions:
REMARK  status: ('A' for Active; 'I' for Inactive)
REMARK    1  A    between atoms: C_1  and  S_20
REMARK    2  A    between atoms: C_2  and  C_14
REMARK    3  A    between atoms: C_3  and  C_9
REMARK    4  A    between atoms: S_20  and  N_24
REMARK                            x       y       z     vdW  Elec       q    Type
REMARK                         _______ _______ _______ _____ _____    ______ ____
ROOT
ATOM      1  C   UNL     1     -35.158  24.050   3.225  0.00  0.00    +0.124 C 
ATOM      2  C   UNL     1     -35.539  22.765   3.613  0.00  0.00    +0.019 C 
ATOM      3  C   UNL     1     -34.828  25.001   4.190  0.00  0.00    +0.033 C 
ATOM      4  C   UNL     1     -35.589  22.432   4.967  0.00  0.00    +0.001 C 
ATOM      5  C   UNL     1     -34.879  24.668   5.543  0.00  0.00    +0.000 C 
ATOM      6  C   UNL     1     -35.260  23.384   5.931  0.00  0.00    -0.000 C 
ENDROOT
BRANCH   3   9
ATOM      7  N   UNL     1     -33.121  26.679   3.618  0.00  0.00    -0.313 N 
ATOM      8  N   UNL     1     -35.230  27.373   3.669  0.00  0.00    -0.313 N 
ATOM      9  C   UNL     1     -34.428  26.344   3.831  0.00  0.00    +0.169 C 
ATOM     10  C   UNL     1     -33.085  28.008   3.300  0.00  0.00    +0.075 C 
ATOM     11  C   UNL     1     -34.399  28.413   3.338  0.00  0.00    +0.075 C 
ATOM     12  H   UNL     1     -32.346  26.075   3.683  0.00  0.00    +0.149 HD
ATOM     13  H   UNL     1     -36.209  27.394   3.764  0.00  0.00    +0.149 HD
ENDBRANCH   3   9
BRANCH   2  14
ATOM     14  C   UNL     1     -35.889  21.747   2.646  0.00  0.00    +0.001 C 
ATOM     15  C   UNL     1     -34.934  20.817   2.238  0.00  0.00    +0.000 C 
ATOM     16  C   UNL     1     -37.181  21.697   2.124  0.00  0.00    +0.000 C 
ATOM     17  C   UNL     1     -35.272  19.834   1.306  0.00  0.00    +0.000 C 
ATOM     18  C   UNL     1     -37.519  20.714   1.192  0.00  0.00    +0.000 C 
ATOM     19  C   UNL     1     -36.563  19.784   0.783  0.00  0.00    +0.000 C 
ENDBRANCH   2  14
BRANCH   1  20
ATOM     20  S   UNL     1     -35.094  24.469   1.515  0.00  0.00    +0.077 S 
ATOM     21  O   UNL     1     -34.604  25.830   1.396  0.00  0.00    -0.150 OA
ATOM     22  O   UNL     1     -34.408  23.384   0.836  0.00  0.00    -0.150 OA
BRANCH  20  24
ATOM     23  O   UNL     1     -37.469  26.366   2.203  0.00  0.00    -0.251 OA
ATOM     24  N   UNL     1     -36.753  24.429   1.100  0.00  0.00    -0.169 N 
ATOM     25  N   UNL     1     -39.002  25.081   1.083  0.00  0.00    -0.312 N 
ATOM     26  C   UNL     1     -37.733  25.381   1.519  0.00  0.00    +0.316 C 
ATOM     27  H   UNL     1     -37.057  23.690   0.524  0.00  0.00    +0.178 HD
ATOM     28  H   UNL     1     -39.754  25.671   1.316  0.00  0.00    +0.147 HD
ATOM     29  H   UNL     1     -39.157  24.276   0.538  0.00  0.00    +0.147 HD
ENDBRANCH  20  24
ENDBRANCH   1  20
TORSDOF 4
ENDMDL
MODEL 8
REMARK VINA RESULT:      -5.8      2.457      5.610
REMARK  Name = 53946133
REMARK  4 active torsions:
REMARK  status: ('A' for Active; 'I' for Inactive)
REMARK    1  A    between atoms: C_1  and  S_20
REMARK    2  A    between atoms: C_2  and  C_14
REMARK    3  A    between atoms: C_3  and  C_9
REMARK    4  A    between atoms: S_20  and  N_24
REMARK                            x       y       z     vdW  Elec       q    Type
REMARK                         _______ _______ _______ _____ _____    ______ ____
ROOT
ATOM      1  C   UNL     1     -37.167  22.135   1.980  0.00  0.00    +0.124 C 
ATOM      2  C   UNL     1     -35.960  21.910   2.642  0.00  0.00    +0.019 C 
ATOM      3  C   UNL     1     -37.602  21.243   1.000  0.00  0.00    +0.033 C 
ATOM      4  C   UNL     1     -35.187  20.792   2.325  0.00  0.00    +0.001 C 
ATOM      5  C   UNL     1     -36.829  20.126   0.682  0.00  0.00    +0.000 C 
ATOM      6  C   UNL     1     -35.622  19.901   1.344  0.00  0.00    -0.000 C 
ENDROOT
BRANCH   3   9
ATOM      7  N   UNL     1     -38.932  22.242  -0.813  0.00  0.00    -0.313 N 
ATOM      8  N   UNL     1     -40.004  20.895   0.590  0.00  0.00    -0.313 N 
ATOM      9  C   UNL     1     -38.845  21.438   0.289  0.00  0.00    +0.169 C 
ATOM     10  C   UNL     1     -40.229  22.210  -1.242  0.00  0.00    +0.075 C 
ATOM     11  C   UNL     1     -40.870  21.372  -0.360  0.00  0.00    +0.075 C 
ATOM     12  H   UNL     1     -38.196  22.752  -1.222  0.00  0.00    +0.149 HD
ATOM     13  H   UNL     1     -40.205  20.280   1.332  0.00  0.00    +0.149 HD
ENDBRANCH   3   9
BRANCH   2  14
ATOM     14  C   UNL     1     -35.472  22.809   3.666  0.00  0.00    +0.001 C 
ATOM     15  C   UNL     1     -35.659  22.499   5.012  0.00  0.00    +0.000 C 
ATOM     16  C   UNL     1     -34.813  23.984   3.305  0.00  0.00    +0.000 C 
ATOM     17  C   UNL     1     -35.188  23.365   6.000  0.00  0.00    +0.000 C 
ATOM     18  C   UNL     1     -34.341  24.850   4.292  0.00  0.00    +0.000 C 
ATOM     19  C   UNL     1     -34.530  24.541   5.639  0.00  0.00    +0.000 C 
ENDBRANCH   2  14
BRANCH   1  20
ATOM     20  S   UNL     1     -38.142  23.546   2.383  0.00  0.00    +0.077 S 
ATOM     21  O   UNL     1     -39.517  23.274   2.005  0.00  0.00    -0.150 OA
ATOM     22  O   UNL     1     -37.819  23.910   3.750  0.00  0.00    -0.150 OA
BRANCH  20  24
ATOM     23  O   UNL     1     -38.563  26.625   2.150  0.00  0.00    -0.251 OA
ATOM     24  N   UNL     1     -37.487  24.717   1.321  0.00  0.00    -0.169 N 
ATOM     25  N   UNL     1     -37.172  26.818   0.337  0.00  0.00    -0.312 N 
ATOM     26  C   UNL     1     -37.803  26.111   1.333  0.00  0.00    +0.316 C 
ATOM     27  H   UNL     1     -36.840  24.405   0.648  0.00  0.00    +0.178 HD
ATOM     28  H   UNL     1     -37.319  27.788   0.253  0.00  0.00    +0.147 HD
ATOM     29  H   UNL     1     -36.573  26.355  -0.292  0.00  0.00    +0.147 HD
ENDBRANCH  20  24
ENDBRANCH   1  20
TORSDOF 4
ENDMDL
MODEL 9
REMARK VINA RESULT:      -5.7      4.597      6.781
REMARK  Name = 53946133
REMARK  4 active torsions:
REMARK  status: ('A' for Active; 'I' for Inactive)
REMARK    1  A    between atoms: C_1  and  S_20
REMARK    2  A    between atoms: C_2  and  C_14
REMARK    3  A    between atoms: C_3  and  C_9
REMARK    4  A    between atoms: S_20  and  N_24
REMARK                            x       y       z     vdW  Elec       q    Type
REMARK                         _______ _______ _______ _____ _____    ______ ____
ROOT
ATOM      1  C   UNL     1     -35.504  26.045   3.378  0.00  0.00    +0.124 C 
ATOM      2  C   UNL     1     -34.270  25.822   3.987  0.00  0.00    +0.019 C 
ATOM      3  C   UNL     1     -36.590  25.222   3.680  0.00  0.00    +0.033 C 
ATOM      4  C   UNL     1     -34.119  24.776   4.898  0.00  0.00    +0.001 C 
ATOM      5  C   UNL     1     -36.439  24.177   4.590  0.00  0.00    +0.000 C 
ATOM      6  C   UNL     1     -35.204  23.954   5.199  0.00  0.00    -0.000 C 
ENDROOT
BRANCH   3   9
ATOM      7  N   UNL     1     -38.200  24.895   1.849  0.00  0.00    -0.313 N 
ATOM      8  N   UNL     1     -38.891  26.091   3.588  0.00  0.00    -0.313 N 
ATOM      9  C   UNL     1     -37.887  25.418   3.072  0.00  0.00    +0.169 C 
ATOM     10  C   UNL     1     -39.488  25.257   1.566  0.00  0.00    +0.075 C 
ATOM     11  C   UNL     1     -39.892  25.995   2.655  0.00  0.00    +0.075 C 
ATOM     12  H   UNL     1     -37.608  24.356   1.276  0.00  0.00    +0.149 HD
ATOM     13  H   UNL     1     -38.919  26.560   4.453  0.00  0.00    +0.149 HD
ENDBRANCH   3   9
BRANCH   2  14
ATOM     14  C   UNL     1     -33.117  26.651   3.703  0.00  0.00    +0.001 C 
ATOM     15  C   UNL     1     -32.801  27.716   4.546  0.00  0.00    +0.000 C 
ATOM     16  C   UNL     1     -32.324  26.384   2.588  0.00  0.00    +0.000 C 
ATOM     17  C   UNL     1     -31.690  28.514   4.274  0.00  0.00    +0.000 C 
ATOM     18  C   UNL     1     -31.213  27.183   2.315  0.00  0.00    +0.000 C 
ATOM     19  C   UNL     1     -30.897  28.248   3.158  0.00  0.00    +0.000 C 
ENDBRANCH   2  14
BRANCH   1  20
ATOM     20  S   UNL     1     -35.693  27.366   2.228  0.00  0.00    +0.077 S 
ATOM     21  O   UNL     1     -34.738  27.175   1.152  0.00  0.00    -0.150 OA
ATOM     22  O   UNL     1     -37.110  27.476   1.935  0.00  0.00    -0.150 OA
BRANCH  20  24
ATOM     23  O   UNL     1     -35.458  30.408   1.589  0.00  0.00    -0.251 OA
ATOM     24  N   UNL     1     -35.212  28.705   3.178  0.00  0.00    -0.169 N 
ATOM     25  N   UNL     1     -34.673  30.929   3.679  0.00  0.00    -0.312 N 
ATOM     26  C   UNL     1     -35.139  30.058   2.722  0.00  0.00    +0.316 C 
ATOM     27  H   UNL     1     -34.967  28.530   4.116  0.00  0.00    +0.178 HD
ATOM     28  H   UNL     1     -34.582  31.886   3.470  0.00  0.00    +0.147 HD
ATOM     29  H   UNL     1     -34.430  30.594   4.572  0.00  0.00    +0.147 HD
ENDBRANCH  20  24
ENDBRANCH   1  20
TORSDOF 4
ENDMDL
