MODEL 1
REMARK VINA RESULT:      -6.3      0.000      0.000
REMARK  Name = 54693606
REMARK  4 active torsions:
REMARK  status: ('A' for Active; 'I' for Inactive)
REMARK    1  A    between atoms: C_9  and  C_27
REMARK    2  A    between atoms: C_16  and  O_23
REMARK    3  A    between atoms: C_20  and  O_25
REMARK    4  A    between atoms: C_27  and  C_29
REMARK                            x       y       z     vdW  Elec       q    Type
REMARK                         _______ _______ _______ _____ _____    ______ ____
ROOT
ATOM      1  O   UNL     1     -33.112  18.125   1.458  0.00  0.00    -0.296 OA
ATOM      2  O   UNL     1     -38.781  25.005   0.925  0.00  0.00    -0.449 OA
ATOM      3  O   UNL     1     -37.897  24.124  -0.954  0.00  0.00    -0.245 OA
ATOM      4  C   UNL     1     -34.938  20.856   0.060  0.00  0.00    +0.012 C 
ATOM      5  C   UNL     1     -35.863  22.043   0.480  0.00  0.00    +0.010 C 
ATOM      6  C   UNL     1     -34.891  19.739   1.124  0.00  0.00    +0.079 C 
ATOM      7  C   UNL     1     -35.366  22.595   1.876  0.00  0.00    +0.024 C 
ATOM      8  C   UNL     1     -33.464  21.213  -0.201  0.00  0.00    +0.008 C 
ATOM      9  C   UNL     1     -37.373  21.575   0.410  0.00  0.00    +0.039 C 
ATOM     10  C   UNL     1     -32.750  19.859  -0.196  0.00  0.00    +0.058 C 
ATOM     11  C   UNL     1     -33.526  19.120   0.875  0.00  0.00    +0.154 C 
ATOM     12  C   UNL     1     -36.008  23.922   2.387  0.00  0.00    +0.034 C 
ATOM     13  C   UNL     1     -34.974  20.213   2.542  0.00  0.00    -0.024 C 
ATOM     14  C   UNL     1     -35.191  21.491   2.889  0.00  0.00    -0.031 C 
ATOM     15  C   UNL     1     -38.383  22.621   0.824  0.00  0.00    +0.083 C 
ATOM     16  C   UNL     1     -37.111  23.847   3.461  0.00  0.00    +0.114 C 
ATOM     17  C   UNL     1     -31.271  19.971   0.114  0.00  0.00    +0.008 C 
ATOM     18  C   UNL     1     -38.196  24.938   3.330  0.00  0.00    +0.073 C 
ATOM     19  C   UNL     1     -39.298  24.807   2.256  0.00  0.00    +0.179 C 
ATOM     20  C   UNL     1     -39.332  22.409   1.752  0.00  0.00    +0.117 C 
ATOM     21  C   UNL     1     -40.140  23.536   2.303  0.00  0.00    +0.107 C 
ATOM     22  C   UNL     1     -38.342  23.959   0.177  0.00  0.00    +0.340 C 
ENDROOT
BRANCH  16  23
ATOM     23  O   UNL     1     -36.501  24.092   4.741  0.00  0.00    -0.384 OA
ATOM     24  H   UNL     1     -36.898  24.882   5.142  0.00  0.00    +0.210 HD
ENDBRANCH  16  23
BRANCH  20  25
ATOM     25  O   UNL     1     -39.507  21.178   2.351  0.00  0.00    -0.510 OA
ATOM     26  H   UNL     1     -39.042  20.968   3.137  0.00  0.00    +0.292 HD
ENDBRANCH  20  25
BRANCH   9  27
ATOM     27  C   UNL     1     -37.777  21.031  -0.974  0.00  0.00    +0.069 C 
BRANCH  27  29
ATOM     28  O   UNL     1     -39.693  19.640  -0.486  0.00  0.00    -0.296 OA
ATOM     29  C   UNL     1     -38.527  19.726  -0.868  0.00  0.00    +0.151 C 
ATOM     30  C   UNL     1     -37.748  18.499  -1.267  0.00  0.00    +0.072 C 
ENDBRANCH  27  29
ENDBRANCH   9  27
TORSDOF 4
ENDMDL
MODEL 2
REMARK VINA RESULT:      -6.3      2.674      5.025
REMARK  Name = 54693606
REMARK  4 active torsions:
REMARK  status: ('A' for Active; 'I' for Inactive)
REMARK    1  A    between atoms: C_9  and  C_27
REMARK    2  A    between atoms: C_16  and  O_23
REMARK    3  A    between atoms: C_20  and  O_25
REMARK    4  A    between atoms: C_27  and  C_29
REMARK                            x       y       z     vdW  Elec       q    Type
REMARK                         _______ _______ _______ _____ _____    ______ ____
ROOT
ATOM      1  O   UNL     1     -40.340  20.885  -0.923  0.00  0.00    -0.296 OA
ATOM      2  O   UNL     1     -34.040  25.081   3.816  0.00  0.00    -0.449 OA
ATOM      3  O   UNL     1     -34.341  25.591   1.640  0.00  0.00    -0.245 OA
ATOM      4  C   UNL     1     -37.504  22.929  -0.196  0.00  0.00    +0.012 C 
ATOM      5  C   UNL     1     -36.542  23.302   0.977  0.00  0.00    +0.010 C 
ATOM      6  C   UNL     1     -38.846  22.352   0.301  0.00  0.00    +0.079 C 
ATOM      7  C   UNL     1     -36.322  22.018   1.872  0.00  0.00    +0.024 C 
ATOM      8  C   UNL     1     -36.973  21.884  -1.194  0.00  0.00    +0.008 C 
ATOM      9  C   UNL     1     -37.100  24.584   1.718  0.00  0.00    +0.039 C 
ATOM     10  C   UNL     1     -38.220  21.438  -1.960  0.00  0.00    +0.058 C 
ATOM     11  C   UNL     1     -39.268  21.476  -0.866  0.00  0.00    +0.154 C 
ATOM     12  C   UNL     1     -35.226  22.099   2.979  0.00  0.00    +0.034 C 
ATOM     13  C   UNL     1     -38.756  21.521   1.544  0.00  0.00    -0.024 C 
ATOM     14  C   UNL     1     -37.629  21.369   2.257  0.00  0.00    -0.031 C 
ATOM     15  C   UNL     1     -36.280  25.042   2.903  0.00  0.00    +0.083 C 
ATOM     16  C   UNL     1     -35.661  22.334   4.439  0.00  0.00    +0.114 C 
ATOM     17  C   UNL     1     -38.069  20.068  -2.590  0.00  0.00    +0.008 C 
ATOM     18  C   UNL     1     -34.665  23.175   5.267  0.00  0.00    +0.073 C 
ATOM     19  C   UNL     1     -34.610  24.708   5.086  0.00  0.00    +0.179 C 
ATOM     20  C   UNL     1     -36.798  25.255   4.125  0.00  0.00    +0.117 C 
ATOM     21  C   UNL     1     -35.916  25.462   5.311  0.00  0.00    +0.107 C 
ATOM     22  C   UNL     1     -34.822  25.278   2.723  0.00  0.00    +0.340 C 
ENDROOT
BRANCH  16  23
ATOM     23  O   UNL     1     -35.698  21.057   5.102  0.00  0.00    -0.384 OA
ATOM     24  H   UNL     1     -34.893  20.944   5.631  0.00  0.00    +0.210 HD
ENDBRANCH  16  23
BRANCH  20  25
ATOM     25  O   UNL     1     -38.150  25.144   4.376  0.00  0.00    -0.510 OA
ATOM     26  H   UNL     1     -38.768  25.298   3.690  0.00  0.00    +0.292 HD
ENDBRANCH  20  25
BRANCH   9  27
ATOM     27  C   UNL     1     -37.307  25.788   0.778  0.00  0.00    +0.069 C 
BRANCH  27  29
ATOM     28  O   UNL     1     -39.218  26.686   1.955  0.00  0.00    -0.296 OA
ATOM     29  C   UNL     1     -38.701  26.355   0.890  0.00  0.00    +0.151 C 
ATOM     30  C   UNL     1     -39.445  26.498  -0.413  0.00  0.00    +0.072 C 
ENDBRANCH  27  29
ENDBRANCH   9  27
TORSDOF 4
ENDMDL
MODEL 3
REMARK VINA RESULT:      -6.2      2.133      4.645
REMARK  Name = 54693606
REMARK  4 active torsions:
REMARK  status: ('A' for Active; 'I' for Inactive)
REMARK    1  A    between atoms: C_9  and  C_27
REMARK    2  A    between atoms: C_16  and  O_23
REMARK    3  A    between atoms: C_20  and  O_25
REMARK    4  A    between atoms: C_27  and  C_29
REMARK                            x       y       z     vdW  Elec       q    Type
REMARK                         _______ _______ _______ _____ _____    ______ ____
ROOT
ATOM      1  O   UNL     1     -34.004  25.510   5.991  0.00  0.00    -0.296 OA
ATOM      2  O   UNL     1     -38.717  22.806  -1.097  0.00  0.00    -0.449 OA
ATOM      3  O   UNL     1     -36.468  22.923  -1.216  0.00  0.00    -0.245 OA
ATOM      4  C   UNL     1     -34.755  24.594   2.623  0.00  0.00    +0.012 C 
ATOM      5  C   UNL     1     -35.967  24.275   1.690  0.00  0.00    +0.010 C 
ATOM      6  C   UNL     1     -35.100  24.427   4.118  0.00  0.00    +0.079 C 
ATOM      7  C   UNL     1     -37.180  25.198   2.111  0.00  0.00    +0.024 C 
ATOM      8  C   UNL     1     -34.178  26.017   2.509  0.00  0.00    +0.008 C 
ATOM      9  C   UNL     1     -36.237  22.715   1.705  0.00  0.00    +0.039 C 
ATOM     10  C   UNL     1     -33.312  26.164   3.763  0.00  0.00    +0.058 C 
ATOM     11  C   UNL     1     -34.128  25.390   4.778  0.00  0.00    +0.154 C 
ATOM     12  C   UNL     1     -38.430  25.204   1.176  0.00  0.00    +0.034 C 
ATOM     13  C   UNL     1     -36.502  24.798   4.489  0.00  0.00    -0.024 C 
ATOM     14  C   UNL     1     -37.443  25.141   3.596  0.00  0.00    -0.031 C 
ATOM     15  C   UNL     1     -37.410  22.264   0.866  0.00  0.00    +0.083 C 
ATOM     16  C   UNL     1     -39.665  24.379   1.584  0.00  0.00    +0.114 C 
ATOM     17  C   UNL     1     -33.088  27.610   4.160  0.00  0.00    +0.008 C 
ATOM     18  C   UNL     1     -40.441  23.772   0.395  0.00  0.00    +0.073 C 
ATOM     19  C   UNL     1     -39.898  22.517  -0.322  0.00  0.00    +0.179 C 
ATOM     20  C   UNL     1     -38.411  21.500   1.339  0.00  0.00    +0.117 C 
ATOM     21  C   UNL     1     -39.660  21.290   0.551  0.00  0.00    +0.107 C 
ATOM     22  C   UNL     1     -37.475  22.674  -0.562  0.00  0.00    +0.340 C 
ENDROOT
BRANCH  16  23
ATOM     23  O   UNL     1     -40.605  25.269   2.215  0.00  0.00    -0.384 OA
ATOM     24  H   UNL     1     -40.254  25.552   3.074  0.00  0.00    +0.210 HD
ENDBRANCH  16  23
BRANCH  20  25
ATOM     25  O   UNL     1     -38.403  21.000   2.625  0.00  0.00    -0.510 OA
ATOM     26  H   UNL     1     -39.143  20.526   2.949  0.00  0.00    +0.292 HD
ENDBRANCH  20  25
BRANCH   9  27
ATOM     27  C   UNL     1     -35.004  21.881   1.304  0.00  0.00    +0.069 C 
BRANCH  27  29
ATOM     28  O   UNL     1     -35.444  20.451   3.203  0.00  0.00    -0.296 OA
ATOM     29  C   UNL     1     -34.897  20.612   2.113  0.00  0.00    +0.151 C 
ATOM     30  C   UNL     1     -34.061  19.521   1.495  0.00  0.00    +0.072 C 
ENDBRANCH  27  29
ENDBRANCH   9  27
TORSDOF 4
ENDMDL
MODEL 4
REMARK VINA RESULT:      -6.1      1.951      6.710
REMARK  Name = 54693606
REMARK  4 active torsions:
REMARK  status: ('A' for Active; 'I' for Inactive)
REMARK    1  A    between atoms: C_9  and  C_27
REMARK    2  A    between atoms: C_16  and  O_23
REMARK    3  A    between atoms: C_20  and  O_25
REMARK    4  A    between atoms: C_27  and  C_29
REMARK                            x       y       z     vdW  Elec       q    Type
REMARK                         _______ _______ _______ _____ _____    ______ ____
ROOT
ATOM      1  O   UNL     1     -41.215  25.664   3.356  0.00  0.00    -0.296 OA
ATOM      2  O   UNL     1     -34.143  21.186   0.242  0.00  0.00    -0.449 OA
ATOM      3  O   UNL     1     -34.042  23.426   0.481  0.00  0.00    -0.245 OA
ATOM      4  C   UNL     1     -38.030  25.060   1.858  0.00  0.00    +0.012 C 
ATOM      5  C   UNL     1     -37.143  23.894   1.315  0.00  0.00    +0.010 C 
ATOM      6  C   UNL     1     -39.113  24.568   2.843  0.00  0.00    +0.079 C 
ATOM      7  C   UNL     1     -38.086  22.816   0.646  0.00  0.00    +0.024 C 
ATOM      8  C   UNL     1     -38.801  25.867   0.798  0.00  0.00    +0.008 C 
ATOM      9  C   UNL     1     -36.200  23.376   2.475  0.00  0.00    +0.039 C 
ATOM     10  C   UNL     1     -39.846  26.637   1.609  0.00  0.00    +0.058 C 
ATOM     11  C   UNL     1     -40.192  25.625   2.681  0.00  0.00    +0.154 C 
ATOM     12  C   UNL     1     -37.400  21.667  -0.156  0.00  0.00    +0.034 C 
ATOM     13  C   UNL     1     -39.683  23.218   2.534  0.00  0.00    -0.024 C 
ATOM     14  C   UNL     1     -39.226  22.424   1.554  0.00  0.00    -0.031 C 
ATOM     15  C   UNL     1     -35.303  22.219   2.097  0.00  0.00    +0.083 C 
ATOM     16  C   UNL     1     -37.253  20.284   0.508  0.00  0.00    +0.114 C 
ATOM     17  C   UNL     1     -41.044  27.059   0.781  0.00  0.00    +0.008 C 
ATOM     18  C   UNL     1     -35.972  19.522   0.105  0.00  0.00    +0.073 C 
ATOM     19  C   UNL     1     -34.613  19.913   0.728  0.00  0.00    +0.179 C 
ATOM     20  C   UNL     1     -35.237  21.072   2.795  0.00  0.00    +0.117 C 
ATOM     21  C   UNL     1     -34.532  19.875   2.250  0.00  0.00    +0.107 C 
ATOM     22  C   UNL     1     -34.438  22.341   0.894  0.00  0.00    +0.340 C 
ENDROOT
BRANCH  16  23
ATOM     23  O   UNL     1     -38.332  19.452   0.042  0.00  0.00    -0.384 OA
ATOM     24  H   UNL     1     -38.211  18.549   0.376  0.00  0.00    +0.210 HD
ENDBRANCH  16  23
BRANCH  20  25
ATOM     25  O   UNL     1     -35.937  20.890   3.971  0.00  0.00    -0.510 OA
ATOM     26  H   UNL     1     -35.600  20.323   4.635  0.00  0.00    +0.292 HD
ENDBRANCH  20  25
BRANCH   9  27
ATOM     27  C   UNL     1     -35.326  24.485   3.091  0.00  0.00    +0.069 C 
BRANCH  27  29
ATOM     28  O   UNL     1     -36.179  23.787   5.242  0.00  0.00    -0.296 OA
ATOM     29  C   UNL     1     -35.401  24.489   4.598  0.00  0.00    +0.151 C 
ATOM     30  C   UNL     1     -34.445  25.426   5.289  0.00  0.00    +0.072 C 
ENDBRANCH  27  29
ENDBRANCH   9  27
TORSDOF 4
ENDMDL
MODEL 5
REMARK VINA RESULT:      -6.1      3.088      5.003
REMARK  Name = 54693606
REMARK  4 active torsions:
REMARK  status: ('A' for Active; 'I' for Inactive)
REMARK    1  A    between atoms: C_9  and  C_27
REMARK    2  A    between atoms: C_16  and  O_23
REMARK    3  A    between atoms: C_20  and  O_25
REMARK    4  A    between atoms: C_27  and  C_29
REMARK                            x       y       z     vdW  Elec       q    Type
REMARK                         _______ _______ _______ _____ _____    ______ ____
ROOT
ATOM      1  O   UNL     1     -35.392  20.625   3.861  0.00  0.00    -0.296 OA
ATOM      2  O   UNL     1     -39.076  28.021   0.474  0.00  0.00    -0.449 OA
ATOM      3  O   UNL     1     -37.071  28.129   1.500  0.00  0.00    -0.245 OA
ATOM      4  C   UNL     1     -35.926  24.090   3.185  0.00  0.00    +0.012 C 
ATOM      5  C   UNL     1     -36.967  25.055   2.534  0.00  0.00    +0.010 C 
ATOM      6  C   UNL     1     -36.082  22.635   2.693  0.00  0.00    +0.079 C 
ATOM      7  C   UNL     1     -38.418  24.499   2.825  0.00  0.00    +0.024 C 
ATOM      8  C   UNL     1     -35.970  23.992   4.721  0.00  0.00    +0.008 C 
ATOM      9  C   UNL     1     -36.594  25.272   1.011  0.00  0.00    +0.039 C 
ATOM     10  C   UNL     1     -35.158  22.733   5.033  0.00  0.00    +0.058 C 
ATOM     11  C   UNL     1     -35.533  21.842   3.867  0.00  0.00    +0.154 C 
ATOM     12  C   UNL     1     -39.623  25.418   2.455  0.00  0.00    +0.034 C 
ATOM     13  C   UNL     1     -37.490  22.208   2.415  0.00  0.00    -0.024 C 
ATOM     14  C   UNL     1     -38.544  23.038   2.468  0.00  0.00    -0.031 C 
ATOM     15  C   UNL     1     -37.541  26.165   0.243  0.00  0.00    +0.083 C 
ATOM     16  C   UNL     1     -40.401  25.134   1.155  0.00  0.00    +0.114 C 
ATOM     17  C   UNL     1     -35.501  22.126   6.379  0.00  0.00    +0.008 C 
ATOM     18  C   UNL     1     -40.945  26.398   0.455  0.00  0.00    +0.073 C 
ATOM     19  C   UNL     1     -39.994  27.295  -0.367  0.00  0.00    +0.179 C 
ATOM     20  C   UNL     1     -38.125  25.808  -0.914  0.00  0.00    +0.117 C 
ATOM     21  C   UNL     1     -39.234  26.614  -1.501  0.00  0.00    +0.107 C 
ATOM     22  C   UNL     1     -37.853  27.516   0.782  0.00  0.00    +0.340 C 
ENDROOT
BRANCH  16  23
ATOM     23  O   UNL     1     -41.575  24.375   1.499  0.00  0.00    -0.384 OA
ATOM     24  H   UNL     1     -42.359  24.942   1.427  0.00  0.00    +0.210 HD
ENDBRANCH  16  23
BRANCH  20  25
ATOM     25  O   UNL     1     -37.838  24.610  -1.537  0.00  0.00    -0.510 OA
ATOM     26  H   UNL     1     -37.050  24.150  -1.329  0.00  0.00    +0.292 HD
ENDBRANCH  20  25
BRANCH   9  27
ATOM     27  C   UNL     1     -35.159  25.796   0.806  0.00  0.00    +0.069 C 
BRANCH  27  29
ATOM     28  O   UNL     1     -34.655  24.967  -1.409  0.00  0.00    -0.296 OA
ATOM     29  C   UNL     1     -34.400  24.973  -0.206  0.00  0.00    +0.151 C 
ATOM     30  C   UNL     1     -33.279  24.136   0.355  0.00  0.00    +0.072 C 
ENDBRANCH  27  29
ENDBRANCH   9  27
TORSDOF 4
ENDMDL
MODEL 6
REMARK VINA RESULT:      -6.1      2.518      5.874
REMARK  Name = 54693606
REMARK  4 active torsions:
REMARK  status: ('A' for Active; 'I' for Inactive)
REMARK    1  A    between atoms: C_9  and  C_27
REMARK    2  A    between atoms: C_16  and  O_23
REMARK    3  A    between atoms: C_20  and  O_25
REMARK    4  A    between atoms: C_27  and  C_29
REMARK                            x       y       z     vdW  Elec       q    Type
REMARK                         _______ _______ _______ _____ _____    ______ ____
ROOT
ATOM      1  O   UNL     1     -34.932  27.583   3.887  0.00  0.00    -0.296 OA
ATOM      2  O   UNL     1     -39.619  20.757   0.540  0.00  0.00    -0.449 OA
ATOM      3  O   UNL     1     -40.062  21.518   2.616  0.00  0.00    -0.245 OA
ATOM      4  C   UNL     1     -37.166  24.801   3.760  0.00  0.00    +0.012 C 
ATOM      5  C   UNL     1     -37.624  23.651   2.806  0.00  0.00    +0.010 C 
ATOM      6  C   UNL     1     -36.516  25.976   2.999  0.00  0.00    +0.079 C 
ATOM      7  C   UNL     1     -36.376  23.173   1.961  0.00  0.00    +0.024 C 
ATOM      8  C   UNL     1     -36.136  24.411   4.835  0.00  0.00    +0.008 C 
ATOM      9  C   UNL     1     -38.885  24.134   1.980  0.00  0.00    +0.039 C 
ATOM     10  C   UNL     1     -35.595  25.753   5.331  0.00  0.00    +0.058 C 
ATOM     11  C   UNL     1     -35.590  26.562   4.050  0.00  0.00    +0.154 C 
ATOM     12  C   UNL     1     -36.550  21.886   1.097  0.00  0.00    +0.034 C 
ATOM     13  C   UNL     1     -35.720  25.585   1.792  0.00  0.00    -0.024 C 
ATOM     14  C   UNL     1     -35.655  24.331   1.317  0.00  0.00    -0.031 C 
ATOM     15  C   UNL     1     -39.419  23.127   0.986  0.00  0.00    +0.083 C 
ATOM     16  C   UNL     1     -36.790  22.036  -0.418  0.00  0.00    +0.114 C 
ATOM     17  C   UNL     1     -34.224  25.640   5.967  0.00  0.00    +0.008 C 
ATOM     18  C   UNL     1     -37.709  20.953  -1.023  0.00  0.00    +0.073 C 
ATOM     19  C   UNL     1     -39.238  21.037  -0.822  0.00  0.00    +0.179 C 
ATOM     20  C   UNL     1     -39.625  23.403  -0.313  0.00  0.00    +0.117 C 
ATOM     21  C   UNL     1     -39.913  22.319  -1.297  0.00  0.00    +0.107 C 
ATOM     22  C   UNL     1     -39.742  21.753   1.457  0.00  0.00    +0.340 C 
ENDROOT
BRANCH  16  23
ATOM     23  O   UNL     1     -35.527  21.856  -1.086  0.00  0.00    -0.384 OA
ATOM     24  H   UNL     1     -35.485  22.440  -1.861  0.00  0.00    +0.210 HD
ENDBRANCH  16  23
BRANCH  20  25
ATOM     25  O   UNL     1     -39.434  24.668  -0.830  0.00  0.00    -0.510 OA
ATOM     26  H   UNL     1     -39.862  24.920  -1.625  0.00  0.00    +0.292 HD
ENDBRANCH  20  25
BRANCH   9  27
ATOM     27  C   UNL     1     -40.052  24.603   2.869  0.00  0.00    +0.069 C 
BRANCH  27  29
ATOM     28  O   UNL     1     -39.975  26.686   1.645  0.00  0.00    -0.296 OA
ATOM     29  C   UNL     1     -40.457  26.024   2.563  0.00  0.00    +0.151 C 
ATOM     30  C   UNL     1     -41.514  26.604   3.468  0.00  0.00    +0.072 C 
ENDBRANCH  27  29
ENDBRANCH   9  27
TORSDOF 4
ENDMDL
MODEL 7
REMARK VINA RESULT:      -6.0      3.097      5.459
REMARK  Name = 54693606
REMARK  4 active torsions:
REMARK  status: ('A' for Active; 'I' for Inactive)
REMARK    1  A    between atoms: C_9  and  C_27
REMARK    2  A    between atoms: C_16  and  O_23
REMARK    3  A    between atoms: C_20  and  O_25
REMARK    4  A    between atoms: C_27  and  C_29
REMARK                            x       y       z     vdW  Elec       q    Type
REMARK                         _______ _______ _______ _____ _____    ______ ____
ROOT
ATOM      1  O   UNL     1     -32.191  27.993   3.783  0.00  0.00    -0.296 OA
ATOM      2  O   UNL     1     -38.675  22.835   0.447  0.00  0.00    -0.449 OA
ATOM      3  O   UNL     1     -36.649  21.951   0.894  0.00  0.00    -0.245 OA
ATOM      4  C   UNL     1     -33.792  25.158   2.316  0.00  0.00    +0.012 C 
ATOM      5  C   UNL     1     -35.154  24.719   1.690  0.00  0.00    +0.010 C 
ATOM      6  C   UNL     1     -33.932  26.399   3.223  0.00  0.00    +0.079 C 
ATOM      7  C   UNL     1     -35.762  25.947   0.900  0.00  0.00    +0.024 C 
ATOM      8  C   UNL     1     -32.681  25.526   1.315  0.00  0.00    +0.008 C 
ATOM      9  C   UNL     1     -36.067  24.092   2.820  0.00  0.00    +0.039 C 
ATOM     10  C   UNL     1     -31.650  26.269   2.167  0.00  0.00    +0.058 C 
ATOM     11  C   UNL     1     -32.547  27.016   3.133  0.00  0.00    +0.154 C 
ATOM     12  C   UNL     1     -37.017  25.675   0.013  0.00  0.00    +0.034 C 
ATOM     13  C   UNL     1     -34.955  27.397   2.777  0.00  0.00    -0.024 C 
ATOM     14  C   UNL     1     -35.783  27.201   1.740  0.00  0.00    -0.031 C 
ATOM     15  C   UNL     1     -37.438  23.650   2.360  0.00  0.00    +0.083 C 
ATOM     16  C   UNL     1     -38.405  26.072   0.551  0.00  0.00    +0.114 C 
ATOM     17  C   UNL     1     -30.760  27.187   1.352  0.00  0.00    +0.008 C 
ATOM     18  C   UNL     1     -39.546  25.128   0.111  0.00  0.00    +0.073 C 
ATOM     19  C   UNL     1     -39.724  23.758   0.801  0.00  0.00    +0.179 C 
ATOM     20  C   UNL     1     -38.581  24.040   2.951  0.00  0.00    +0.117 C 
ATOM     21  C   UNL     1     -39.906  23.782   2.315  0.00  0.00    +0.107 C 
ATOM     22  C   UNL     1     -37.545  22.732   1.195  0.00  0.00    +0.340 C 
ENDROOT
BRANCH  16  23
ATOM     23  O   UNL     1     -38.751  27.349  -0.017  0.00  0.00    -0.384 OA
ATOM     24  H   UNL     1     -39.436  27.228  -0.693  0.00  0.00    +0.210 HD
ENDBRANCH  16  23
BRANCH  20  25
ATOM     25  O   UNL     1     -38.586  24.824   4.086  0.00  0.00    -0.510 OA
ATOM     26  H   UNL     1     -39.365  24.901   4.600  0.00  0.00    +0.292 HD
ENDBRANCH  20  25
BRANCH   9  27
ATOM     27  C   UNL     1     -35.400  22.915   3.557  0.00  0.00    +0.069 C 
BRANCH  27  29
ATOM     28  O   UNL     1     -36.125  23.957   5.615  0.00  0.00    -0.296 OA
ATOM     29  C   UNL     1     -35.614  22.992   5.049  0.00  0.00    +0.151 C 
ATOM     30  C   UNL     1     -35.156  21.787   5.830  0.00  0.00    +0.072 C 
ENDBRANCH  27  29
ENDBRANCH   9  27
TORSDOF 4
ENDMDL
MODEL 8
REMARK VINA RESULT:      -6.0      1.831      4.912
REMARK  Name = 54693606
REMARK  4 active torsions:
REMARK  status: ('A' for Active; 'I' for Inactive)
REMARK    1  A    between atoms: C_9  and  C_27
REMARK    2  A    between atoms: C_16  and  O_23
REMARK    3  A    between atoms: C_20  and  O_25
REMARK    4  A    between atoms: C_27  and  C_29
REMARK                            x       y       z     vdW  Elec       q    Type
REMARK                         _______ _______ _______ _____ _____    ______ ____
ROOT
ATOM      1  O   UNL     1     -34.684  24.073   5.523  0.00  0.00    -0.296 OA
ATOM      2  O   UNL     1     -37.661  20.907  -2.280  0.00  0.00    -0.449 OA
ATOM      3  O   UNL     1     -35.640  21.898  -2.163  0.00  0.00    -0.245 OA
ATOM      4  C   UNL     1     -34.879  23.478   2.007  0.00  0.00    +0.012 C 
ATOM      5  C   UNL     1     -35.829  22.866   0.928  0.00  0.00    +0.010 C 
ATOM      6  C   UNL     1     -35.188  22.959   3.428  0.00  0.00    +0.079 C 
ATOM      7  C   UNL     1     -37.323  23.172   1.343  0.00  0.00    +0.024 C 
ATOM      8  C   UNL     1     -34.908  25.012   2.135  0.00  0.00    +0.008 C 
ATOM      9  C   UNL     1     -35.459  21.342   0.716  0.00  0.00    +0.039 C 
ATOM     10  C   UNL     1     -34.221  25.283   3.475  0.00  0.00    +0.058 C 
ATOM     11  C   UNL     1     -34.703  24.106   4.298  0.00  0.00    +0.154 C 
ATOM     12  C   UNL     1     -38.435  22.843   0.299  0.00  0.00    +0.034 C 
ATOM     13  C   UNL     1     -36.636  22.698   3.705  0.00  0.00    -0.024 C 
ATOM     14  C   UNL     1     -37.600  22.787   2.776  0.00  0.00    -0.031 C 
ATOM     15  C   UNL     1     -36.325  20.610  -0.285  0.00  0.00    +0.083 C 
ATOM     16  C   UNL     1     -39.259  21.552   0.476  0.00  0.00    +0.114 C 
ATOM     17  C   UNL     1     -34.602  26.622   4.075  0.00  0.00    +0.008 C 
ATOM     18  C   UNL     1     -39.684  20.888  -0.852  0.00  0.00    +0.073 C 
ATOM     19  C   UNL     1     -38.661  20.068  -1.668  0.00  0.00    +0.179 C 
ATOM     20  C   UNL     1     -36.959  19.456  -0.014  0.00  0.00    +0.117 C 
ATOM     21  C   UNL     1     -37.992  18.907  -0.940  0.00  0.00    +0.107 C 
ATOM     22  C   UNL     1     -36.490  21.182  -1.648  0.00  0.00    +0.340 C 
ENDROOT
BRANCH  16  23
ATOM     23  O   UNL     1     -40.498  21.901   1.121  0.00  0.00    -0.384 OA
ATOM     24  H   UNL     1     -40.951  22.585   0.602  0.00  0.00    +0.210 HD
ENDBRANCH  16  23
BRANCH  20  25
ATOM     25  O   UNL     1     -36.805  18.803   1.192  0.00  0.00    -0.510 OA
ATOM     26  H   UNL     1     -36.256  19.169   1.857  0.00  0.00    +0.292 HD
ENDBRANCH  20  25
BRANCH   9  27
ATOM     27  C   UNL     1     -33.983  21.121   0.333  0.00  0.00    +0.069 C 
BRANCH  27  29
ATOM     28  O   UNL     1     -33.942  19.337   1.964  0.00  0.00    -0.296 OA
ATOM     29  C   UNL     1     -33.398  19.914   1.024  0.00  0.00    +0.151 C 
ATOM     30  C   UNL     1     -32.072  19.441   0.485  0.00  0.00    +0.072 C 
ENDBRANCH  27  29
ENDBRANCH   9  27
TORSDOF 4
ENDMDL
MODEL 9
REMARK VINA RESULT:      -5.9      2.763      4.629
REMARK  Name = 54693606
REMARK  4 active torsions:
REMARK  status: ('A' for Active; 'I' for Inactive)
REMARK    1  A    between atoms: C_9  and  C_27
REMARK    2  A    between atoms: C_16  and  O_23
REMARK    3  A    between atoms: C_20  and  O_25
REMARK    4  A    between atoms: C_27  and  C_29
REMARK                            x       y       z     vdW  Elec       q    Type
REMARK                         _______ _______ _______ _____ _____    ______ ____
ROOT
ATOM      1  O   UNL     1     -31.734  25.108   0.345  0.00  0.00    -0.296 OA
ATOM      2  O   UNL     1     -40.331  23.230   1.867  0.00  0.00    -0.449 OA
ATOM      3  O   UNL     1     -38.762  21.638   2.159  0.00  0.00    -0.245 OA
ATOM      4  C   UNL     1     -34.680  23.192   0.978  0.00  0.00    +0.012 C 
ATOM      5  C   UNL     1     -36.235  23.335   1.034  0.00  0.00    +0.010 C 
ATOM      6  C   UNL     1     -33.957  24.547   1.136  0.00  0.00    +0.079 C 
ATOM      7  C   UNL     1     -36.685  24.364  -0.079  0.00  0.00    +0.024 C 
ATOM      8  C   UNL     1     -34.108  22.590  -0.318  0.00  0.00    +0.008 C 
ATOM      9  C   UNL     1     -36.672  23.673   2.517  0.00  0.00    +0.039 C 
ATOM     10  C   UNL     1     -32.618  22.932  -0.256  0.00  0.00    +0.058 C 
ATOM     11  C   UNL     1     -32.655  24.300   0.393  0.00  0.00    +0.154 C 
ATOM     12  C   UNL     1     -38.216  24.498  -0.350  0.00  0.00    +0.034 C 
ATOM     13  C   UNL     1     -34.666  25.717   0.529  0.00  0.00    -0.024 C 
ATOM     14  C   UNL     1     -35.891  25.646  -0.015  0.00  0.00    -0.031 C 
ATOM     15  C   UNL     1     -38.158  23.871   2.714  0.00  0.00    +0.083 C 
ATOM     16  C   UNL     1     -38.972  25.700   0.250  0.00  0.00    +0.114 C 
ATOM     17  C   UNL     1     -31.955  22.941  -1.620  0.00  0.00    +0.008 C 
ATOM     18  C   UNL     1     -40.429  25.389   0.658  0.00  0.00    +0.073 C 
ATOM     19  C   UNL     1     -40.717  24.616   1.964  0.00  0.00    +0.179 C 
ATOM     20  C   UNL     1     -38.690  24.959   3.298  0.00  0.00    +0.117 C 
ATOM     21  C   UNL     1     -40.158  25.223   3.246  0.00  0.00    +0.107 C 
ATOM     22  C   UNL     1     -39.094  22.815   2.244  0.00  0.00    +0.340 C 
ENDROOT
BRANCH  16  23
ATOM     23  O   UNL     1     -39.088  26.706  -0.773  0.00  0.00    -0.384 OA
ATOM     24  H   UNL     1     -38.507  26.480  -1.516  0.00  0.00    +0.210 HD
ENDBRANCH  16  23
BRANCH  20  25
ATOM     25  O   UNL     1     -37.905  25.956   3.840  0.00  0.00    -0.510 OA
ATOM     26  H   UNL     1     -37.623  25.898   4.732  0.00  0.00    +0.292 HD
ENDBRANCH  20  25
BRANCH   9  27
ATOM     27  C   UNL     1     -36.181  22.637   3.547  0.00  0.00    +0.069 C 
BRANCH  27  29
ATOM     28  O   UNL     1     -35.525  24.505   4.934  0.00  0.00    -0.296 OA
ATOM     29  C   UNL     1     -35.694  23.293   4.815  0.00  0.00    +0.151 C 
ATOM     30  C   UNL     1     -35.418  22.354   5.962  0.00  0.00    +0.072 C 
ENDBRANCH  27  29
ENDBRANCH   9  27
TORSDOF 4
ENDMDL
