MODEL 1
REMARK VINA RESULT:      -5.8      0.000      0.000
REMARK  Name = 195144
REMARK  3 active torsions:
REMARK  status: ('A' for Active; 'I' for Inactive)
REMARK    1  A    between atoms: N_3  and  C_9
REMARK    2  A    between atoms: C_6  and  N_18
REMARK    3  A    between atoms: C_12  and  N_17
REMARK                            x       y       z     vdW  Elec       q    Type
REMARK                         _______ _______ _______ _____ _____    ______ ____
ROOT
ATOM      1 CL   UNL     1     -34.134  19.566   1.489  0.00  0.00    -0.060 Cl
ATOM      2  S   UNL     1     -38.239  24.006   2.400  0.00  0.00    -0.031 S 
ATOM      3  N   UNL     1     -35.811  22.772   2.822  0.00  0.00    -0.182 N 
ATOM      4  N   UNL     1     -34.901  21.820   2.437  0.00  0.00    -0.162 NA
ATOM      5  C   UNL     1     -37.181  22.671   2.494  0.00  0.00    +0.122 C 
ATOM      6  C   UNL     1     -37.661  21.281   2.132  0.00  0.00    +0.066 C 
ATOM      7  C   UNL     1     -36.755  20.338   1.865  0.00  0.00    +0.048 C 
ATOM      8  C   UNL     1     -35.343  20.703   1.971  0.00  0.00    +0.157 C 
ENDROOT
BRANCH   3   9
ATOM      9  C   UNL     1     -35.182  23.853   3.530  0.00  0.00    +0.075 C 
ATOM     10  C   UNL     1     -35.349  23.968   4.907  0.00  0.00    +0.018 C 
ATOM     11  C   UNL     1     -34.409  24.778   2.834  0.00  0.00    +0.018 C 
ATOM     12  C   UNL     1     -33.962  25.947   4.901  0.00  0.00    +0.143 C 
ATOM     13  C   UNL     1     -34.737  25.017   5.594  0.00  0.00    +0.025 C 
ATOM     14  C   UNL     1     -33.799  25.828   3.521  0.00  0.00    +0.025 C 
BRANCH  12  17
ATOM     15  O   UNL     1     -32.967  28.026   4.959  0.00  0.00    -0.126 OA
ATOM     16  O   UNL     1     -33.184  26.918   6.841  0.00  0.00    -0.126 OA
ATOM     17  N   UNL     1     -33.341  27.015   5.600  0.00  0.00    +0.058 N 
ENDBRANCH  12  17
ENDBRANCH   3   9
BRANCH   6  18
ATOM     18  N   UNL     1     -39.009  21.054   2.077  0.00  0.00    -0.356 N 
ATOM     19  H   UNL     1     -39.399  20.589   1.302  0.00  0.00    +0.142 HD
ATOM     20  H   UNL     1     -39.589  21.355   2.813  0.00  0.00    +0.142 HD
ENDBRANCH   6  18
TORSDOF 3
ENDMDL
MODEL 2
REMARK VINA RESULT:      -5.7      2.712      3.281
REMARK  Name = 195144
REMARK  3 active torsions:
REMARK  status: ('A' for Active; 'I' for Inactive)
REMARK    1  A    between atoms: N_3  and  C_9
REMARK    2  A    between atoms: C_6  and  N_18
REMARK    3  A    between atoms: C_12  and  N_17
REMARK                            x       y       z     vdW  Elec       q    Type
REMARK                         _______ _______ _______ _____ _____    ______ ____
ROOT
ATOM      1 CL   UNL     1     -40.494  25.305   2.993  0.00  0.00    -0.060 Cl
ATOM      2  S   UNL     1     -35.600  21.781   4.004  0.00  0.00    -0.031 S 
ATOM      3  N   UNL     1     -36.859  24.209   3.671  0.00  0.00    -0.182 N 
ATOM      4  N   UNL     1     -38.033  24.917   3.593  0.00  0.00    -0.162 NA
ATOM      5  C   UNL     1     -36.803  22.826   3.393  0.00  0.00    +0.122 C 
ATOM      6  C   UNL     1     -37.952  22.281   2.570  0.00  0.00    +0.066 C 
ATOM      7  C   UNL     1     -39.044  23.031   2.416  0.00  0.00    +0.048 C 
ATOM      8  C   UNL     1     -39.049  24.357   3.032  0.00  0.00    +0.157 C 
ENDROOT
BRANCH   3   9
ATOM      9  C   UNL     1     -35.767  25.038   4.102  0.00  0.00    +0.075 C 
ATOM     10  C   UNL     1     -34.932  25.628   3.157  0.00  0.00    +0.018 C 
ATOM     11  C   UNL     1     -35.551  25.245   5.461  0.00  0.00    +0.018 C 
ATOM     12  C   UNL     1     -33.652  26.643   4.936  0.00  0.00    +0.143 C 
ATOM     13  C   UNL     1     -33.873  26.433   3.575  0.00  0.00    +0.025 C 
ATOM     14  C   UNL     1     -34.490  26.048   5.879  0.00  0.00    +0.025 C 
BRANCH  12  17
ATOM     15  O   UNL     1     -31.630  27.689   4.565  0.00  0.00    -0.126 OA
ATOM     16  O   UNL     1     -32.591  27.936   6.523  0.00  0.00    -0.126 OA
ATOM     17  N   UNL     1     -32.572  27.461   5.362  0.00  0.00    +0.058 N 
ENDBRANCH  12  17
ENDBRANCH   3   9
BRANCH   6  18
ATOM     18  N   UNL     1     -37.826  21.030   2.031  0.00  0.00    -0.356 N 
ATOM     19  H   UNL     1     -37.714  20.249   2.619  0.00  0.00    +0.142 HD
ATOM     20  H   UNL     1     -37.850  20.911   1.054  0.00  0.00    +0.142 HD
ENDBRANCH   6  18
TORSDOF 3
ENDMDL
MODEL 3
REMARK VINA RESULT:      -5.6      1.307      1.994
REMARK  Name = 195144
REMARK  3 active torsions:
REMARK  status: ('A' for Active; 'I' for Inactive)
REMARK    1  A    between atoms: N_3  and  C_9
REMARK    2  A    between atoms: C_6  and  N_18
REMARK    3  A    between atoms: C_12  and  N_17
REMARK                            x       y       z     vdW  Elec       q    Type
REMARK                         _______ _______ _______ _____ _____    ______ ____
ROOT
ATOM      1 CL   UNL     1     -36.355  20.064   1.929  0.00  0.00    -0.060 Cl
ATOM      2  S   UNL     1     -38.619  25.735   2.258  0.00  0.00    -0.031 S 
ATOM      3  N   UNL     1     -36.844  23.748   2.960  0.00  0.00    -0.182 N 
ATOM      4  N   UNL     1     -36.317  22.507   2.703  0.00  0.00    -0.162 NA
ATOM      5  C   UNL     1     -38.129  24.120   2.509  0.00  0.00    +0.122 C 
ATOM      6  C   UNL     1     -39.053  22.972   2.161  0.00  0.00    +0.066 C 
ATOM      7  C   UNL     1     -38.535  21.750   2.021  0.00  0.00    +0.048 C 
ATOM      8  C   UNL     1     -37.100  21.592   2.245  0.00  0.00    +0.157 C 
ENDROOT
BRANCH   3   9
ATOM      9  C   UNL     1     -35.918  24.580   3.678  0.00  0.00    +0.075 C 
ATOM     10  C   UNL     1     -34.685  24.890   3.111  0.00  0.00    +0.018 C 
ATOM     11  C   UNL     1     -36.259  25.070   4.935  0.00  0.00    +0.018 C 
ATOM     12  C   UNL     1     -34.123  26.191   5.068  0.00  0.00    +0.143 C 
ATOM     13  C   UNL     1     -33.786  25.698   3.808  0.00  0.00    +0.025 C 
ATOM     14  C   UNL     1     -35.359  25.877   5.632  0.00  0.00    +0.025 C 
BRANCH  12  17
ATOM     15  O   UNL     1     -32.778  26.625   6.890  0.00  0.00    -0.126 OA
ATOM     16  O   UNL     1     -32.851  28.103   5.269  0.00  0.00    -0.126 OA
ATOM     17  N   UNL     1     -33.207  27.013   5.777  0.00  0.00    +0.058 N 
ENDBRANCH  12  17
ENDBRANCH   3   9
BRANCH   6  18
ATOM     18  N   UNL     1     -40.384  23.240   1.988  0.00  0.00    -0.356 N 
ATOM     19  H   UNL     1     -40.674  24.146   1.734  0.00  0.00    +0.142 HD
ATOM     20  H   UNL     1     -41.050  22.528   2.117  0.00  0.00    +0.142 HD
ENDBRANCH   6  18
TORSDOF 3
ENDMDL
MODEL 4
REMARK VINA RESULT:      -5.5      4.604      6.641
REMARK  Name = 195144
REMARK  3 active torsions:
REMARK  status: ('A' for Active; 'I' for Inactive)
REMARK    1  A    between atoms: N_3  and  C_9
REMARK    2  A    between atoms: C_6  and  N_18
REMARK    3  A    between atoms: C_12  and  N_17
REMARK                            x       y       z     vdW  Elec       q    Type
REMARK                         _______ _______ _______ _____ _____    ______ ____
ROOT
ATOM      1 CL   UNL     1     -35.010  22.062   6.389  0.00  0.00    -0.060 Cl
ATOM      2  S   UNL     1     -38.322  25.830   2.893  0.00  0.00    -0.031 S 
ATOM      3  N   UNL     1     -37.031  23.452   3.413  0.00  0.00    -0.182 N 
ATOM      4  N   UNL     1     -36.422  22.628   4.326  0.00  0.00    -0.162 NA
ATOM      5  C   UNL     1     -37.132  24.845   3.617  0.00  0.00    +0.122 C 
ATOM      6  C   UNL     1     -36.152  25.429   4.614  0.00  0.00    +0.066 C 
ATOM      7  C   UNL     1     -35.487  24.600   5.422  0.00  0.00    +0.048 C 
ATOM      8  C   UNL     1     -35.728  23.166   5.269  0.00  0.00    +0.157 C 
ENDROOT
BRANCH   3   9
ATOM      9  C   UNL     1     -37.565  22.712   2.303  0.00  0.00    +0.075 C 
ATOM     10  C   UNL     1     -38.857  22.198   2.372  0.00  0.00    +0.018 C 
ATOM     11  C   UNL     1     -36.786  22.513   1.167  0.00  0.00    +0.018 C 
ATOM     12  C   UNL     1     -38.599  21.278   0.153  0.00  0.00    +0.143 C 
ATOM     13  C   UNL     1     -39.375  21.480   1.294  0.00  0.00    +0.025 C 
ATOM     14  C   UNL     1     -37.304  21.793   0.090  0.00  0.00    +0.025 C 
BRANCH  12  17
ATOM     15  O   UNL     1     -39.730  19.468  -0.721  0.00  0.00    -0.126 OA
ATOM     16  O   UNL     1     -38.976  20.997  -2.104  0.00  0.00    -0.126 OA
ATOM     17  N   UNL     1     -39.126  20.545  -0.943  0.00  0.00    +0.058 N 
ENDBRANCH  12  17
ENDBRANCH   3   9
BRANCH   6  18
ATOM     18  N   UNL     1     -36.001  26.788   4.656  0.00  0.00    -0.356 N 
ATOM     19  H   UNL     1     -36.606  27.366   4.137  0.00  0.00    +0.142 HD
ATOM     20  H   UNL     1     -35.289  27.187   5.205  0.00  0.00    +0.142 HD
ENDBRANCH   6  18
TORSDOF 3
ENDMDL
MODEL 5
REMARK VINA RESULT:      -5.3      4.315      6.318
REMARK  Name = 195144
REMARK  3 active torsions:
REMARK  status: ('A' for Active; 'I' for Inactive)
REMARK    1  A    between atoms: N_3  and  C_9
REMARK    2  A    between atoms: C_6  and  N_18
REMARK    3  A    between atoms: C_12  and  N_17
REMARK                            x       y       z     vdW  Elec       q    Type
REMARK                         _______ _______ _______ _____ _____    ______ ____
ROOT
ATOM      1 CL   UNL     1     -37.485  28.497   0.250  0.00  0.00    -0.060 Cl
ATOM      2  S   UNL     1     -32.779  27.830   4.096  0.00  0.00    -0.031 S 
ATOM      3  N   UNL     1     -35.203  27.085   3.019  0.00  0.00    -0.182 N 
ATOM      4  N   UNL     1     -36.132  27.230   2.019  0.00  0.00    -0.162 NA
ATOM      5  C   UNL     1     -34.279  28.105   3.332  0.00  0.00    +0.122 C 
ATOM      6  C   UNL     1     -34.660  29.494   2.860  0.00  0.00    +0.066 C 
ATOM      7  C   UNL     1     -35.642  29.621   1.965  0.00  0.00    +0.048 C 
ATOM      8  C   UNL     1     -36.314  28.403   1.518  0.00  0.00    +0.157 C 
ENDROOT
BRANCH   3   9
ATOM      9  C   UNL     1     -35.280  25.787   3.631  0.00  0.00    +0.075 C 
ATOM     10  C   UNL     1     -35.597  25.677   4.982  0.00  0.00    +0.018 C 
ATOM     11  C   UNL     1     -35.037  24.648   2.869  0.00  0.00    +0.018 C 
ATOM     12  C   UNL     1     -35.429  23.273   4.817  0.00  0.00    +0.143 C 
ATOM     13  C   UNL     1     -35.672  24.418   5.576  0.00  0.00    +0.025 C 
ATOM     14  C   UNL     1     -35.111  23.388   3.464  0.00  0.00    +0.025 C 
BRANCH  12  17
ATOM     15  O   UNL     1     -35.998  21.889   6.572  0.00  0.00    -0.126 OA
ATOM     16  O   UNL     1     -35.078  20.995   4.791  0.00  0.00    -0.126 OA
ATOM     17  N   UNL     1     -35.505  21.991   5.423  0.00  0.00    +0.058 N 
ENDBRANCH  12  17
ENDBRANCH   3   9
BRANCH   6  18
ATOM     18  N   UNL     1     -33.966  30.561   3.361  0.00  0.00    -0.356 N 
ATOM     19  H   UNL     1     -33.638  30.543   4.289  0.00  0.00    +0.142 HD
ATOM     20  H   UNL     1     -33.796  31.347   2.793  0.00  0.00    +0.142 HD
ENDBRANCH   6  18
TORSDOF 3
ENDMDL
MODEL 6
REMARK VINA RESULT:      -5.2      4.752      5.971
REMARK  Name = 195144
REMARK  3 active torsions:
REMARK  status: ('A' for Active; 'I' for Inactive)
REMARK    1  A    between atoms: N_3  and  C_9
REMARK    2  A    between atoms: C_6  and  N_18
REMARK    3  A    between atoms: C_12  and  N_17
REMARK                            x       y       z     vdW  Elec       q    Type
REMARK                         _______ _______ _______ _____ _____    ______ ____
ROOT
ATOM      1 CL   UNL     1     -34.141  26.241   6.006  0.00  0.00    -0.060 Cl
ATOM      2  S   UNL     1     -36.948  22.024   2.581  0.00  0.00    -0.031 S 
ATOM      3  N   UNL     1     -36.733  24.521   3.728  0.00  0.00    -0.182 N 
ATOM      4  N   UNL     1     -35.956  25.444   4.383  0.00  0.00    -0.162 NA
ATOM      5  C   UNL     1     -36.446  23.139   3.772  0.00  0.00    +0.122 C 
ATOM      6  C   UNL     1     -35.566  22.694   4.922  0.00  0.00    +0.066 C 
ATOM      7  C   UNL     1     -34.901  23.620   5.617  0.00  0.00    +0.048 C 
ATOM      8  C   UNL     1     -35.093  25.019   5.240  0.00  0.00    +0.157 C 
ENDROOT
BRANCH   3   9
ATOM      9  C   UNL     1     -37.795  25.148   2.991  0.00  0.00    +0.075 C 
ATOM     10  C   UNL     1     -37.494  25.959   1.900  0.00  0.00    +0.018 C 
ATOM     11  C   UNL     1     -39.117  24.942   3.373  0.00  0.00    +0.018 C 
ATOM     12  C   UNL     1     -39.852  26.365   1.563  0.00  0.00    +0.143 C 
ATOM     13  C   UNL     1     -38.525  26.568   1.184  0.00  0.00    +0.025 C 
ATOM     14  C   UNL     1     -40.148  25.553   2.658  0.00  0.00    +0.025 C 
BRANCH  12  17
ATOM     15  O   UNL     1     -41.227  28.163   1.122  0.00  0.00    -0.126 OA
ATOM     16  O   UNL     1     -41.472  26.341  -0.077  0.00  0.00    -0.126 OA
ATOM     17  N   UNL     1     -40.901  26.986   0.835  0.00  0.00    +0.058 N 
ENDBRANCH  12  17
ENDBRANCH   3   9
BRANCH   6  18
ATOM     18  N   UNL     1     -35.477  21.356   5.189  0.00  0.00    -0.356 N 
ATOM     19  H   UNL     1     -36.287  20.843   5.410  0.00  0.00    +0.142 HD
ATOM     20  H   UNL     1     -34.602  20.905   5.159  0.00  0.00    +0.142 HD
ENDBRANCH   6  18
TORSDOF 3
ENDMDL
MODEL 7
REMARK VINA RESULT:      -5.2      1.934      2.536
REMARK  Name = 195144
REMARK  3 active torsions:
REMARK  status: ('A' for Active; 'I' for Inactive)
REMARK    1  A    between atoms: N_3  and  C_9
REMARK    2  A    between atoms: C_6  and  N_18
REMARK    3  A    between atoms: C_12  and  N_17
REMARK                            x       y       z     vdW  Elec       q    Type
REMARK                         _______ _______ _______ _____ _____    ______ ____
ROOT
ATOM      1 CL   UNL     1     -32.335  19.446   0.287  0.00  0.00    -0.060 Cl
ATOM      2  S   UNL     1     -38.034  21.405   1.324  0.00  0.00    -0.031 S 
ATOM      3  N   UNL     1     -35.329  21.312   1.844  0.00  0.00    -0.182 N 
ATOM      4  N   UNL     1     -34.073  20.937   1.437  0.00  0.00    -0.162 NA
ATOM      5  C   UNL     1     -36.491  20.676   1.356  0.00  0.00    +0.122 C 
ATOM      6  C   UNL     1     -36.277  19.300   0.759  0.00  0.00    +0.066 C 
ATOM      7  C   UNL     1     -35.033  18.912   0.470  0.00  0.00    +0.048 C 
ATOM      8  C   UNL     1     -33.945  19.836   0.781  0.00  0.00    +0.157 C 
ENDROOT
BRANCH   3   9
ATOM      9  C   UNL     1     -35.283  22.423   2.754  0.00  0.00    +0.075 C 
ATOM     10  C   UNL     1     -34.940  23.688   2.285  0.00  0.00    +0.018 C 
ATOM     11  C   UNL     1     -35.582  22.226   4.100  0.00  0.00    +0.018 C 
ATOM     12  C   UNL     1     -35.194  24.574   4.518  0.00  0.00    +0.143 C 
ATOM     13  C   UNL     1     -34.896  24.766   3.169  0.00  0.00    +0.025 C 
ATOM     14  C   UNL     1     -35.536  23.305   4.983  0.00  0.00    +0.025 C 
BRANCH  12  17
ATOM     15  O   UNL     1     -36.172  26.381   5.565  0.00  0.00    -0.126 OA
ATOM     16  O   UNL     1     -34.084  25.901   6.043  0.00  0.00    -0.126 OA
ATOM     17  N   UNL     1     -35.148  25.672   5.418  0.00  0.00    +0.058 N 
ENDBRANCH  12  17
ENDBRANCH   3   9
BRANCH   6  18
ATOM     18  N   UNL     1     -37.375  18.517   0.526  0.00  0.00    -0.356 N 
ATOM     19  H   UNL     1     -38.140  18.546   1.144  0.00  0.00    +0.142 HD
ATOM     20  H   UNL     1     -37.399  17.925  -0.260  0.00  0.00    +0.142 HD
ENDBRANCH   6  18
TORSDOF 3
ENDMDL
MODEL 8
REMARK VINA RESULT:      -5.1      4.401      7.040
REMARK  Name = 195144
REMARK  3 active torsions:
REMARK  status: ('A' for Active; 'I' for Inactive)
REMARK    1  A    between atoms: N_3  and  C_9
REMARK    2  A    between atoms: C_6  and  N_18
REMARK    3  A    between atoms: C_12  and  N_17
REMARK                            x       y       z     vdW  Elec       q    Type
REMARK                         _______ _______ _______ _____ _____    ______ ____
ROOT
ATOM      1 CL   UNL     1     -29.765  28.742   6.283  0.00  0.00    -0.060 Cl
ATOM      2  S   UNL     1     -34.669  28.996   2.640  0.00  0.00    -0.031 S 
ATOM      3  N   UNL     1     -32.913  27.695   4.318  0.00  0.00    -0.182 N 
ATOM      4  N   UNL     1     -31.893  27.776   5.233  0.00  0.00    -0.162 NA
ATOM      5  C   UNL     1     -33.156  28.722   3.380  0.00  0.00    +0.122 C 
ATOM      6  C   UNL     1     -31.992  29.656   3.122  0.00  0.00    +0.066 C 
ATOM      7  C   UNL     1     -30.958  29.642   3.966  0.00  0.00    +0.048 C 
ATOM      8  C   UNL     1     -31.003  28.695   5.079  0.00  0.00    +0.157 C 
ENDROOT
BRANCH   3   9
ATOM      9  C   UNL     1     -33.682  26.493   4.485  0.00  0.00    +0.075 C 
ATOM     10  C   UNL     1     -34.339  26.254   5.688  0.00  0.00    +0.018 C 
ATOM     11  C   UNL     1     -33.765  25.574   3.442  0.00  0.00    +0.018 C 
ATOM     12  C   UNL     1     -35.172  24.164   4.809  0.00  0.00    +0.143 C 
ATOM     13  C   UNL     1     -35.086  25.087   5.850  0.00  0.00    +0.025 C 
ATOM     14  C   UNL     1     -34.511  24.407   3.605  0.00  0.00    +0.025 C 
BRANCH  12  17
ATOM     15  O   UNL     1     -35.956  22.422   6.100  0.00  0.00    -0.126 OA
ATOM     16  O   UNL     1     -36.559  22.513   3.991  0.00  0.00    -0.126 OA
ATOM     17  N   UNL     1     -35.931  22.976   4.975  0.00  0.00    +0.058 N 
ENDBRANCH  12  17
ENDBRANCH   3   9
BRANCH   6  18
ATOM     18  N   UNL     1     -32.057  30.489   2.039  0.00  0.00    -0.356 N 
ATOM     19  H   UNL     1     -32.336  30.137   1.163  0.00  0.00    +0.142 HD
ATOM     20  H   UNL     1     -31.826  31.441   2.136  0.00  0.00    +0.142 HD
ENDBRANCH   6  18
TORSDOF 3
ENDMDL
MODEL 9
REMARK VINA RESULT:      -4.9      4.395      5.911
REMARK  Name = 195144
REMARK  3 active torsions:
REMARK  status: ('A' for Active; 'I' for Inactive)
REMARK    1  A    between atoms: N_3  and  C_9
REMARK    2  A    between atoms: C_6  and  N_18
REMARK    3  A    between atoms: C_12  and  N_17
REMARK                            x       y       z     vdW  Elec       q    Type
REMARK                         _______ _______ _______ _____ _____    ______ ____
ROOT
ATOM      1 CL   UNL     1     -34.392  25.253   5.901  0.00  0.00    -0.060 Cl
ATOM      2  S   UNL     1     -38.529  22.622   2.246  0.00  0.00    -0.031 S 
ATOM      3  N   UNL     1     -35.952  23.163   3.061  0.00  0.00    -0.182 N 
ATOM      4  N   UNL     1     -35.111  23.666   4.021  0.00  0.00    -0.162 NA
ATOM      5  C   UNL     1     -37.302  23.565   2.966  0.00  0.00    +0.122 C 
ATOM      6  C   UNL     1     -37.637  24.881   3.638  0.00  0.00    +0.066 C 
ATOM      7  C   UNL     1     -36.756  25.410   4.489  0.00  0.00    +0.048 C 
ATOM      8  C   UNL     1     -35.499  24.693   4.697  0.00  0.00    +0.157 C 
ENDROOT
BRANCH   3   9
ATOM      9  C   UNL     1     -35.296  22.181   2.242  0.00  0.00    +0.075 C 
ATOM     10  C   UNL     1     -35.272  20.849   2.646  0.00  0.00    +0.018 C 
ATOM     11  C   UNL     1     -34.688  22.567   1.052  0.00  0.00    +0.018 C 
ATOM     12  C   UNL     1     -34.024  20.278   0.658  0.00  0.00    +0.143 C 
ATOM     13  C   UNL     1     -34.635  19.895   1.852  0.00  0.00    +0.025 C 
ATOM     14  C   UNL     1     -34.050  21.614   0.258  0.00  0.00    +0.025 C 
BRANCH  12  17
ATOM     15  O   UNL     1     -33.884  18.165  -0.257  0.00  0.00    -0.126 OA
ATOM     16  O   UNL     1     -32.310  19.619  -0.736  0.00  0.00    -0.126 OA
ATOM     17  N   UNL     1     -33.375  19.307  -0.150  0.00  0.00    +0.058 N 
ENDBRANCH  12  17
ENDBRANCH   3   9
BRANCH   6  18
ATOM     18  N   UNL     1     -38.841  25.466   3.354  0.00  0.00    -0.356 N 
ATOM     19  H   UNL     1     -38.869  26.323   2.871  0.00  0.00    +0.142 HD
ATOM     20  H   UNL     1     -39.678  25.029   3.632  0.00  0.00    +0.142 HD
ENDBRANCH   6  18
TORSDOF 3
ENDMDL
