MODEL 1
REMARK VINA RESULT:      -6.8      0.000      0.000
REMARK  Name = 53304448
REMARK  3 active torsions:
REMARK  status: ('A' for Active; 'I' for Inactive)
REMARK    1  A    between atoms: C_6  and  O_23
REMARK    2  A    between atoms: C_20  and  O_25
REMARK    3  A    between atoms: C_21  and  O_27
REMARK                            x       y       z     vdW  Elec       q    Type
REMARK                         _______ _______ _______ _____ _____    ______ ____
ROOT
ATOM      1  O   UNL     1     -36.611  23.671   4.805  0.00  0.00    -0.356 OA
ATOM      2  O   UNL     1     -36.317  24.805   1.651  0.00  0.00    -0.449 OA
ATOM      3  O   UNL     1     -35.965  26.492   5.231  0.00  0.00    -0.296 OA
ATOM      4  O   UNL     1     -36.524  27.012   2.330  0.00  0.00    -0.245 OA
ATOM      5  C   UNL     1     -36.311  22.832   3.688  0.00  0.00    +0.145 C 
ATOM      6  C   UNL     1     -36.072  21.404   4.177  0.00  0.00    +0.138 C 
ATOM      7  C   UNL     1     -35.559  23.792   5.769  0.00  0.00    +0.123 C 
ATOM      8  C   UNL     1     -34.902  21.404   5.162  0.00  0.00    +0.034 C 
ATOM      9  C   UNL     1     -35.130  22.412   6.281  0.00  0.00    +0.033 C 
ATOM     10  C   UNL     1     -37.462  22.956   2.673  0.00  0.00    +0.076 C 
ATOM     11  C   UNL     1     -34.401  24.651   5.227  0.00  0.00    +0.094 C 
ATOM     12  C   UNL     1     -37.608  24.402   2.154  0.00  0.00    +0.172 C 
ATOM     13  C   UNL     1     -34.878  26.051   4.851  0.00  0.00    +0.157 C 
ATOM     14  C   UNL     1     -38.624  24.492   1.025  0.00  0.00    +0.047 C 
ATOM     15  C   UNL     1     -33.939  26.941   4.067  0.00  0.00    +0.091 C 
ATOM     16  C   UNL     1     -33.528  26.433   2.704  0.00  0.00    -0.003 C 
ATOM     17  C   UNL     1     -34.429  26.060   1.689  0.00  0.00    +0.106 C 
ATOM     18  C   UNL     1     -35.887  26.064   1.908  0.00  0.00    +0.344 C 
ATOM     19  C   UNL     1     -32.152  26.377   2.414  0.00  0.00    +0.033 C 
ATOM     20  C   UNL     1     -33.964  25.642   0.432  0.00  0.00    +0.143 C 
ATOM     21  C   UNL     1     -31.691  25.956   1.165  0.00  0.00    +0.136 C 
ATOM     22  C   UNL     1     -32.596  25.590   0.175  0.00  0.00    +0.073 C 
ENDROOT
BRANCH   6  23
ATOM     23  O   UNL     1     -35.764  20.556   3.078  0.00  0.00    -0.382 OA
ATOM     24  H   UNL     1     -34.801  20.493   2.978  0.00  0.00    +0.210 HD
ENDBRANCH   6  23
BRANCH  20  25
ATOM     25  O   UNL     1     -34.818  25.255  -0.559  0.00  0.00    -0.505 OA
ATOM     26  H   UNL     1     -34.926  24.346  -0.754  0.00  0.00    +0.292 HD
ENDBRANCH  20  25
BRANCH  21  27
ATOM     27  O   UNL     1     -30.353  25.906   0.917  0.00  0.00    -0.505 OA
ATOM     28  H   UNL     1     -29.818  26.656   1.086  0.00  0.00    +0.292 HD
ENDBRANCH  21  27
TORSDOF 3
ENDMDL
MODEL 2
REMARK VINA RESULT:      -6.2      3.118      5.503
REMARK  Name = 53304448
REMARK  3 active torsions:
REMARK  status: ('A' for Active; 'I' for Inactive)
REMARK    1  A    between atoms: C_6  and  O_23
REMARK    2  A    between atoms: C_20  and  O_25
REMARK    3  A    between atoms: C_21  and  O_27
REMARK                            x       y       z     vdW  Elec       q    Type
REMARK                         _______ _______ _______ _____ _____    ______ ____
ROOT
ATOM      1  O   UNL     1     -33.607  25.138   3.886  0.00  0.00    -0.356 OA
ATOM      2  O   UNL     1     -32.896  28.143   5.225  0.00  0.00    -0.449 OA
ATOM      3  O   UNL     1     -31.102  25.826   2.541  0.00  0.00    -0.296 OA
ATOM      4  O   UNL     1     -30.685  28.025   4.539  0.00  0.00    -0.245 OA
ATOM      5  C   UNL     1     -34.591  25.999   4.464  0.00  0.00    +0.145 C 
ATOM      6  C   UNL     1     -35.974  25.374   4.293  0.00  0.00    +0.138 C 
ATOM      7  C   UNL     1     -33.738  24.935   2.475  0.00  0.00    +0.123 C 
ATOM      8  C   UNL     1     -36.254  25.185   2.801  0.00  0.00    +0.034 C 
ATOM      9  C   UNL     1     -35.133  24.402   2.130  0.00  0.00    +0.033 C 
ATOM     10  C   UNL     1     -34.201  26.253   5.932  0.00  0.00    +0.076 C 
ATOM     11  C   UNL     1     -33.332  26.196   1.688  0.00  0.00    +0.094 C 
ATOM     12  C   UNL     1     -32.832  26.955   6.044  0.00  0.00    +0.172 C 
ATOM     13  C   UNL     1     -31.891  26.597   1.990  0.00  0.00    +0.157 C 
ATOM     14  C   UNL     1     -32.527  27.364   7.477  0.00  0.00    +0.047 C 
ATOM     15  C   UNL     1     -31.408  27.949   1.509  0.00  0.00    +0.091 C 
ATOM     16  C   UNL     1     -32.134  29.149   2.072  0.00  0.00    -0.003 C 
ATOM     17  C   UNL     1     -32.293  29.412   3.445  0.00  0.00    +0.106 C 
ATOM     18  C   UNL     1     -31.816  28.469   4.474  0.00  0.00    +0.344 C 
ATOM     19  C   UNL     1     -32.640  30.094   1.160  0.00  0.00    +0.033 C 
ATOM     20  C   UNL     1     -32.942  30.577   3.885  0.00  0.00    +0.143 C 
ATOM     21  C   UNL     1     -33.290  31.250   1.598  0.00  0.00    +0.136 C 
ATOM     22  C   UNL     1     -33.439  31.491   2.960  0.00  0.00    +0.073 C 
ENDROOT
BRANCH   6  23
ATOM     23  O   UNL     1     -36.967  26.222   4.856  0.00  0.00    -0.382 OA
ATOM     24  H   UNL     1     -36.839  27.127   4.533  0.00  0.00    +0.210 HD
ENDBRANCH   6  23
BRANCH  20  25
ATOM     25  O   UNL     1     -33.127  30.840   5.210  0.00  0.00    -0.505 OA
ATOM     26  H   UNL     1     -32.607  30.397   5.852  0.00  0.00    +0.292 HD
ENDBRANCH  20  25
BRANCH  21  27
ATOM     27  O   UNL     1     -33.775  32.142   0.691  0.00  0.00    -0.505 OA
ATOM     28  H   UNL     1     -34.511  32.679   0.911  0.00  0.00    +0.292 HD
ENDBRANCH  21  27
TORSDOF 3
ENDMDL
MODEL 3
REMARK VINA RESULT:      -6.2      2.456      5.452
REMARK  Name = 53304448
REMARK  3 active torsions:
REMARK  status: ('A' for Active; 'I' for Inactive)
REMARK    1  A    between atoms: C_6  and  O_23
REMARK    2  A    between atoms: C_20  and  O_25
REMARK    3  A    between atoms: C_21  and  O_27
REMARK                            x       y       z     vdW  Elec       q    Type
REMARK                         _______ _______ _______ _____ _____    ______ ____
ROOT
ATOM      1  O   UNL     1     -34.692  22.410   1.593  0.00  0.00    -0.356 OA
ATOM      2  O   UNL     1     -36.885  24.067   3.535  0.00  0.00    -0.449 OA
ATOM      3  O   UNL     1     -34.547  25.119   0.500  0.00  0.00    -0.296 OA
ATOM      4  O   UNL     1     -36.017  26.125   2.913  0.00  0.00    -0.245 OA
ATOM      5  C   UNL     1     -35.760  21.775   2.300  0.00  0.00    +0.145 C 
ATOM      6  C   UNL     1     -35.777  20.285   1.959  0.00  0.00    +0.138 C 
ATOM      7  C   UNL     1     -34.805  22.368   0.166  0.00  0.00    +0.123 C 
ATOM      8  C   UNL     1     -35.975  20.121   0.452  0.00  0.00    +0.034 C 
ATOM      9  C   UNL     1     -34.940  20.923  -0.326  0.00  0.00    +0.033 C 
ATOM     10  C   UNL     1     -35.581  22.067   3.801  0.00  0.00    +0.076 C 
ATOM     11  C   UNL     1     -35.915  23.311  -0.335  0.00  0.00    +0.094 C 
ATOM     12  C   UNL     1     -35.649  23.579   4.098  0.00  0.00    +0.172 C 
ATOM     13  C   UNL     1     -35.650  24.753   0.090  0.00  0.00    +0.157 C 
ATOM     14  C   UNL     1     -35.649  23.857   5.594  0.00  0.00    +0.047 C 
ATOM     15  C   UNL     1     -36.759  25.768  -0.091  0.00  0.00    +0.091 C 
ATOM     16  C   UNL     1     -38.032  25.501   0.677  0.00  0.00    -0.003 C 
ATOM     17  C   UNL     1     -38.096  25.304   2.070  0.00  0.00    +0.106 C 
ATOM     18  C   UNL     1     -36.879  25.265   2.902  0.00  0.00    +0.344 C 
ATOM     19  C   UNL     1     -39.242  25.500  -0.041  0.00  0.00    +0.033 C 
ATOM     20  C   UNL     1     -39.328  25.108   2.713  0.00  0.00    +0.143 C 
ATOM     21  C   UNL     1     -40.467  25.300   0.600  0.00  0.00    +0.136 C 
ATOM     22  C   UNL     1     -40.509  25.106   1.976  0.00  0.00    +0.073 C 
ENDROOT
BRANCH   6  23
ATOM     23  O   UNL     1     -36.840  19.638   2.648  0.00  0.00    -0.382 OA
ATOM     24  H   UNL     1     -36.611  18.707   2.793  0.00  0.00    +0.210 HD
ENDBRANCH   6  23
BRANCH  20  25
ATOM     25  O   UNL     1     -39.410  24.893   4.058  0.00  0.00    -0.505 OA
ATOM     26  H   UNL     1     -39.273  24.033   4.403  0.00  0.00    +0.292 HD
ENDBRANCH  20  25
BRANCH  21  27
ATOM     27  O   UNL     1     -41.620  25.298  -0.124  0.00  0.00    -0.505 OA
ATOM     28  H   UNL     1     -41.617  25.604  -1.010  0.00  0.00    +0.292 HD
ENDBRANCH  21  27
TORSDOF 3
ENDMDL
MODEL 4
REMARK VINA RESULT:      -6.1      2.798      4.798
REMARK  Name = 53304448
REMARK  3 active torsions:
REMARK  status: ('A' for Active; 'I' for Inactive)
REMARK    1  A    between atoms: C_6  and  O_23
REMARK    2  A    between atoms: C_20  and  O_25
REMARK    3  A    between atoms: C_21  and  O_27
REMARK                            x       y       z     vdW  Elec       q    Type
REMARK                         _______ _______ _______ _____ _____    ______ ____
ROOT
ATOM      1  O   UNL     1     -36.034  24.877   2.557  0.00  0.00    -0.356 OA
ATOM      2  O   UNL     1     -36.920  21.760   1.649  0.00  0.00    -0.449 OA
ATOM      3  O   UNL     1     -35.234  24.812  -0.256  0.00  0.00    -0.296 OA
ATOM      4  O   UNL     1     -36.826  22.294  -0.604  0.00  0.00    -0.245 OA
ATOM      5  C   UNL     1     -36.184  23.797   3.481  0.00  0.00    +0.145 C 
ATOM      6  C   UNL     1     -35.802  24.273   4.882  0.00  0.00    +0.138 C 
ATOM      7  C   UNL     1     -34.697  25.370   2.417  0.00  0.00    +0.123 C 
ATOM      8  C   UNL     1     -34.349  24.752   4.866  0.00  0.00    +0.034 C 
ATOM      9  C   UNL     1     -34.129  25.793   3.776  0.00  0.00    +0.033 C 
ATOM     10  C   UNL     1     -37.628  23.275   3.375  0.00  0.00    +0.076 C 
ATOM     11  C   UNL     1     -33.812  24.373   1.646  0.00  0.00    +0.094 C 
ATOM     12  C   UNL     1     -37.936  22.736   1.962  0.00  0.00    +0.172 C 
ATOM     13  C   UNL     1     -34.374  24.092   0.256  0.00  0.00    +0.157 C 
ATOM     14  C   UNL     1     -39.298  22.060   1.905  0.00  0.00    +0.047 C 
ATOM     15  C   UNL     1     -33.781  22.949  -0.539  0.00  0.00    +0.091 C 
ATOM     16  C   UNL     1     -33.916  21.575   0.075  0.00  0.00    -0.003 C 
ATOM     17  C   UNL     1     -35.135  20.998   0.477  0.00  0.00    +0.106 C 
ATOM     18  C   UNL     1     -36.406  21.741   0.396  0.00  0.00    +0.344 C 
ATOM     19  C   UNL     1     -32.748  20.801   0.210  0.00  0.00    +0.033 C 
ATOM     20  C   UNL     1     -35.178  19.695   0.998  0.00  0.00    +0.143 C 
ATOM     21  C   UNL     1     -32.791  19.507   0.733  0.00  0.00    +0.136 C 
ATOM     22  C   UNL     1     -34.006  18.955   1.125  0.00  0.00    +0.073 C 
ENDROOT
BRANCH   6  23
ATOM     23  O   UNL     1     -35.938  23.208   5.814  0.00  0.00    -0.382 OA
ATOM     24  H   UNL     1     -35.134  23.146   6.353  0.00  0.00    +0.210 HD
ENDBRANCH   6  23
BRANCH  20  25
ATOM     25  O   UNL     1     -36.346  19.125   1.413  0.00  0.00    -0.505 OA
ATOM     26  H   UNL     1     -36.768  18.482   0.878  0.00  0.00    +0.292 HD
ENDBRANCH  20  25
BRANCH  21  27
ATOM     27  O   UNL     1     -31.643  18.786   0.857  0.00  0.00    -0.505 OA
ATOM     28  H   UNL     1     -31.684  17.855   0.964  0.00  0.00    +0.292 HD
ENDBRANCH  21  27
TORSDOF 3
ENDMDL
MODEL 5
REMARK VINA RESULT:      -6.1      1.445      5.782
REMARK  Name = 53304448
REMARK  3 active torsions:
REMARK  status: ('A' for Active; 'I' for Inactive)
REMARK    1  A    between atoms: C_6  and  O_23
REMARK    2  A    between atoms: C_20  and  O_25
REMARK    3  A    between atoms: C_21  and  O_27
REMARK                            x       y       z     vdW  Elec       q    Type
REMARK                         _______ _______ _______ _____ _____    ______ ____
ROOT
ATOM      1  O   UNL     1     -34.904  27.011   1.862  0.00  0.00    -0.356 OA
ATOM      2  O   UNL     1     -34.873  24.706   4.315  0.00  0.00    -0.449 OA
ATOM      3  O   UNL     1     -37.754  26.446   2.203  0.00  0.00    -0.296 OA
ATOM      4  O   UNL     1     -37.122  25.033   4.772  0.00  0.00    -0.245 OA
ATOM      5  C   UNL     1     -33.776  26.184   2.157  0.00  0.00    +0.145 C 
ATOM      6  C   UNL     1     -32.666  26.463   1.144  0.00  0.00    +0.138 C 
ATOM      7  C   UNL     1     -35.512  26.771   0.588  0.00  0.00    +0.123 C 
ATOM      8  C   UNL     1     -33.186  26.160  -0.262  0.00  0.00    +0.034 C 
ATOM      9  C   UNL     1     -34.482  26.912  -0.539  0.00  0.00    +0.033 C 
ATOM     10  C   UNL     1     -33.363  26.440   3.617  0.00  0.00    +0.076 C 
ATOM     11  C   UNL     1     -36.280  25.437   0.576  0.00  0.00    +0.094 C 
ATOM     12  C   UNL     1     -34.492  26.069   4.601  0.00  0.00    +0.172 C 
ATOM     13  C   UNL     1     -37.370  25.416   1.645  0.00  0.00    +0.157 C 
ATOM     14  C   UNL     1     -34.026  26.153   6.047  0.00  0.00    +0.047 C 
ATOM     15  C   UNL     1     -38.050  24.098   1.949  0.00  0.00    +0.091 C 
ATOM     16  C   UNL     1     -37.156  22.997   2.470  0.00  0.00    -0.003 C 
ATOM     17  C   UNL     1     -36.320  23.115   3.596  0.00  0.00    +0.106 C 
ATOM     18  C   UNL     1     -36.190  24.386   4.333  0.00  0.00    +0.344 C 
ATOM     19  C   UNL     1     -37.201  21.753   1.813  0.00  0.00    +0.033 C 
ATOM     20  C   UNL     1     -35.555  22.025   4.042  0.00  0.00    +0.143 C 
ATOM     21  C   UNL     1     -36.435  20.671   2.255  0.00  0.00    +0.136 C 
ATOM     22  C   UNL     1     -35.614  20.808   3.369  0.00  0.00    +0.073 C 
ENDROOT
BRANCH   6  23
ATOM     23  O   UNL     1     -31.537  25.643   1.417  0.00  0.00    -0.382 OA
ATOM     24  H   UNL     1     -30.747  26.198   1.498  0.00  0.00    +0.210 HD
ENDBRANCH   6  23
BRANCH  20  25
ATOM     25  O   UNL     1     -34.721  22.125   5.117  0.00  0.00    -0.505 OA
ATOM     26  H   UNL     1     -34.923  22.720   5.812  0.00  0.00    +0.292 HD
ENDBRANCH  20  25
BRANCH  21  27
ATOM     27  O   UNL     1     -36.496  19.482   1.595  0.00  0.00    -0.505 OA
ATOM     28  H   UNL     1     -35.941  19.329   0.855  0.00  0.00    +0.292 HD
ENDBRANCH  21  27
TORSDOF 3
ENDMDL
MODEL 6
REMARK VINA RESULT:      -5.9      1.546      5.692
REMARK  Name = 53304448
REMARK  3 active torsions:
REMARK  status: ('A' for Active; 'I' for Inactive)
REMARK    1  A    between atoms: C_6  and  O_23
REMARK    2  A    between atoms: C_20  and  O_25
REMARK    3  A    between atoms: C_21  and  O_27
REMARK                            x       y       z     vdW  Elec       q    Type
REMARK                         _______ _______ _______ _____ _____    ______ ____
ROOT
ATOM      1  O   UNL     1     -34.504  25.686  -0.140  0.00  0.00    -0.356 OA
ATOM      2  O   UNL     1     -34.975  26.338   3.128  0.00  0.00    -0.449 OA
ATOM      3  O   UNL     1     -37.253  24.773   0.272  0.00  0.00    -0.296 OA
ATOM      4  O   UNL     1     -37.279  26.188   2.917  0.00  0.00    -0.245 OA
ATOM      5  C   UNL     1     -33.438  25.804   0.804  0.00  0.00    +0.145 C 
ATOM      6  C   UNL     1     -32.111  25.508   0.108  0.00  0.00    +0.138 C 
ATOM      7  C   UNL     1     -34.675  24.378  -0.698  0.00  0.00    +0.123 C 
ATOM      8  C   UNL     1     -32.152  24.089  -0.461  0.00  0.00    +0.034 C 
ATOM      9  C   UNL     1     -33.375  23.892  -1.348  0.00  0.00    +0.033 C 
ATOM     10  C   UNL     1     -33.510  27.207   1.434  0.00  0.00    +0.076 C 
ATOM     11  C   UNL     1     -35.265  23.402   0.337  0.00  0.00    +0.094 C 
ATOM     12  C   UNL     1     -34.838  27.425   2.188  0.00  0.00    +0.172 C 
ATOM     13  C   UNL     1     -36.616  23.890   0.852  0.00  0.00    +0.157 C 
ATOM     14  C   UNL     1     -34.837  28.738   2.956  0.00  0.00    +0.047 C 
ATOM     15  C   UNL     1     -37.219  23.196   2.054  0.00  0.00    +0.091 C 
ATOM     16  C   UNL     1     -36.415  23.268   3.331  0.00  0.00    -0.003 C 
ATOM     17  C   UNL     1     -35.971  24.463   3.927  0.00  0.00    +0.106 C 
ATOM     18  C   UNL     1     -36.197  25.775   3.291  0.00  0.00    +0.344 C 
ATOM     19  C   UNL     1     -36.135  22.060   3.997  0.00  0.00    +0.033 C 
ATOM     20  C   UNL     1     -35.268  24.445   5.142  0.00  0.00    +0.143 C 
ATOM     21  C   UNL     1     -35.431  22.042   5.203  0.00  0.00    +0.136 C 
ATOM     22  C   UNL     1     -34.999  23.234   5.775  0.00  0.00    +0.073 C 
ENDROOT
BRANCH   6  23
ATOM     23  O   UNL     1     -31.038  25.613   1.036  0.00  0.00    -0.382 OA
ATOM     24  H   UNL     1     -30.411  26.287   0.730  0.00  0.00    +0.210 HD
ENDBRANCH   6  23
BRANCH  20  25
ATOM     25  O   UNL     1     -34.809  25.590   5.724  0.00  0.00    -0.505 OA
ATOM     26  H   UNL     1     -35.345  26.047   6.342  0.00  0.00    +0.292 HD
ENDBRANCH  20  25
BRANCH  21  27
ATOM     27  O   UNL     1     -35.169  20.857   5.820  0.00  0.00    -0.505 OA
ATOM     28  H   UNL     1     -34.288  20.541   5.871  0.00  0.00    +0.292 HD
ENDBRANCH  21  27
TORSDOF 3
ENDMDL
MODEL 7
REMARK VINA RESULT:      -5.9      2.365      5.378
REMARK  Name = 53304448
REMARK  3 active torsions:
REMARK  status: ('A' for Active; 'I' for Inactive)
REMARK    1  A    between atoms: C_6  and  O_23
REMARK    2  A    between atoms: C_20  and  O_25
REMARK    3  A    between atoms: C_21  and  O_27
REMARK                            x       y       z     vdW  Elec       q    Type
REMARK                         _______ _______ _______ _____ _____    ______ ____
ROOT
ATOM      1  O   UNL     1     -37.878  22.537  -0.548  0.00  0.00    -0.356 OA
ATOM      2  O   UNL     1     -35.875  21.863   2.071  0.00  0.00    -0.449 OA
ATOM      3  O   UNL     1     -35.743  24.506  -0.893  0.00  0.00    -0.296 OA
ATOM      4  O   UNL     1     -34.099  23.011   1.122  0.00  0.00    -0.245 OA
ATOM      5  C   UNL     1     -38.326  21.886   0.643  0.00  0.00    +0.145 C 
ATOM      6  C   UNL     1     -39.831  21.640   0.551  0.00  0.00    +0.138 C 
ATOM      7  C   UNL     1     -38.441  23.834  -0.774  0.00  0.00    +0.123 C 
ATOM      8  C   UNL     1     -40.546  22.983   0.387  0.00  0.00    +0.034 C 
ATOM      9  C   UNL     1     -39.972  23.767  -0.787  0.00  0.00    +0.033 C 
ATOM     10  C   UNL     1     -37.497  20.601   0.826  0.00  0.00    +0.076 C 
ATOM     11  C   UNL     1     -37.863  24.873   0.206  0.00  0.00    +0.094 C 
ATOM     12  C   UNL     1     -35.995  20.912   0.992  0.00  0.00    +0.172 C 
ATOM     13  C   UNL     1     -36.346  24.972   0.077  0.00  0.00    +0.157 C 
ATOM     14  C   UNL     1     -35.201  19.664   1.348  0.00  0.00    +0.047 C 
ATOM     15  C   UNL     1     -35.587  25.748   1.131  0.00  0.00    +0.091 C 
ATOM     16  C   UNL     1     -35.692  25.222   2.544  0.00  0.00    -0.003 C 
ATOM     17  C   UNL     1     -35.382  23.904   2.929  0.00  0.00    +0.106 C 
ATOM     18  C   UNL     1     -34.991  22.881   1.940  0.00  0.00    +0.344 C 
ATOM     19  C   UNL     1     -36.078  26.126   3.551  0.00  0.00    +0.033 C 
ATOM     20  C   UNL     1     -35.462  23.508   4.273  0.00  0.00    +0.143 C 
ATOM     21  C   UNL     1     -36.162  25.729   4.888  0.00  0.00    +0.136 C 
ATOM     22  C   UNL     1     -35.853  24.422   5.248  0.00  0.00    +0.073 C 
ENDROOT
BRANCH   6  23
ATOM     23  O   UNL     1     -40.296  21.000   1.732  0.00  0.00    -0.382 OA
ATOM     24  H   UNL     1     -41.211  20.707   1.602  0.00  0.00    +0.210 HD
ENDBRANCH   6  23
BRANCH  20  25
ATOM     25  O   UNL     1     -35.187  22.231   4.664  0.00  0.00    -0.505 OA
ATOM     26  H   UNL     1     -35.021  22.043   5.567  0.00  0.00    +0.292 HD
ENDBRANCH  20  25
BRANCH  21  27
ATOM     27  O   UNL     1     -36.546  26.625   5.839  0.00  0.00    -0.505 OA
ATOM     28  H   UNL     1     -36.597  26.361   6.737  0.00  0.00    +0.292 HD
ENDBRANCH  21  27
TORSDOF 3
ENDMDL
MODEL 8
REMARK VINA RESULT:      -5.9      1.962      3.321
REMARK  Name = 53304448
REMARK  3 active torsions:
REMARK  status: ('A' for Active; 'I' for Inactive)
REMARK    1  A    between atoms: C_6  and  O_23
REMARK    2  A    between atoms: C_20  and  O_25
REMARK    3  A    between atoms: C_21  and  O_27
REMARK                            x       y       z     vdW  Elec       q    Type
REMARK                         _______ _______ _______ _____ _____    ______ ____
ROOT
ATOM      1  O   UNL     1     -37.624  21.953   2.583  0.00  0.00    -0.356 OA
ATOM      2  O   UNL     1     -37.836  25.308   2.738  0.00  0.00    -0.449 OA
ATOM      3  O   UNL     1     -36.138  22.545   5.033  0.00  0.00    -0.296 OA
ATOM      4  O   UNL     1     -37.247  25.331   4.979  0.00  0.00    -0.245 OA
ATOM      5  C   UNL     1     -37.859  22.784   1.444  0.00  0.00    +0.145 C 
ATOM      6  C   UNL     1     -37.908  21.916   0.187  0.00  0.00    +0.138 C 
ATOM      7  C   UNL     1     -36.371  21.260   2.576  0.00  0.00    +0.123 C 
ATOM      8  C   UNL     1     -36.574  21.184   0.035  0.00  0.00    +0.034 C 
ATOM      9  C   UNL     1     -36.224  20.417   1.304  0.00  0.00    +0.033 C 
ATOM     10  C   UNL     1     -39.149  23.586   1.696  0.00  0.00    +0.076 C 
ATOM     11  C   UNL     1     -35.197  22.223   2.832  0.00  0.00    +0.094 C 
ATOM     12  C   UNL     1     -39.017  24.501   2.931  0.00  0.00    +0.172 C 
ATOM     13  C   UNL     1     -35.349  22.938   4.172  0.00  0.00    +0.157 C 
ATOM     14  C   UNL     1     -40.220  25.421   3.077  0.00  0.00    +0.047 C 
ATOM     15  C   UNL     1     -34.430  24.103   4.471  0.00  0.00    +0.091 C 
ATOM     16  C   UNL     1     -34.534  25.285   3.535  0.00  0.00    -0.003 C 
ATOM     17  C   UNL     1     -35.729  25.972   3.249  0.00  0.00    +0.106 C 
ATOM     18  C   UNL     1     -37.025  25.532   3.800  0.00  0.00    +0.344 C 
ATOM     19  C   UNL     1     -33.347  25.761   2.948  0.00  0.00    +0.033 C 
ATOM     20  C   UNL     1     -35.731  27.092   2.403  0.00  0.00    +0.143 C 
ATOM     21  C   UNL     1     -33.352  26.873   2.102  0.00  0.00    +0.136 C 
ATOM     22  C   UNL     1     -34.543  27.538   1.831  0.00  0.00    +0.073 C 
ENDROOT
BRANCH   6  23
ATOM     23  O   UNL     1     -38.134  22.728  -0.958  0.00  0.00    -0.382 OA
ATOM     24  H   UNL     1     -37.284  22.963  -1.361  0.00  0.00    +0.210 HD
ENDBRANCH   6  23
BRANCH  20  25
ATOM     25  O   UNL     1     -36.881  27.759   2.096  0.00  0.00    -0.505 OA
ATOM     26  H   UNL     1     -37.081  27.959   1.203  0.00  0.00    +0.292 HD
ENDBRANCH  20  25
BRANCH  21  27
ATOM     27  O   UNL     1     -32.188  27.306   1.544  0.00  0.00    -0.505 OA
ATOM     28  H   UNL     1     -31.950  28.211   1.599  0.00  0.00    +0.292 HD
ENDBRANCH  21  27
TORSDOF 3
ENDMDL
MODEL 9
REMARK VINA RESULT:      -5.8      2.442      5.186
REMARK  Name = 53304448
REMARK  3 active torsions:
REMARK  status: ('A' for Active; 'I' for Inactive)
REMARK    1  A    between atoms: C_6  and  O_23
REMARK    2  A    between atoms: C_20  and  O_25
REMARK    3  A    between atoms: C_21  and  O_27
REMARK                            x       y       z     vdW  Elec       q    Type
REMARK                         _______ _______ _______ _____ _____    ______ ____
ROOT
ATOM      1  O   UNL     1     -36.211  22.584  -0.478  0.00  0.00    -0.356 OA
ATOM      2  O   UNL     1     -37.969  24.446   1.706  0.00  0.00    -0.449 OA
ATOM      3  O   UNL     1     -36.443  20.779   1.813  0.00  0.00    -0.296 OA
ATOM      4  O   UNL     1     -38.538  22.587   2.970  0.00  0.00    -0.245 OA
ATOM      5  C   UNL     1     -36.257  24.012  -0.513  0.00  0.00    +0.145 C 
ATOM      6  C   UNL     1     -35.333  24.520  -1.620  0.00  0.00    +0.138 C 
ATOM      7  C   UNL     1     -34.930  22.028  -0.160  0.00  0.00    +0.123 C 
ATOM      8  C   UNL     1     -33.907  24.048  -1.335  0.00  0.00    +0.034 C 
ATOM      9  C   UNL     1     -33.861  22.538  -1.133  0.00  0.00    +0.033 C 
ATOM     10  C   UNL     1     -37.725  24.439  -0.684  0.00  0.00    +0.076 C 
ATOM     11  C   UNL     1     -34.582  22.239   1.325  0.00  0.00    +0.094 C 
ATOM     12  C   UNL     1     -38.597  23.967   0.498  0.00  0.00    +0.172 C 
ATOM     13  C   UNL     1     -35.627  21.600   2.235  0.00  0.00    +0.157 C 
ATOM     14  C   UNL     1     -40.006  24.537   0.418  0.00  0.00    +0.047 C 
ATOM     15  C   UNL     1     -35.585  21.926   3.713  0.00  0.00    +0.091 C 
ATOM     16  C   UNL     1     -35.781  23.380   4.075  0.00  0.00    -0.003 C 
ATOM     17  C   UNL     1     -36.883  24.160   3.676  0.00  0.00    +0.106 C 
ATOM     18  C   UNL     1     -37.926  23.623   2.782  0.00  0.00    +0.344 C 
ATOM     19  C   UNL     1     -34.822  23.981   4.911  0.00  0.00    +0.033 C 
ATOM     20  C   UNL     1     -37.012  25.493   4.096  0.00  0.00    +0.143 C 
ATOM     21  C   UNL     1     -34.949  25.309   5.324  0.00  0.00    +0.136 C 
ATOM     22  C   UNL     1     -36.044  26.063   4.918  0.00  0.00    +0.073 C 
ENDROOT
BRANCH   6  23
ATOM     23  O   UNL     1     -35.360  25.941  -1.664  0.00  0.00    -0.382 OA
ATOM     24  H   UNL     1     -34.521  26.290  -1.328  0.00  0.00    +0.210 HD
ENDBRANCH   6  23
BRANCH  20  25
ATOM     25  O   UNL     1     -38.061  26.272   3.702  0.00  0.00    -0.505 OA
ATOM     26  H   UNL     1     -37.926  26.956   3.077  0.00  0.00    +0.292 HD
ENDBRANCH  20  25
BRANCH  21  27
ATOM     27  O   UNL     1     -34.000  25.864   6.128  0.00  0.00    -0.505 OA
ATOM     28  H   UNL     1     -33.463  25.316   6.666  0.00  0.00    +0.292 HD
ENDBRANCH  21  27
TORSDOF 3
ENDMDL
