MODEL 1
REMARK VINA RESULT:      -6.4      0.000      0.000
REMARK  Name = 5311176
REMARK  13 active torsions:
REMARK  status: ('A' for Active; 'I' for Inactive)
REMARK    1  A    between atoms: N_2  and  C_24
REMARK    2  A    between atoms: C_3  and  C_7
REMARK    3  A    between atoms: C_11  and  C_12
REMARK    4  A    between atoms: C_12  and  N_13
REMARK    5  A    between atoms: C_12  and  C_17
REMARK    6  A    between atoms: C_17  and  C_18
REMARK    7  A    between atoms: C_24  and  C_26
REMARK    8  A    between atoms: C_24  and  C_29
REMARK    9  A    between atoms: C_26  and  C_28
REMARK   10  A    between atoms: C_29  and  C_30
REMARK   11  A    between atoms: C_30  and  C_31
REMARK   12  A    between atoms: C_31  and  N_32
REMARK   13  A    between atoms: N_32  and  C_35
REMARK                            x       y       z     vdW  Elec       q    Type
REMARK                         _______ _______ _______ _____ _____    ______ ____
ROOT
ATOM      1  O   UNL     1     -37.703  24.319   1.893  0.00  0.00    -0.273 OA
ATOM      2  N   UNL     1     -37.386  22.429   3.215  0.00  0.00    -0.298 N 
ATOM      3  C   UNL     1     -38.138  23.327   2.473  0.00  0.00    +0.241 C 
ATOM      4  H   UNL     1     -37.847  21.668   3.636  0.00  0.00    +0.150 HD
ENDROOT
BRANCH   3   7
ATOM      5  O   UNL     1     -40.274  25.571   3.372  0.00  0.00    -0.277 OA
ATOM      6  N   UNL     1     -40.276  23.999   1.674  0.00  0.00    -0.275 N 
ATOM      7  C   UNL     1     -39.588  22.950   2.417  0.00  0.00    +0.152 C 
ATOM      8  C   UNL     1     -39.812  21.684   1.598  0.00  0.00    +0.031 C 
ATOM      9  C   UNL     1     -39.948  22.205   0.169  0.00  0.00    +0.024 C 
ATOM     10  C   UNL     1     -40.671  23.532   0.347  0.00  0.00    +0.094 C 
ATOM     11  C   UNL     1     -40.627  25.211   2.248  0.00  0.00    +0.206 C 
BRANCH  11  12
ATOM     12  C   UNL     1     -41.486  26.108   1.395  0.00  0.00    +0.018 C 
BRANCH  12  13
ATOM     13  N   UNL     1     -40.556  26.999   0.714  0.00  0.00    +0.388 N 
ATOM     14  H   UNL     1     -39.631  26.568   0.688  0.00  0.00    -0.089 HD
ATOM     15  H   UNL     1     -40.504  27.885   1.216  0.00  0.00    -0.089 HD
ATOM     16  H   UNL     1     -40.880  27.166  -0.238  0.00  0.00    -0.089 HD
ENDBRANCH  12  13
BRANCH  12  17
ATOM     17  C   UNL     1     -42.481  26.895   2.250  0.00  0.00    +0.013 C 
BRANCH  17  18
ATOM     18  C   UNL     1     -43.780  26.153   2.463  0.00  0.00    -0.024 C 
ATOM     19  C   UNL     1     -44.221  25.230   1.514  0.00  0.00    -0.004 C 
ATOM     20  C   UNL     1     -44.540  26.390   3.610  0.00  0.00    -0.004 C 
ATOM     21  C   UNL     1     -45.420  24.546   1.711  0.00  0.00    -0.000 C 
ATOM     22  C   UNL     1     -45.738  25.706   3.807  0.00  0.00    -0.000 C 
ATOM     23  C   UNL     1     -46.178  24.784   2.857  0.00  0.00    -0.000 C 
ENDBRANCH  17  18
ENDBRANCH  12  17
ENDBRANCH  11  12
ENDBRANCH   3   7
BRANCH   2  24
ATOM     24  C   UNL     1     -35.964  22.552   3.404  0.00  0.00    +0.131 C 
BRANCH  24  26
ATOM     25  O   UNL     1     -34.622  22.453   1.409  0.00  0.00    -0.293 OA
ATOM     26  C   UNL     1     -35.302  21.840   2.231  0.00  0.00    +0.185 C 
BRANCH  26  28
ATOM     27 CL   UNL     1     -34.009  19.523   1.696  0.00  0.00    -0.105 Cl
ATOM     28  C   UNL     1     -35.503  20.340   2.180  0.00  0.00    +0.161 C 
ENDBRANCH  26  28
ENDBRANCH  24  26
BRANCH  24  29
ATOM     29  C   UNL     1     -35.490  21.948   4.726  0.00  0.00    +0.029 C 
BRANCH  29  30
ATOM     30  C   UNL     1     -35.134  23.023   5.760  0.00  0.00    +0.029 C 
BRANCH  30  31
ATOM     31  C   UNL     1     -34.567  24.285   5.117  0.00  0.00    +0.129 C 
BRANCH  31  32
ATOM     32  N   UNL     1     -35.250  25.464   5.654  0.00  0.00    -0.240 NA
BRANCH  32  35
ATOM     33  N   UNL     1     -37.310  25.911   4.501  0.00  0.00    -0.370 N 
ATOM     34  N   UNL     1     -35.473  27.218   4.154  0.00  0.00    -0.370 N 
ATOM     35  C   UNL     1     -35.991  26.135   4.827  0.00  0.00    +0.189 C 
ATOM     36  H   UNL     1     -37.799  25.164   4.915  0.00  0.00    +0.159 HD
ATOM     37  H   UNL     1     -37.763  26.498   3.854  0.00  0.00    +0.159 HD
ATOM     38  H   UNL     1     -34.537  27.485   4.298  0.00  0.00    +0.159 HD
ATOM     39  H   UNL     1     -36.040  27.724   3.527  0.00  0.00    +0.159 HD
ENDBRANCH  32  35
ENDBRANCH  31  32
ENDBRANCH  30  31
ENDBRANCH  29  30
ENDBRANCH  24  29
ENDBRANCH   2  24
TORSDOF 13
ENDMDL
MODEL 2
REMARK VINA RESULT:      -6.2      3.034      7.750
REMARK  Name = 5311176
REMARK  13 active torsions:
REMARK  status: ('A' for Active; 'I' for Inactive)
REMARK    1  A    between atoms: N_2  and  C_24
REMARK    2  A    between atoms: C_3  and  C_7
REMARK    3  A    between atoms: C_11  and  C_12
REMARK    4  A    between atoms: C_12  and  N_13
REMARK    5  A    between atoms: C_12  and  C_17
REMARK    6  A    between atoms: C_17  and  C_18
REMARK    7  A    between atoms: C_24  and  C_26
REMARK    8  A    between atoms: C_24  and  C_29
REMARK    9  A    between atoms: C_26  and  C_28
REMARK   10  A    between atoms: C_29  and  C_30
REMARK   11  A    between atoms: C_30  and  C_31
REMARK   12  A    between atoms: C_31  and  N_32
REMARK   13  A    between atoms: N_32  and  C_35
REMARK                            x       y       z     vdW  Elec       q    Type
REMARK                         _______ _______ _______ _____ _____    ______ ____
ROOT
ATOM      1  O   UNL     1     -37.615  23.445   3.767  0.00  0.00    -0.273 OA
ATOM      2  N   UNL     1     -37.087  21.938   2.073  0.00  0.00    -0.298 N 
ATOM      3  C   UNL     1     -36.811  22.727   3.180  0.00  0.00    +0.241 C 
ATOM      4  H   UNL     1     -36.357  21.402   1.686  0.00  0.00    +0.150 HD
ENDROOT
BRANCH   3   7
ATOM      5  O   UNL     1     -34.816  25.153   2.445  0.00  0.00    -0.277 OA
ATOM      6  N   UNL     1     -35.047  23.833   4.332  0.00  0.00    -0.275 N 
ATOM      7  C   UNL     1     -35.387  22.600   3.632  0.00  0.00    +0.152 C 
ATOM      8  C   UNL     1     -35.220  21.503   4.677  0.00  0.00    +0.031 C 
ATOM      9  C   UNL     1     -35.518  22.218   5.993  0.00  0.00    +0.024 C 
ATOM     10  C   UNL     1     -34.946  23.610   5.772  0.00  0.00    +0.094 C 
ATOM     11  C   UNL     1     -34.716  25.002   3.664  0.00  0.00    +0.206 C 
BRANCH  11  12
ATOM     12  C   UNL     1     -34.222  26.129   4.534  0.00  0.00    +0.018 C 
BRANCH  12  13
ATOM     13  N   UNL     1     -35.383  26.980   4.759  0.00  0.00    +0.388 N 
ATOM     14  H   UNL     1     -36.200  26.398   4.941  0.00  0.00    -0.089 HD
ATOM     15  H   UNL     1     -35.550  27.553   3.932  0.00  0.00    -0.089 HD
ATOM     16  H   UNL     1     -35.210  27.585   5.562  0.00  0.00    -0.089 HD
ENDBRANCH  12  13
BRANCH  12  17
ATOM     17  C   UNL     1     -33.093  26.900   3.849  0.00  0.00    +0.013 C 
BRANCH  17  18
ATOM     18  C   UNL     1     -32.642  28.102   4.645  0.00  0.00    -0.024 C 
ATOM     19  C   UNL     1     -32.208  27.945   5.961  0.00  0.00    -0.004 C 
ATOM     20  C   UNL     1     -32.659  29.371   4.065  0.00  0.00    -0.004 C 
ATOM     21  C   UNL     1     -31.793  29.054   6.697  0.00  0.00    -0.000 C 
ATOM     22  C   UNL     1     -32.244  30.481   4.799  0.00  0.00    -0.000 C 
ATOM     23  C   UNL     1     -31.810  30.322   6.115  0.00  0.00    -0.000 C 
ENDBRANCH  17  18
ENDBRANCH  12  17
ENDBRANCH  11  12
ENDBRANCH   3   7
BRANCH   2  24
ATOM     24  C   UNL     1     -38.387  21.863   1.458  0.00  0.00    +0.131 C 
BRANCH  24  26
ATOM     25  O   UNL     1     -39.426  20.211   0.051  0.00  0.00    -0.293 OA
ATOM     26  C   UNL     1     -38.403  20.592   0.619  0.00  0.00    +0.185 C 
BRANCH  26  28
ATOM     27 CL   UNL     1     -37.310  18.227  -0.118  0.00  0.00    -0.105 Cl
ATOM     28  C   UNL     1     -37.077  19.869   0.502  0.00  0.00    +0.161 C 
ENDBRANCH  26  28
ENDBRANCH  24  26
BRANCH  24  29
ATOM     29  C   UNL     1     -38.697  23.078   0.584  0.00  0.00    +0.029 C 
BRANCH  29  30
ATOM     30  C   UNL     1     -39.992  23.782   1.006  0.00  0.00    +0.029 C 
BRANCH  30  31
ATOM     31  C   UNL     1     -39.856  25.302   1.002  0.00  0.00    +0.129 C 
BRANCH  31  32
ATOM     32  N   UNL     1     -38.440  25.673   1.024  0.00  0.00    -0.240 NA
BRANCH  32  35
ATOM     33  N   UNL     1     -38.433  26.213   3.365  0.00  0.00    -0.370 N 
ATOM     34  N   UNL     1     -37.072  27.322   1.909  0.00  0.00    -0.370 N 
ATOM     35  C   UNL     1     -38.028  26.344   2.055  0.00  0.00    +0.189 C 
ATOM     36  H   UNL     1     -39.114  25.545   3.605  0.00  0.00    +0.159 HD
ATOM     37  H   UNL     1     -38.039  26.787   4.061  0.00  0.00    +0.159 HD
ATOM     38  H   UNL     1     -36.698  27.517   1.019  0.00  0.00    +0.159 HD
ATOM     39  H   UNL     1     -36.763  27.829   2.695  0.00  0.00    +0.159 HD
ENDBRANCH  32  35
ENDBRANCH  31  32
ENDBRANCH  30  31
ENDBRANCH  29  30
ENDBRANCH  24  29
ENDBRANCH   2  24
TORSDOF 13
ENDMDL
MODEL 3
REMARK VINA RESULT:      -6.2      2.085      3.066
REMARK  Name = 5311176
REMARK  13 active torsions:
REMARK  status: ('A' for Active; 'I' for Inactive)
REMARK    1  A    between atoms: N_2  and  C_24
REMARK    2  A    between atoms: C_3  and  C_7
REMARK    3  A    between atoms: C_11  and  C_12
REMARK    4  A    between atoms: C_12  and  N_13
REMARK    5  A    between atoms: C_12  and  C_17
REMARK    6  A    between atoms: C_17  and  C_18
REMARK    7  A    between atoms: C_24  and  C_26
REMARK    8  A    between atoms: C_24  and  C_29
REMARK    9  A    between atoms: C_26  and  C_28
REMARK   10  A    between atoms: C_29  and  C_30
REMARK   11  A    between atoms: C_30  and  C_31
REMARK   12  A    between atoms: C_31  and  N_32
REMARK   13  A    between atoms: N_32  and  C_35
REMARK                            x       y       z     vdW  Elec       q    Type
REMARK                         _______ _______ _______ _____ _____    ______ ____
ROOT
ATOM      1  O   UNL     1     -39.053  26.896   1.655  0.00  0.00    -0.273 OA
ATOM      2  N   UNL     1     -37.640  25.662   3.034  0.00  0.00    -0.298 N 
ATOM      3  C   UNL     1     -38.861  25.993   2.466  0.00  0.00    +0.241 C 
ATOM      4  H   UNL     1     -37.609  24.915   3.674  0.00  0.00    +0.150 HD
ENDROOT
BRANCH   3   7
ATOM      5  O   UNL     1     -41.326  27.385   4.012  0.00  0.00    -0.277 OA
ATOM      6  N   UNL     1     -41.219  25.678   2.454  0.00  0.00    -0.275 N 
ATOM      7  C   UNL     1     -39.970  25.096   2.929  0.00  0.00    +0.152 C 
ATOM      8  C   UNL     1     -39.904  23.725   2.266  0.00  0.00    +0.031 C 
ATOM      9  C   UNL     1     -40.679  23.922   0.966  0.00  0.00    +0.024 C 
ATOM     10  C   UNL     1     -41.783  24.891   1.359  0.00  0.00    +0.094 C 
ATOM     11  C   UNL     1     -41.834  26.744   3.091  0.00  0.00    +0.206 C 
BRANCH  11  12
ATOM     12  C   UNL     1     -43.204  27.106   2.575  0.00  0.00    +0.018 C 
BRANCH  12  13
ATOM     13  N   UNL     1     -43.039  28.395   1.916  0.00  0.00    +0.388 N 
ATOM     14  H   UNL     1     -42.091  28.469   1.547  0.00  0.00    -0.089 HD
ATOM     15  H   UNL     1     -43.202  29.144   2.589  0.00  0.00    -0.089 HD
ATOM     16  H   UNL     1     -43.710  28.474   1.151  0.00  0.00    -0.089 HD
ENDBRANCH  12  13
BRANCH  12  17
ATOM     17  C   UNL     1     -44.218  27.192   3.716  0.00  0.00    +0.013 C 
BRANCH  17  18
ATOM     18  C   UNL     1     -45.255  26.095   3.658  0.00  0.00    -0.024 C 
ATOM     19  C   UNL     1     -45.347  25.281   2.529  0.00  0.00    -0.004 C 
ATOM     20  C   UNL     1     -46.122  25.896   4.733  0.00  0.00    -0.004 C 
ATOM     21  C   UNL     1     -46.305  24.269   2.475  0.00  0.00    -0.000 C 
ATOM     22  C   UNL     1     -47.080  24.884   4.680  0.00  0.00    -0.000 C 
ATOM     23  C   UNL     1     -47.171  24.070   3.551  0.00  0.00    -0.000 C 
ENDBRANCH  17  18
ENDBRANCH  12  17
ENDBRANCH  11  12
ENDBRANCH   3   7
BRANCH   2  24
ATOM     24  C   UNL     1     -36.414  26.355   2.736  0.00  0.00    +0.131 C 
BRANCH  24  26
ATOM     25  O   UNL     1     -35.974  24.309   1.548  0.00  0.00    -0.293 OA
ATOM     26  C   UNL     1     -35.630  25.468   1.776  0.00  0.00    +0.185 C 
BRANCH  26  28
ATOM     27 CL   UNL     1     -32.924  25.525   1.787  0.00  0.00    -0.105 Cl
ATOM     28  C   UNL     1     -34.443  26.124   1.103  0.00  0.00    +0.161 C 
ENDBRANCH  26  28
ENDBRANCH  24  26
BRANCH  24  29
ATOM     29  C   UNL     1     -35.583  26.647   3.985  0.00  0.00    +0.029 C 
BRANCH  29  30
ATOM     30  C   UNL     1     -35.950  25.724   5.154  0.00  0.00    +0.029 C 
BRANCH  30  31
ATOM     31  C   UNL     1     -34.797  24.810   5.559  0.00  0.00    +0.129 C 
BRANCH  31  32
ATOM     32  N   UNL     1     -34.784  23.621   4.705  0.00  0.00    -0.240 NA
BRANCH  32  35
ATOM     33  N   UNL     1     -36.713  22.429   3.910  0.00  0.00    -0.370 N 
ATOM     34  N   UNL     1     -35.969  22.149   6.048  0.00  0.00    -0.370 N 
ATOM     35  C   UNL     1     -35.771  22.790   4.847  0.00  0.00    +0.189 C 
ATOM     36  H   UNL     1     -36.683  22.817   3.007  0.00  0.00    +0.159 HD
ATOM     37  H   UNL     1     -37.417  21.781   4.146  0.00  0.00    +0.159 HD
ATOM     38  H   UNL     1     -35.362  22.320   6.804  0.00  0.00    +0.159 HD
ATOM     39  H   UNL     1     -36.719  21.520   6.151  0.00  0.00    +0.159 HD
ENDBRANCH  32  35
ENDBRANCH  31  32
ENDBRANCH  30  31
ENDBRANCH  29  30
ENDBRANCH  24  29
ENDBRANCH   2  24
TORSDOF 13
ENDMDL
MODEL 4
REMARK VINA RESULT:      -6.1      1.284      1.724
REMARK  Name = 5311176
REMARK  13 active torsions:
REMARK  status: ('A' for Active; 'I' for Inactive)
REMARK    1  A    between atoms: N_2  and  C_24
REMARK    2  A    between atoms: C_3  and  C_7
REMARK    3  A    between atoms: C_11  and  C_12
REMARK    4  A    between atoms: C_12  and  N_13
REMARK    5  A    between atoms: C_12  and  C_17
REMARK    6  A    between atoms: C_17  and  C_18
REMARK    7  A    between atoms: C_24  and  C_26
REMARK    8  A    between atoms: C_24  and  C_29
REMARK    9  A    between atoms: C_26  and  C_28
REMARK   10  A    between atoms: C_29  and  C_30
REMARK   11  A    between atoms: C_30  and  C_31
REMARK   12  A    between atoms: C_31  and  N_32
REMARK   13  A    between atoms: N_32  and  C_35
REMARK                            x       y       z     vdW  Elec       q    Type
REMARK                         _______ _______ _______ _____ _____    ______ ____
ROOT
ATOM      1  O   UNL     1     -37.251  24.122   1.724  0.00  0.00    -0.273 OA
ATOM      2  N   UNL     1     -37.239  22.939   3.729  0.00  0.00    -0.298 N 
ATOM      3  C   UNL     1     -37.838  23.532   2.627  0.00  0.00    +0.241 C 
ATOM      4  H   UNL     1     -37.815  22.493   4.391  0.00  0.00    +0.150 HD
ENDROOT
BRANCH   3   7
ATOM      5  O   UNL     1     -39.625  26.188   3.023  0.00  0.00    -0.277 OA
ATOM      6  N   UNL     1     -39.869  24.324   1.674  0.00  0.00    -0.275 N 
ATOM      7  C   UNL     1     -39.327  23.359   2.623  0.00  0.00    +0.152 C 
ATOM      8  C   UNL     1     -39.738  21.999   2.071  0.00  0.00    +0.031 C 
ATOM      9  C   UNL     1     -39.815  22.237   0.564  0.00  0.00    +0.024 C 
ATOM     10  C   UNL     1     -40.341  23.661   0.461  0.00  0.00    +0.094 C 
ATOM     11  C   UNL     1     -40.039  25.663   1.988  0.00  0.00    +0.206 C 
BRANCH  11  12
ATOM     12  C   UNL     1     -40.772  26.483   0.958  0.00  0.00    +0.018 C 
BRANCH  12  13
ATOM     13  N   UNL     1     -39.750  27.297   0.315  0.00  0.00    +0.388 N 
ATOM     14  H   UNL     1     -39.654  28.181   0.815  0.00  0.00    -0.089 HD
ATOM     15  H   UNL     1     -40.020  27.481  -0.652  0.00  0.00    -0.089 HD
ATOM     16  H   UNL     1     -38.859  26.800   0.330  0.00  0.00    -0.089 HD
ENDBRANCH  12  13
BRANCH  12  17
ATOM     17  C   UNL     1     -41.846  27.355   1.610  0.00  0.00    +0.013 C 
BRANCH  17  18
ATOM     18  C   UNL     1     -43.098  26.581   1.950  0.00  0.00    -0.024 C 
ATOM     19  C   UNL     1     -43.805  26.874   3.116  0.00  0.00    -0.004 C 
ATOM     20  C   UNL     1     -43.548  25.572   1.098  0.00  0.00    -0.004 C 
ATOM     21  C   UNL     1     -44.960  26.159   3.431  0.00  0.00    -0.000 C 
ATOM     22  C   UNL     1     -44.703  24.857   1.411  0.00  0.00    -0.000 C 
ATOM     23  C   UNL     1     -45.409  25.150   2.578  0.00  0.00    -0.000 C 
ENDBRANCH  17  18
ENDBRANCH  12  17
ENDBRANCH  11  12
ENDBRANCH   3   7
BRANCH   2  24
ATOM     24  C   UNL     1     -35.817  22.944   3.956  0.00  0.00    +0.131 C 
BRANCH  24  26
ATOM     25  O   UNL     1     -35.144  20.784   4.777  0.00  0.00    -0.293 OA
ATOM     26  C   UNL     1     -35.343  21.504   3.799  0.00  0.00    +0.185 C 
BRANCH  26  28
ATOM     27 CL   UNL     1     -36.596  20.083   1.865  0.00  0.00    -0.105 Cl
ATOM     28  C   UNL     1     -35.182  21.021   2.373  0.00  0.00    +0.161 C 
ENDBRANCH  26  28
ENDBRANCH  24  26
BRANCH  24  29
ATOM     29  C   UNL     1     -35.443  23.476   5.339  0.00  0.00    +0.029 C 
BRANCH  29  30
ATOM     30  C   UNL     1     -35.848  24.943   5.526  0.00  0.00    +0.029 C 
BRANCH  30  31
ATOM     31  C   UNL     1     -34.689  25.904   5.281  0.00  0.00    +0.129 C 
BRANCH  31  32
ATOM     32  N   UNL     1     -35.118  26.981   4.387  0.00  0.00    -0.240 NA
BRANCH  32  35
ATOM     33  N   UNL     1     -34.723  25.913   2.271  0.00  0.00    -0.370 N 
ATOM     34  N   UNL     1     -36.684  27.003   2.678  0.00  0.00    -0.370 N 
ATOM     35  C   UNL     1     -35.458  26.639   3.183  0.00  0.00    +0.189 C 
ATOM     36  H   UNL     1     -33.825  25.590   2.509  0.00  0.00    +0.159 HD
ATOM     37  H   UNL     1     -35.098  25.718   1.382  0.00  0.00    +0.159 HD
ATOM     38  H   UNL     1     -37.308  27.527   3.231  0.00  0.00    +0.159 HD
ATOM     39  H   UNL     1     -36.938  26.742   1.763  0.00  0.00    +0.159 HD
ENDBRANCH  32  35
ENDBRANCH  31  32
ENDBRANCH  30  31
ENDBRANCH  29  30
ENDBRANCH  24  29
ENDBRANCH   2  24
TORSDOF 13
ENDMDL
MODEL 5
REMARK VINA RESULT:      -5.9      3.419      8.711
REMARK  Name = 5311176
REMARK  13 active torsions:
REMARK  status: ('A' for Active; 'I' for Inactive)
REMARK    1  A    between atoms: N_2  and  C_24
REMARK    2  A    between atoms: C_3  and  C_7
REMARK    3  A    between atoms: C_11  and  C_12
REMARK    4  A    between atoms: C_12  and  N_13
REMARK    5  A    between atoms: C_12  and  C_17
REMARK    6  A    between atoms: C_17  and  C_18
REMARK    7  A    between atoms: C_24  and  C_26
REMARK    8  A    between atoms: C_24  and  C_29
REMARK    9  A    between atoms: C_26  and  C_28
REMARK   10  A    between atoms: C_29  and  C_30
REMARK   11  A    between atoms: C_30  and  C_31
REMARK   12  A    between atoms: C_31  and  N_32
REMARK   13  A    between atoms: N_32  and  C_35
REMARK                            x       y       z     vdW  Elec       q    Type
REMARK                         _______ _______ _______ _____ _____    ______ ____
ROOT
ATOM      1  O   UNL     1     -37.127  23.391   4.088  0.00  0.00    -0.273 OA
ATOM      2  N   UNL     1     -37.552  22.312   2.069  0.00  0.00    -0.298 N 
ATOM      3  C   UNL     1     -36.746  22.928   3.016  0.00  0.00    +0.241 C 
ATOM      4  H   UNL     1     -37.131  21.979   1.243  0.00  0.00    +0.150 HD
ENDROOT
BRANCH   3   7
ATOM      5  O   UNL     1     -35.094  20.169   3.257  0.00  0.00    -0.277 OA
ATOM      6  N   UNL     1     -35.097  21.858   1.676  0.00  0.00    -0.275 N 
ATOM      7  C   UNL     1     -35.304  22.959   2.608  0.00  0.00    +0.152 C 
ATOM      8  C   UNL     1     -34.968  24.213   1.809  0.00  0.00    +0.031 C 
ATOM      9  C   UNL     1     -35.309  23.820   0.373  0.00  0.00    +0.024 C 
ATOM     10  C   UNL     1     -34.923  22.350   0.311  0.00  0.00    +0.094 C 
ATOM     11  C   UNL     1     -34.937  20.547   2.095  0.00  0.00    +0.206 C 
BRANCH  11  12
ATOM     12  C   UNL     1     -34.558  19.563   1.018  0.00  0.00    +0.018 C 
BRANCH  12  13
ATOM     13  N   UNL     1     -35.753  18.759   0.792  0.00  0.00    +0.388 N 
ATOM     14  H   UNL     1     -35.650  18.235  -0.076  0.00  0.00    -0.089 HD
ATOM     15  H   UNL     1     -36.566  19.371   0.727  0.00  0.00    -0.089 HD
ATOM     16  H   UNL     1     -35.878  18.110   1.569  0.00  0.00    -0.089 HD
ENDBRANCH  12  13
BRANCH  12  17
ATOM     17  C   UNL     1     -33.379  18.693   1.455  0.00  0.00    +0.013 C 
BRANCH  17  18
ATOM     18  C   UNL     1     -32.093  19.059   0.753  0.00  0.00    -0.024 C 
ATOM     19  C   UNL     1     -31.996  20.264   0.056  0.00  0.00    -0.004 C 
ATOM     20  C   UNL     1     -30.999  18.193   0.801  0.00  0.00    -0.004 C 
ATOM     21  C   UNL     1     -30.809  20.602  -0.593  0.00  0.00    -0.000 C 
ATOM     22  C   UNL     1     -29.812  18.530   0.153  0.00  0.00    -0.000 C 
ATOM     23  C   UNL     1     -29.717  19.735  -0.544  0.00  0.00    -0.000 C 
ENDBRANCH  17  18
ENDBRANCH  12  17
ENDBRANCH  11  12
ENDBRANCH   3   7
BRANCH   2  24
ATOM     24  C   UNL     1     -38.971  22.135   2.231  0.00  0.00    +0.131 C 
BRANCH  24  26
ATOM     25  O   UNL     1     -40.621  20.944   0.946  0.00  0.00    -0.293 OA
ATOM     26  C   UNL     1     -39.439  21.264   1.071  0.00  0.00    +0.185 C 
BRANCH  26  28
ATOM     27 CL   UNL     1     -38.526  21.800  -1.420  0.00  0.00    -0.105 Cl
ATOM     28  C   UNL     1     -38.368  20.868   0.077  0.00  0.00    +0.161 C 
ENDBRANCH  26  28
ENDBRANCH  24  26
BRANCH  24  29
ATOM     29  C   UNL     1     -39.734  23.459   2.240  0.00  0.00    +0.029 C 
BRANCH  29  30
ATOM     30  C   UNL     1     -39.433  24.310   1.000  0.00  0.00    +0.029 C 
BRANCH  30  31
ATOM     31  C   UNL     1     -39.354  25.799   1.321  0.00  0.00    +0.129 C 
BRANCH  31  32
ATOM     32  N   UNL     1     -37.966  26.256   1.215  0.00  0.00    -0.240 NA
BRANCH  32  35
ATOM     33  N   UNL     1     -36.345  27.547   2.432  0.00  0.00    -0.370 N 
ATOM     34  N   UNL     1     -37.869  26.255   3.531  0.00  0.00    -0.370 N 
ATOM     35  C   UNL     1     -37.406  26.678   2.307  0.00  0.00    +0.189 C 
ATOM     36  H   UNL     1     -35.921  27.925   1.628  0.00  0.00    +0.159 HD
ATOM     37  H   UNL     1     -36.012  27.790   3.326  0.00  0.00    +0.159 HD
ATOM     38  H   UNL     1     -38.627  25.629   3.582  0.00  0.00    +0.159 HD
ATOM     39  H   UNL     1     -37.440  26.577   4.357  0.00  0.00    +0.159 HD
ENDBRANCH  32  35
ENDBRANCH  31  32
ENDBRANCH  30  31
ENDBRANCH  29  30
ENDBRANCH  24  29
ENDBRANCH   2  24
TORSDOF 13
ENDMDL
MODEL 6
REMARK VINA RESULT:      -5.8      2.028      2.704
REMARK  Name = 5311176
REMARK  13 active torsions:
REMARK  status: ('A' for Active; 'I' for Inactive)
REMARK    1  A    between atoms: N_2  and  C_24
REMARK    2  A    between atoms: C_3  and  C_7
REMARK    3  A    between atoms: C_11  and  C_12
REMARK    4  A    between atoms: C_12  and  N_13
REMARK    5  A    between atoms: C_12  and  C_17
REMARK    6  A    between atoms: C_17  and  C_18
REMARK    7  A    between atoms: C_24  and  C_26
REMARK    8  A    between atoms: C_24  and  C_29
REMARK    9  A    between atoms: C_26  and  C_28
REMARK   10  A    between atoms: C_29  and  C_30
REMARK   11  A    between atoms: C_30  and  C_31
REMARK   12  A    between atoms: C_31  and  N_32
REMARK   13  A    between atoms: N_32  and  C_35
REMARK                            x       y       z     vdW  Elec       q    Type
REMARK                         _______ _______ _______ _____ _____    ______ ____
ROOT
ATOM      1  O   UNL     1     -38.027  25.247   1.719  0.00  0.00    -0.273 OA
ATOM      2  N   UNL     1     -37.595  24.217   3.762  0.00  0.00    -0.298 N 
ATOM      3  C   UNL     1     -38.388  24.573   2.680  0.00  0.00    +0.241 C 
ATOM      4  H   UNL     1     -37.997  23.672   4.476  0.00  0.00    +0.150 HD
ENDROOT
BRANCH   3   7
ATOM      5  O   UNL     1     -40.743  26.641   3.444  0.00  0.00    -0.277 OA
ATOM      6  N   UNL     1     -40.638  24.865   1.965  0.00  0.00    -0.275 N 
ATOM      7  C   UNL     1     -39.777  24.018   2.781  0.00  0.00    +0.152 C 
ATOM      8  C   UNL     1     -39.881  22.635   2.149  0.00  0.00    +0.031 C 
ATOM      9  C   UNL     1     -40.167  22.937   0.680  0.00  0.00    +0.024 C 
ATOM     10  C   UNL     1     -41.045  24.178   0.742  0.00  0.00    +0.094 C 
ATOM     11  C   UNL     1     -41.111  26.091   2.405  0.00  0.00    +0.206 C 
BRANCH  11  12
ATOM     12  C   UNL     1     -42.128  26.754   1.511  0.00  0.00    +0.018 C 
BRANCH  12  13
ATOM     13  N   UNL     1     -41.395  27.788   0.793  0.00  0.00    +0.388 N 
ATOM     14  H   UNL     1     -40.814  28.310   1.450  0.00  0.00    -0.089 HD
ATOM     15  H   UNL     1     -42.055  28.423   0.344  0.00  0.00    -0.089 HD
ATOM     16  H   UNL     1     -40.802  27.356   0.084  0.00  0.00    -0.089 HD
ENDBRANCH  12  13
BRANCH  12  17
ATOM     17  C   UNL     1     -43.274  27.352   2.328  0.00  0.00    +0.013 C 
BRANCH  17  18
ATOM     18  C   UNL     1     -44.362  26.347   2.627  0.00  0.00    -0.024 C 
ATOM     19  C   UNL     1     -45.075  26.425   3.823  0.00  0.00    -0.004 C 
ATOM     20  C   UNL     1     -44.656  25.340   1.705  0.00  0.00    -0.004 C 
ATOM     21  C   UNL     1     -46.079  25.497   4.100  0.00  0.00    -0.000 C 
ATOM     22  C   UNL     1     -45.659  24.413   1.981  0.00  0.00    -0.000 C 
ATOM     23  C   UNL     1     -46.371  24.491   3.178  0.00  0.00    -0.000 C 
ENDBRANCH  17  18
ENDBRANCH  12  17
ENDBRANCH  11  12
ENDBRANCH   3   7
BRANCH   2  24
ATOM     24  C   UNL     1     -36.215  24.604   3.894  0.00  0.00    +0.131 C 
BRANCH  24  26
ATOM     25  O   UNL     1     -35.243  22.502   3.239  0.00  0.00    -0.293 OA
ATOM     26  C   UNL     1     -35.422  23.326   4.136  0.00  0.00    +0.185 C 
BRANCH  26  28
ATOM     27 CL   UNL     1     -35.625  21.834   6.385  0.00  0.00    -0.105 Cl
ATOM     28  C   UNL     1     -34.843  23.170   5.526  0.00  0.00    +0.161 C 
ENDBRANCH  26  28
ENDBRANCH  24  26
BRANCH  24  29
ATOM     29  C   UNL     1     -35.986  25.593   5.037  0.00  0.00    +0.029 C 
BRANCH  29  30
ATOM     30  C   UNL     1     -35.084  26.761   4.622  0.00  0.00    +0.029 C 
BRANCH  30  31
ATOM     31  C   UNL     1     -33.610  26.487   4.904  0.00  0.00    +0.129 C 
BRANCH  31  32
ATOM     32  N   UNL     1     -32.930  27.737   5.247  0.00  0.00    -0.240 NA
BRANCH  32  35
ATOM     33  N   UNL     1     -32.659  27.048   7.532  0.00  0.00    -0.370 N 
ATOM     34  N   UNL     1     -31.329  28.671   6.639  0.00  0.00    -0.370 N 
ATOM     35  C   UNL     1     -32.362  27.792   6.412  0.00  0.00    +0.189 C 
ATOM     36  H   UNL     1     -33.380  26.379   7.502  0.00  0.00    +0.159 HD
ATOM     37  H   UNL     1     -32.148  27.185   8.363  0.00  0.00    +0.159 HD
ATOM     38  H   UNL     1     -31.018  29.263   5.917  0.00  0.00    +0.159 HD
ATOM     39  H   UNL     1     -30.901  28.709   7.525  0.00  0.00    +0.159 HD
ENDBRANCH  32  35
ENDBRANCH  31  32
ENDBRANCH  30  31
ENDBRANCH  29  30
ENDBRANCH  24  29
ENDBRANCH   2  24
TORSDOF 13
ENDMDL
MODEL 7
REMARK VINA RESULT:      -5.7      4.820      7.672
REMARK  Name = 5311176
REMARK  13 active torsions:
REMARK  status: ('A' for Active; 'I' for Inactive)
REMARK    1  A    between atoms: N_2  and  C_24
REMARK    2  A    between atoms: C_3  and  C_7
REMARK    3  A    between atoms: C_11  and  C_12
REMARK    4  A    between atoms: C_12  and  N_13
REMARK    5  A    between atoms: C_12  and  C_17
REMARK    6  A    between atoms: C_17  and  C_18
REMARK    7  A    between atoms: C_24  and  C_26
REMARK    8  A    between atoms: C_24  and  C_29
REMARK    9  A    between atoms: C_26  and  C_28
REMARK   10  A    between atoms: C_29  and  C_30
REMARK   11  A    between atoms: C_30  and  C_31
REMARK   12  A    between atoms: C_31  and  N_32
REMARK   13  A    between atoms: N_32  and  C_35
REMARK                            x       y       z     vdW  Elec       q    Type
REMARK                         _______ _______ _______ _____ _____    ______ ____
ROOT
ATOM      1  O   UNL     1     -34.675  26.880   5.087  0.00  0.00    -0.273 OA
ATOM      2  N   UNL     1     -35.772  25.681   3.420  0.00  0.00    -0.298 N 
ATOM      3  C   UNL     1     -34.851  26.598   3.905  0.00  0.00    +0.241 C 
ATOM      4  H   UNL     1     -35.822  25.538   2.447  0.00  0.00    +0.150 HD
ENDROOT
BRANCH   3   7
ATOM      5  O   UNL     1     -36.416  28.467   1.792  0.00  0.00    -0.277 OA
ATOM      6  N   UNL     1     -34.345  28.648   2.808  0.00  0.00    -0.275 N 
ATOM      7  C   UNL     1     -34.036  27.223   2.812  0.00  0.00    +0.152 C 
ATOM      8  C   UNL     1     -32.543  27.151   3.108  0.00  0.00    +0.031 C 
ATOM      9  C   UNL     1     -32.286  28.403   3.943  0.00  0.00    +0.024 C 
ATOM     10  C   UNL     1     -33.229  29.430   3.335  0.00  0.00    +0.094 C 
ATOM     11  C   UNL     1     -35.494  29.160   2.226  0.00  0.00    +0.206 C 
BRANCH  11  12
ATOM     12  C   UNL     1     -35.572  30.663   2.155  0.00  0.00    +0.018 C 
BRANCH  12  13
ATOM     13  N   UNL     1     -35.783  31.103   3.528  0.00  0.00    +0.388 N 
ATOM     14  H   UNL     1     -35.270  31.969   3.689  0.00  0.00    -0.089 HD
ATOM     15  H   UNL     1     -35.450  30.385   4.170  0.00  0.00    -0.089 HD
ATOM     16  H   UNL     1     -36.779  31.264   3.684  0.00  0.00    -0.089 HD
ENDBRANCH  12  13
BRANCH  12  17
ATOM     17  C   UNL     1     -36.715  31.114   1.246  0.00  0.00    +0.013 C 
BRANCH  17  18
ATOM     18  C   UNL     1     -37.004  32.593   1.363  0.00  0.00    -0.024 C 
ATOM     19  C   UNL     1     -36.027  33.525   1.013  0.00  0.00    -0.004 C 
ATOM     20  C   UNL     1     -38.248  33.027   1.821  0.00  0.00    -0.004 C 
ATOM     21  C   UNL     1     -36.293  34.890   1.122  0.00  0.00    -0.000 C 
ATOM     22  C   UNL     1     -38.515  34.391   1.930  0.00  0.00    -0.000 C 
ATOM     23  C   UNL     1     -37.537  35.323   1.580  0.00  0.00    -0.000 C 
ENDBRANCH  17  18
ENDBRANCH  12  17
ENDBRANCH  11  12
ENDBRANCH   3   7
BRANCH   2  24
ATOM     24  C   UNL     1     -36.660  24.926   4.265  0.00  0.00    +0.131 C 
BRANCH  24  26
ATOM     25  O   UNL     1     -36.292  22.651   3.574  0.00  0.00    -0.293 OA
ATOM     26  C   UNL     1     -36.058  23.533   4.400  0.00  0.00    +0.185 C 
BRANCH  26  28
ATOM     27 CL   UNL     1     -35.471  21.793   6.389  0.00  0.00    -0.105 Cl
ATOM     28  C   UNL     1     -35.133  23.332   5.582  0.00  0.00    +0.161 C 
ENDBRANCH  26  28
ENDBRANCH  24  26
BRANCH  24  29
ATOM     29  C   UNL     1     -38.078  24.838   3.702  0.00  0.00    +0.029 C 
BRANCH  29  30
ATOM     30  C   UNL     1     -38.141  25.239   2.223  0.00  0.00    +0.029 C 
BRANCH  30  31
ATOM     31  C   UNL     1     -38.660  24.112   1.336  0.00  0.00    +0.129 C 
BRANCH  31  32
ATOM     32  N   UNL     1     -39.545  23.239   2.110  0.00  0.00    -0.240 NA
BRANCH  32  35
ATOM     33  N   UNL     1     -40.460  21.329   0.977  0.00  0.00    -0.370 N 
ATOM     34  N   UNL     1     -38.584  21.135   2.258  0.00  0.00    -0.370 N 
ATOM     35  C   UNL     1     -39.557  21.984   1.784  0.00  0.00    +0.189 C 
ATOM     36  H   UNL     1     -41.207  21.824   0.571  0.00  0.00    +0.159 HD
ATOM     37  H   UNL     1     -40.357  20.365   0.805  0.00  0.00    +0.159 HD
ATOM     38  H   UNL     1     -37.875  21.479   2.849  0.00  0.00    +0.159 HD
ATOM     39  H   UNL     1     -38.597  20.183   2.008  0.00  0.00    +0.159 HD
ENDBRANCH  32  35
ENDBRANCH  31  32
ENDBRANCH  30  31
ENDBRANCH  29  30
ENDBRANCH  24  29
ENDBRANCH   2  24
TORSDOF 13
ENDMDL
MODEL 8
REMARK VINA RESULT:      -5.6      4.840      6.916
REMARK  Name = 5311176
REMARK  13 active torsions:
REMARK  status: ('A' for Active; 'I' for Inactive)
REMARK    1  A    between atoms: N_2  and  C_24
REMARK    2  A    between atoms: C_3  and  C_7
REMARK    3  A    between atoms: C_11  and  C_12
REMARK    4  A    between atoms: C_12  and  N_13
REMARK    5  A    between atoms: C_12  and  C_17
REMARK    6  A    between atoms: C_17  and  C_18
REMARK    7  A    between atoms: C_24  and  C_26
REMARK    8  A    between atoms: C_24  and  C_29
REMARK    9  A    between atoms: C_26  and  C_28
REMARK   10  A    between atoms: C_29  and  C_30
REMARK   11  A    between atoms: C_30  and  C_31
REMARK   12  A    between atoms: C_31  and  N_32
REMARK   13  A    between atoms: N_32  and  C_35
REMARK                            x       y       z     vdW  Elec       q    Type
REMARK                         _______ _______ _______ _____ _____    ______ ____
ROOT
ATOM      1  O   UNL     1     -35.701  25.262   0.938  0.00  0.00    -0.273 OA
ATOM      2  N   UNL     1     -35.811  25.563   3.244  0.00  0.00    -0.298 N 
ATOM      3  C   UNL     1     -36.071  25.896   1.923  0.00  0.00    +0.241 C 
ATOM      4  H   UNL     1     -36.161  26.151   3.952  0.00  0.00    +0.150 HD
ENDROOT
BRANCH   3   7
ATOM      5  O   UNL     1     -34.940  28.566   3.336  0.00  0.00    -0.277 OA
ATOM      6  N   UNL     1     -36.020  28.198   1.323  0.00  0.00    -0.275 N 
ATOM      7  C   UNL     1     -36.901  27.138   1.798  0.00  0.00    +0.152 C 
ATOM      8  C   UNL     1     -37.963  27.002   0.713  0.00  0.00    +0.031 C 
ATOM      9  C   UNL     1     -37.231  27.429  -0.557  0.00  0.00    +0.024 C 
ATOM     10  C   UNL     1     -36.302  28.531  -0.071  0.00  0.00    +0.094 C 
ATOM     11  C   UNL     1     -35.153  28.878   2.163  0.00  0.00    +0.206 C 
BRANCH  11  12
ATOM     12  C   UNL     1     -34.445  30.058   1.547  0.00  0.00    +0.018 C 
BRANCH  12  13
ATOM     13  N   UNL     1     -33.044  29.665   1.461  0.00  0.00    +0.388 N 
ATOM     14  H   UNL     1     -32.457  30.431   1.791  0.00  0.00    -0.089 HD
ATOM     15  H   UNL     1     -32.811  29.450   0.492  0.00  0.00    -0.089 HD
ATOM     16  H   UNL     1     -32.886  28.840   2.040  0.00  0.00    -0.089 HD
ENDBRANCH  12  13
BRANCH  12  17
ATOM     17  C   UNL     1     -34.617  31.313   2.404  0.00  0.00    +0.013 C 
BRANCH  17  18
ATOM     18  C   UNL     1     -35.650  32.263   1.844  0.00  0.00    -0.024 C 
ATOM     19  C   UNL     1     -35.247  33.437   1.209  0.00  0.00    -0.004 C 
ATOM     20  C   UNL     1     -37.009  31.966   1.963  0.00  0.00    -0.004 C 
ATOM     21  C   UNL     1     -36.201  34.315   0.693  0.00  0.00    -0.000 C 
ATOM     22  C   UNL     1     -37.963  32.842   1.448  0.00  0.00    -0.000 C 
ATOM     23  C   UNL     1     -37.559  34.017   0.812  0.00  0.00    -0.000 C 
ENDBRANCH  17  18
ENDBRANCH  12  17
ENDBRANCH  11  12
ENDBRANCH   3   7
BRANCH   2  24
ATOM     24  C   UNL     1     -35.054  24.403   3.635  0.00  0.00    +0.131 C 
BRANCH  24  26
ATOM     25  O   UNL     1     -37.272  23.564   4.050  0.00  0.00    -0.293 OA
ATOM     26  C   UNL     1     -36.059  23.371   4.132  0.00  0.00    +0.185 C 
BRANCH  26  28
ATOM     27 CL   UNL     1     -35.616  22.039   6.447  0.00  0.00    -0.105 Cl
ATOM     28  C   UNL     1     -35.464  22.093   4.684  0.00  0.00    +0.161 C 
ENDBRANCH  26  28
ENDBRANCH  24  26
BRANCH  24  29
ATOM     29  C   UNL     1     -34.027  24.708   4.724  0.00  0.00    +0.029 C 
BRANCH  29  30
ATOM     30  C   UNL     1     -34.548  25.727   5.745  0.00  0.00    +0.029 C 
BRANCH  30  31
ATOM     31  C   UNL     1     -33.423  26.507   6.417  0.00  0.00    +0.129 C 
BRANCH  31  32
ATOM     32  N   UNL     1     -32.596  27.159   5.399  0.00  0.00    -0.240 NA
BRANCH  32  35
ATOM     33  N   UNL     1     -32.465  29.524   4.993  0.00  0.00    -0.370 N 
ATOM     34  N   UNL     1     -31.343  28.577   6.738  0.00  0.00    -0.370 N 
ATOM     35  C   UNL     1     -32.178  28.357   5.667  0.00  0.00    +0.189 C 
ATOM     36  H   UNL     1     -33.054  29.505   4.205  0.00  0.00    +0.159 HD
ATOM     37  H   UNL     1     -32.082  30.377   5.301  0.00  0.00    +0.159 HD
ATOM     38  H   UNL     1     -31.060  27.823   7.305  0.00  0.00    +0.159 HD
ATOM     39  H   UNL     1     -31.028  29.488   6.938  0.00  0.00    +0.159 HD
ENDBRANCH  32  35
ENDBRANCH  31  32
ENDBRANCH  30  31
ENDBRANCH  29  30
ENDBRANCH  24  29
ENDBRANCH   2  24
TORSDOF 13
ENDMDL
MODEL 9
REMARK VINA RESULT:      -5.6      5.442      8.026
REMARK  Name = 5311176
REMARK  13 active torsions:
REMARK  status: ('A' for Active; 'I' for Inactive)
REMARK    1  A    between atoms: N_2  and  C_24
REMARK    2  A    between atoms: C_3  and  C_7
REMARK    3  A    between atoms: C_11  and  C_12
REMARK    4  A    between atoms: C_12  and  N_13
REMARK    5  A    between atoms: C_12  and  C_17
REMARK    6  A    between atoms: C_17  and  C_18
REMARK    7  A    between atoms: C_24  and  C_26
REMARK    8  A    between atoms: C_24  and  C_29
REMARK    9  A    between atoms: C_26  and  C_28
REMARK   10  A    between atoms: C_29  and  C_30
REMARK   11  A    between atoms: C_30  and  C_31
REMARK   12  A    between atoms: C_31  and  N_32
REMARK   13  A    between atoms: N_32  and  C_35
REMARK                            x       y       z     vdW  Elec       q    Type
REMARK                         _______ _______ _______ _____ _____    ______ ____
ROOT
ATOM      1  O   UNL     1     -32.271  28.135   1.755  0.00  0.00    -0.273 OA
ATOM      2  N   UNL     1     -31.539  27.516   3.876  0.00  0.00    -0.298 N 
ATOM      3  C   UNL     1     -32.115  27.292   2.634  0.00  0.00    +0.241 C 
ATOM      4  H   UNL     1     -31.468  26.758   4.502  0.00  0.00    +0.150 HD
ENDROOT
BRANCH   3   7
ATOM      5  O   UNL     1     -33.554  25.830   5.123  0.00  0.00    -0.277 OA
ATOM      6  N   UNL     1     -33.923  25.759   2.840  0.00  0.00    -0.275 N 
ATOM      7  C   UNL     1     -32.524  25.863   2.442  0.00  0.00    +0.152 C 
ATOM      8  C   UNL     1     -32.509  25.463   0.971  0.00  0.00    +0.031 C 
ATOM      9  C   UNL     1     -33.896  25.870   0.478  0.00  0.00    +0.024 C 
ATOM     10  C   UNL     1     -34.790  25.589   1.677  0.00  0.00    +0.094 C 
ATOM     11  C   UNL     1     -34.316  25.679   4.167  0.00  0.00    +0.206 C 
BRANCH  11  12
ATOM     12  C   UNL     1     -35.779  25.400   4.394  0.00  0.00    +0.018 C 
BRANCH  12  13
ATOM     13  N   UNL     1     -36.235  26.446   5.300  0.00  0.00    +0.388 N 
ATOM     14  H   UNL     1     -36.355  27.316   4.781  0.00  0.00    -0.089 HD
ATOM     15  H   UNL     1     -35.543  26.583   6.037  0.00  0.00    -0.089 HD
ATOM     16  H   UNL     1     -37.125  26.172   5.716  0.00  0.00    -0.089 HD
ENDBRANCH  12  13
BRANCH  12  17
ATOM     17  C   UNL     1     -35.988  24.012   5.001  0.00  0.00    +0.013 C 
BRANCH  17  18
ATOM     18  C   UNL     1     -36.210  22.946   3.953  0.00  0.00    -0.024 C 
ATOM     19  C   UNL     1     -35.355  21.846   3.885  0.00  0.00    -0.004 C 
ATOM     20  C   UNL     1     -37.270  23.061   3.054  0.00  0.00    -0.004 C 
ATOM     21  C   UNL     1     -35.559  20.862   2.918  0.00  0.00    -0.000 C 
ATOM     22  C   UNL     1     -37.475  22.078   2.086  0.00  0.00    -0.000 C 
ATOM     23  C   UNL     1     -36.620  20.978   2.019  0.00  0.00    -0.000 C 
ENDBRANCH  17  18
ENDBRANCH  12  17
ENDBRANCH  11  12
ENDBRANCH   3   7
BRANCH   2  24
ATOM     24  C   UNL     1     -31.041  28.798   4.300  0.00  0.00    +0.131 C 
BRANCH  24  26
ATOM     25  O   UNL     1     -29.089  27.552   4.955  0.00  0.00    -0.293 OA
ATOM     26  C   UNL     1     -29.551  28.625   4.565  0.00  0.00    +0.185 C 
BRANCH  26  28
ATOM     27 CL   UNL     1     -28.424  30.784   5.745  0.00  0.00    -0.105 Cl
ATOM     28  C   UNL     1     -28.690  29.836   4.274  0.00  0.00    +0.161 C 
ENDBRANCH  26  28
ENDBRANCH  24  26
BRANCH  24  29
ATOM     29  C   UNL     1     -31.744  29.320   5.553  0.00  0.00    +0.029 C 
BRANCH  29  30
ATOM     30  C   UNL     1     -32.176  30.784   5.409  0.00  0.00    +0.029 C 
BRANCH  30  31
ATOM     31  C   UNL     1     -32.653  31.114   3.999  0.00  0.00    +0.129 C 
BRANCH  31  32
ATOM     32  N   UNL     1     -34.100  30.910   3.905  0.00  0.00    -0.240 NA
BRANCH  32  35
ATOM     33  N   UNL     1     -35.281  29.010   3.029  0.00  0.00    -0.370 N 
ATOM     34  N   UNL     1     -34.216  30.465   1.633  0.00  0.00    -0.370 N 
ATOM     35  C   UNL     1     -34.521  30.155   2.938  0.00  0.00    +0.189 C 
ATOM     36  H   UNL     1     -35.568  28.678   3.910  0.00  0.00    +0.159 HD
ATOM     37  H   UNL     1     -35.538  28.524   2.211  0.00  0.00    +0.159 HD
ATOM     38  H   UNL     1     -33.676  31.263   1.429  0.00  0.00    +0.159 HD
ATOM     39  H   UNL     1     -34.538  29.889   0.902  0.00  0.00    +0.159 HD
ENDBRANCH  32  35
ENDBRANCH  31  32
ENDBRANCH  30  31
ENDBRANCH  29  30
ENDBRANCH  24  29
ENDBRANCH   2  24
TORSDOF 13
ENDMDL
