MODEL 1
REMARK VINA RESULT:      -5.6      0.000      0.000
REMARK  Name = 5486198
REMARK  1 active torsions:
REMARK  status: ('A' for Active; 'I' for Inactive)
REMARK    1  A    between atoms: C_9  and  N_19
REMARK                            x       y       z     vdW  Elec       q    Type
REMARK                         _______ _______ _______ _____ _____    ______ ____
ROOT
ATOM      1 CL   UNL     1     -41.168  24.257   0.692  0.00  0.00    -0.080 Cl
ATOM      2 CL   UNL     1     -39.901  21.326   0.872  0.00  0.00    -0.081 Cl
ATOM      3  O   UNL     1     -35.882  26.449   5.462  0.00  0.00    -0.262 OA
ATOM      4  O   UNL     1     -34.860  24.009   5.587  0.00  0.00    -0.262 OA
ATOM      5  N   UNL     1     -37.517  25.756   3.984  0.00  0.00    -0.315 N 
ATOM      6  N   UNL     1     -36.447  23.202   4.114  0.00  0.00    -0.316 N 
ATOM      7  C   UNL     1     -38.100  24.724   3.239  0.00  0.00    +0.098 A 
ATOM      8  C   UNL     1     -37.562  23.442   3.304  0.00  0.00    +0.077 A 
ATOM      9  C   UNL     1     -39.211  24.981   2.435  0.00  0.00    +0.171 C 
ATOM     10  C   UNL     1     -38.131  22.402   2.566  0.00  0.00    +0.031 C 
ATOM     11  C   UNL     1     -39.782  23.943   1.697  0.00  0.00    +0.092 C 
ATOM     12  C   UNL     1     -39.243  22.657   1.762  0.00  0.00    +0.071 C 
ATOM     13  C   UNL     1     -36.419  25.572   4.795  0.00  0.00    +0.314 A 
ATOM     14  C   UNL     1     -35.836  24.181   4.866  0.00  0.00    +0.314 A 
ATOM     15  H   UNL     1     -37.911  26.656   3.924  0.00  0.00    +0.169 HD
ATOM     16  H   UNL     1     -36.081  22.288   4.148  0.00  0.00    +0.169 HD
ENDROOT
BRANCH   9  19
ATOM     17  O   UNL     1     -40.644  26.619   3.197  0.00  0.00    -0.126 OA
ATOM     18  O   UNL     1     -39.344  27.080   1.488  0.00  0.00    -0.126 OA
ATOM     19  N   UNL     1     -39.763  26.297   2.370  0.00  0.00    +0.060 N 
ENDBRANCH   9  19
TORSDOF 1
ENDMDL
MODEL 2
REMARK VINA RESULT:      -5.5      2.604      4.578
REMARK  Name = 5486198
REMARK  1 active torsions:
REMARK  status: ('A' for Active; 'I' for Inactive)
REMARK    1  A    between atoms: C_9  and  N_19
REMARK                            x       y       z     vdW  Elec       q    Type
REMARK                         _______ _______ _______ _____ _____    ______ ____
ROOT
ATOM      1 CL   UNL     1     -34.165  23.792   4.960  0.00  0.00    -0.080 Cl
ATOM      2 CL   UNL     1     -35.201  21.116   3.548  0.00  0.00    -0.081 Cl
ATOM      3  O   UNL     1     -40.535  26.984   2.784  0.00  0.00    -0.262 OA
ATOM      4  O   UNL     1     -41.361  24.750   1.626  0.00  0.00    -0.262 OA
ATOM      5  N   UNL     1     -38.562  25.982   3.452  0.00  0.00    -0.315 N 
ATOM      6  N   UNL     1     -39.427  23.644   2.240  0.00  0.00    -0.316 N 
ATOM      7  C   UNL     1     -37.748  24.844   3.487  0.00  0.00    +0.098 A 
ATOM      8  C   UNL     1     -38.183  23.670   2.879  0.00  0.00    +0.077 A 
ATOM      9  C   UNL     1     -36.511  24.887   4.130  0.00  0.00    +0.171 C 
ATOM     10  C   UNL     1     -37.383  22.526   2.907  0.00  0.00    +0.031 C 
ATOM     11  C   UNL     1     -35.710  23.745   4.159  0.00  0.00    +0.092 C 
ATOM     12  C   UNL     1     -36.145  22.567   3.549  0.00  0.00    +0.071 C 
ATOM     13  C   UNL     1     -39.795  26.009   2.837  0.00  0.00    +0.314 A 
ATOM     14  C   UNL     1     -40.266  24.735   2.177  0.00  0.00    +0.314 A 
ATOM     15  H   UNL     1     -38.239  26.803   3.888  0.00  0.00    +0.169 HD
ATOM     16  H   UNL     1     -39.718  22.804   1.815  0.00  0.00    +0.169 HD
ENDROOT
BRANCH   9  19
ATOM     17  O   UNL     1     -36.148  26.190   5.998  0.00  0.00    -0.126 OA
ATOM     18  O   UNL     1     -35.607  27.007   4.033  0.00  0.00    -0.126 OA
ATOM     19  N   UNL     1     -36.065  26.093   4.754  0.00  0.00    +0.060 N 
ENDBRANCH   9  19
TORSDOF 1
ENDMDL
MODEL 3
REMARK VINA RESULT:      -5.5      3.350      5.613
REMARK  Name = 5486198
REMARK  1 active torsions:
REMARK  status: ('A' for Active; 'I' for Inactive)
REMARK    1  A    between atoms: C_9  and  N_19
REMARK                            x       y       z     vdW  Elec       q    Type
REMARK                         _______ _______ _______ _____ _____    ______ ____
ROOT
ATOM      1 CL   UNL     1     -34.142  24.890   4.808  0.00  0.00    -0.080 Cl
ATOM      2 CL   UNL     1     -35.172  27.502   3.276  0.00  0.00    -0.081 Cl
ATOM      3  O   UNL     1     -40.156  21.391   2.146  0.00  0.00    -0.262 OA
ATOM      4  O   UNL     1     -40.978  23.573   0.891  0.00  0.00    -0.262 OA
ATOM      5  N   UNL     1     -38.296  22.488   2.966  0.00  0.00    -0.315 N 
ATOM      6  N   UNL     1     -39.156  24.772   1.652  0.00  0.00    -0.316 N 
ATOM      7  C   UNL     1     -37.539  23.663   3.056  0.00  0.00    +0.098 A 
ATOM      8  C   UNL     1     -37.971  24.809   2.395  0.00  0.00    +0.077 A 
ATOM      9  C   UNL     1     -36.360  23.682   3.801  0.00  0.00    +0.171 C 
ATOM     10  C   UNL     1     -37.228  25.988   2.474  0.00  0.00    +0.031 C 
ATOM     11  C   UNL     1     -35.615  24.859   3.881  0.00  0.00    +0.092 C 
ATOM     12  C   UNL     1     -36.048  26.010   3.218  0.00  0.00    +0.071 C 
ATOM     13  C   UNL     1     -39.468  22.399   2.247  0.00  0.00    +0.314 A 
ATOM     14  C   UNL     1     -39.936  23.643   1.531  0.00  0.00    +0.314 A 
ATOM     15  H   UNL     1     -37.974  21.687   3.439  0.00  0.00    +0.169 HD
ATOM     16  H   UNL     1     -39.446  25.593   1.192  0.00  0.00    +0.169 HD
ENDROOT
BRANCH   9  19
ATOM     17  O   UNL     1     -36.048  22.445   5.721  0.00  0.00    -0.126 OA
ATOM     18  O   UNL     1     -35.418  21.577   3.806  0.00  0.00    -0.126 OA
ATOM     19  N   UNL     1     -35.918  22.505   4.479  0.00  0.00    +0.060 N 
ENDBRANCH   9  19
TORSDOF 1
ENDMDL
MODEL 4
REMARK VINA RESULT:      -5.3      2.426      3.394
REMARK  Name = 5486198
REMARK  1 active torsions:
REMARK  status: ('A' for Active; 'I' for Inactive)
REMARK    1  A    between atoms: C_9  and  N_19
REMARK                            x       y       z     vdW  Elec       q    Type
REMARK                         _______ _______ _______ _____ _____    ______ ____
ROOT
ATOM      1 CL   UNL     1     -41.382  23.776   0.416  0.00  0.00    -0.080 Cl
ATOM      2 CL   UNL     1     -41.125  26.796   1.439  0.00  0.00    -0.081 Cl
ATOM      3  O   UNL     1     -35.523  22.188   4.734  0.00  0.00    -0.262 OA
ATOM      4  O   UNL     1     -35.340  24.698   5.560  0.00  0.00    -0.262 OA
ATOM      5  N   UNL     1     -37.339  22.695   3.398  0.00  0.00    -0.315 N 
ATOM      6  N   UNL     1     -37.148  25.322   4.263  0.00  0.00    -0.316 N 
ATOM      7  C   UNL     1     -38.246  23.647   2.919  0.00  0.00    +0.098 A 
ATOM      8  C   UNL     1     -38.150  24.966   3.354  0.00  0.00    +0.077 A 
ATOM      9  C   UNL     1     -39.240  23.275   2.014  0.00  0.00    +0.171 C 
ATOM     10  C   UNL     1     -39.048  25.927   2.886  0.00  0.00    +0.031 C 
ATOM     11  C   UNL     1     -40.138  24.234   1.545  0.00  0.00    +0.092 C 
ATOM     12  C   UNL     1     -40.043  25.558   1.981  0.00  0.00    +0.071 C 
ATOM     13  C   UNL     1     -36.335  22.993   4.294  0.00  0.00    +0.314 A 
ATOM     14  C   UNL     1     -36.231  24.424   4.765  0.00  0.00    +0.314 A 
ATOM     15  H   UNL     1     -37.423  21.767   3.080  0.00  0.00    +0.169 HD
ATOM     16  H   UNL     1     -37.096  26.259   4.559  0.00  0.00    +0.169 HD
ENDROOT
BRANCH   9  19
ATOM     17  O   UNL     1     -38.616  21.551   0.615  0.00  0.00    -0.126 OA
ATOM     18  O   UNL     1     -40.139  21.155   2.146  0.00  0.00    -0.126 OA
ATOM     19  N   UNL     1     -39.337  21.921   1.567  0.00  0.00    +0.060 N 
ENDBRANCH   9  19
TORSDOF 1
ENDMDL
MODEL 5
REMARK VINA RESULT:      -5.2      2.385      4.232
REMARK  Name = 5486198
REMARK  1 active torsions:
REMARK  status: ('A' for Active; 'I' for Inactive)
REMARK    1  A    between atoms: C_9  and  N_19
REMARK                            x       y       z     vdW  Elec       q    Type
REMARK                         _______ _______ _______ _____ _____    ______ ____
ROOT
ATOM      1 CL   UNL     1     -37.350  19.799   0.362  0.00  0.00    -0.080 Cl
ATOM      2 CL   UNL     1     -40.071  21.389   0.911  0.00  0.00    -0.081 Cl
ATOM      3  O   UNL     1     -34.028  24.595   4.994  0.00  0.00    -0.262 OA
ATOM      4  O   UNL     1     -36.299  25.887   5.425  0.00  0.00    -0.262 OA
ATOM      5  N   UNL     1     -35.071  23.115   3.558  0.00  0.00    -0.315 N 
ATOM      6  N   UNL     1     -37.448  24.468   4.010  0.00  0.00    -0.316 N 
ATOM      7  C   UNL     1     -36.241  22.688   2.919  0.00  0.00    +0.098 A 
ATOM      8  C   UNL     1     -37.434  23.367   3.147  0.00  0.00    +0.077 A 
ATOM      9  C   UNL     1     -36.209  21.587   2.062  0.00  0.00    +0.171 C 
ATOM     10  C   UNL     1     -38.609  22.952   2.517  0.00  0.00    +0.031 C 
ATOM     11  C   UNL     1     -37.382  21.172   1.432  0.00  0.00    +0.092 C 
ATOM     12  C   UNL     1     -38.581  21.853   1.660  0.00  0.00    +0.071 C 
ATOM     13  C   UNL     1     -35.031  24.191   4.418  0.00  0.00    +0.314 A 
ATOM     14  C   UNL     1     -36.326  24.928   4.664  0.00  0.00    +0.314 A 
ATOM     15  H   UNL     1     -34.236  22.622   3.386  0.00  0.00    +0.169 HD
ATOM     16  H   UNL     1     -38.302  24.935   4.159  0.00  0.00    +0.169 HD
ENDROOT
BRANCH   9  19
ATOM     17  O   UNL     1     -34.695  19.922   2.564  0.00  0.00    -0.126 OA
ATOM     18  O   UNL     1     -34.243  21.277   0.896  0.00  0.00    -0.126 OA
ATOM     19  N   UNL     1     -34.983  20.892   1.829  0.00  0.00    +0.060 N 
ENDBRANCH   9  19
TORSDOF 1
ENDMDL
MODEL 6
REMARK VINA RESULT:      -5.1      2.367      3.882
REMARK  Name = 5486198
REMARK  1 active torsions:
REMARK  status: ('A' for Active; 'I' for Inactive)
REMARK    1  A    between atoms: C_9  and  N_19
REMARK                            x       y       z     vdW  Elec       q    Type
REMARK                         _______ _______ _______ _____ _____    ______ ____
ROOT
ATOM      1 CL   UNL     1     -38.404  20.894   0.855  0.00  0.00    -0.080 Cl
ATOM      2 CL   UNL     1     -40.532  23.199   1.480  0.00  0.00    -0.081 Cl
ATOM      3  O   UNL     1     -33.572  24.709   5.051  0.00  0.00    -0.262 OA
ATOM      4  O   UNL     1     -35.360  26.598   5.547  0.00  0.00    -0.262 OA
ATOM      5  N   UNL     1     -35.080  23.536   3.751  0.00  0.00    -0.315 N 
ATOM      6  N   UNL     1     -36.952  25.514   4.270  0.00  0.00    -0.316 N 
ATOM      7  C   UNL     1     -36.364  23.434   3.201  0.00  0.00    +0.098 A 
ATOM      8  C   UNL     1     -37.303  24.427   3.462  0.00  0.00    +0.077 A 
ATOM      9  C   UNL     1     -36.697  22.343   2.398  0.00  0.00    +0.171 C 
ATOM     10  C   UNL     1     -38.587  24.340   2.922  0.00  0.00    +0.031 C 
ATOM     11  C   UNL     1     -37.981  22.254   1.857  0.00  0.00    +0.092 C 
ATOM     12  C   UNL     1     -38.924  23.250   2.119  0.00  0.00    +0.071 C 
ATOM     13  C   UNL     1     -34.685  24.585   4.553  0.00  0.00    +0.314 A 
ATOM     14  C   UNL     1     -35.704  25.662   4.836  0.00  0.00    +0.314 A 
ATOM     15  H   UNL     1     -34.430  22.824   3.556  0.00  0.00    +0.169 HD
ATOM     16  H   UNL     1     -37.630  26.207   4.444  0.00  0.00    +0.169 HD
ENDROOT
BRANCH   9  19
ATOM     17  O   UNL     1     -34.988  21.453   1.133  0.00  0.00    -0.126 OA
ATOM     18  O   UNL     1     -35.665  20.343   2.902  0.00  0.00    -0.126 OA
ATOM     19  N   UNL     1     -35.732  21.325   2.129  0.00  0.00    +0.060 N 
ENDBRANCH   9  19
TORSDOF 1
ENDMDL
MODEL 7
REMARK VINA RESULT:      -5.1      4.318      5.206
REMARK  Name = 5486198
REMARK  1 active torsions:
REMARK  status: ('A' for Active; 'I' for Inactive)
REMARK    1  A    between atoms: C_9  and  N_19
REMARK                            x       y       z     vdW  Elec       q    Type
REMARK                         _______ _______ _______ _____ _____    ______ ____
ROOT
ATOM      1 CL   UNL     1     -35.703  21.299   3.347  0.00  0.00    -0.080 Cl
ATOM      2 CL   UNL     1     -35.471  22.213   6.403  0.00  0.00    -0.081 Cl
ATOM      3  O   UNL     1     -33.607  28.204   1.494  0.00  0.00    -0.262 OA
ATOM      4  O   UNL     1     -33.425  28.925   4.035  0.00  0.00    -0.262 OA
ATOM      5  N   UNL     1     -34.258  26.066   2.082  0.00  0.00    -0.315 N 
ATOM      6  N   UNL     1     -34.067  26.821   4.743  0.00  0.00    -0.316 N 
ATOM      7  C   UNL     1     -34.551  25.136   3.087  0.00  0.00    +0.098 A 
ATOM      8  C   UNL     1     -34.455  25.516   4.422  0.00  0.00    +0.077 A 
ATOM      9  C   UNL     1     -34.935  23.838   2.749  0.00  0.00    +0.171 C 
ATOM     10  C   UNL     1     -34.743  24.600   5.436  0.00  0.00    +0.031 C 
ATOM     11  C   UNL     1     -35.224  22.921   3.761  0.00  0.00    +0.092 C 
ATOM     12  C   UNL     1     -35.127  23.301   5.101  0.00  0.00    +0.071 C 
ATOM     13  C   UNL     1     -33.871  27.362   2.344  0.00  0.00    +0.314 A 
ATOM     14  C   UNL     1     -33.767  27.773   3.794  0.00  0.00    +0.314 A 
ATOM     15  H   UNL     1     -34.330  25.780   1.143  0.00  0.00    +0.169 HD
ATOM     16  H   UNL     1     -34.005  27.071   5.693  0.00  0.00    +0.169 HD
ENDROOT
BRANCH   9  19
ATOM     17  O   UNL     1     -34.028  22.962   0.819  0.00  0.00    -0.126 OA
ATOM     18  O   UNL     1     -36.125  23.610   0.787  0.00  0.00    -0.126 OA
ATOM     19  N   UNL     1     -35.035  23.450   1.378  0.00  0.00    +0.060 N 
ENDBRANCH   9  19
TORSDOF 1
ENDMDL
MODEL 8
REMARK VINA RESULT:      -5.0      4.601      6.456
REMARK  Name = 5486198
REMARK  1 active torsions:
REMARK  status: ('A' for Active; 'I' for Inactive)
REMARK    1  A    between atoms: C_9  and  N_19
REMARK                            x       y       z     vdW  Elec       q    Type
REMARK                         _______ _______ _______ _____ _____    ______ ____
ROOT
ATOM      1 CL   UNL     1     -33.437  19.318   1.510  0.00  0.00    -0.080 Cl
ATOM      2 CL   UNL     1     -34.662  17.719  -0.974  0.00  0.00    -0.081 Cl
ATOM      3  O   UNL     1     -40.139  22.465   2.333  0.00  0.00    -0.262 OA
ATOM      4  O   UNL     1     -41.119  21.123   0.272  0.00  0.00    -0.262 OA
ATOM      5  N   UNL     1     -38.064  21.482   2.066  0.00  0.00    -0.315 N 
ATOM      6  N   UNL     1     -39.091  20.078  -0.092  0.00  0.00    -0.316 N 
ATOM      7  C   UNL     1     -37.239  20.598   1.362  0.00  0.00    +0.098 A 
ATOM      8  C   UNL     1     -37.755  19.893   0.279  0.00  0.00    +0.077 A 
ATOM      9  C   UNL     1     -35.909  20.425   1.746  0.00  0.00    +0.171 C 
ATOM     10  C   UNL     1     -36.944  19.007  -0.433  0.00  0.00    +0.031 C 
ATOM     11  C   UNL     1     -35.097  19.540   1.036  0.00  0.00    +0.092 C 
ATOM     12  C   UNL     1     -35.614  18.831  -0.051  0.00  0.00    +0.071 C 
ATOM     13  C   UNL     1     -39.386  21.700   1.743  0.00  0.00    +0.314 A 
ATOM     14  C   UNL     1     -39.945  20.934   0.567  0.00  0.00    +0.314 A 
ATOM     15  H   UNL     1     -37.683  21.972   2.830  0.00  0.00    +0.169 HD
ATOM     16  H   UNL     1     -39.438  19.570  -0.861  0.00  0.00    +0.169 HD
ENDROOT
BRANCH   9  19
ATOM     17  O   UNL     1     -35.207  20.547   3.939  0.00  0.00    -0.126 OA
ATOM     18  O   UNL     1     -35.107  22.362   2.708  0.00  0.00    -0.126 OA
ATOM     19  N   UNL     1     -35.380  21.150   2.857  0.00  0.00    +0.060 N 
ENDBRANCH   9  19
TORSDOF 1
ENDMDL
MODEL 9
REMARK VINA RESULT:      -5.0      1.764      2.150
REMARK  Name = 5486198
REMARK  1 active torsions:
REMARK  status: ('A' for Active; 'I' for Inactive)
REMARK    1  A    between atoms: C_9  and  N_19
REMARK                            x       y       z     vdW  Elec       q    Type
REMARK                         _______ _______ _______ _____ _____    ______ ____
ROOT
ATOM      1 CL   UNL     1     -39.347  21.684   1.230  0.00  0.00    -0.080 Cl
ATOM      2 CL   UNL     1     -36.690  19.912   1.407  0.00  0.00    -0.081 Cl
ATOM      3  O   UNL     1     -35.730  26.862   5.180  0.00  0.00    -0.262 OA
ATOM      4  O   UNL     1     -33.547  25.367   5.305  0.00  0.00    -0.262 OA
ATOM      5  N   UNL     1     -36.841  25.247   3.956  0.00  0.00    -0.315 N 
ATOM      6  N   UNL     1     -34.556  23.683   4.088  0.00  0.00    -0.316 N 
ATOM      7  C   UNL     1     -36.830  23.987   3.345  0.00  0.00    +0.098 A 
ATOM      8  C   UNL     1     -35.683  23.202   3.411  0.00  0.00    +0.077 A 
ATOM      9  C   UNL     1     -37.963  23.525   2.675  0.00  0.00    +0.171 C 
ATOM     10  C   UNL     1     -35.656  21.945   2.807  0.00  0.00    +0.031 C 
ATOM     11  C   UNL     1     -37.938  22.267   2.069  0.00  0.00    +0.092 C 
ATOM     12  C   UNL     1     -36.787  21.479   2.135  0.00  0.00    +0.071 C 
ATOM     13  C   UNL     1     -35.759  25.766   4.633  0.00  0.00    +0.314 A 
ATOM     14  C   UNL     1     -34.514  24.914   4.704  0.00  0.00    +0.314 A 
ATOM     15  H   UNL     1     -37.661  25.788   3.898  0.00  0.00    +0.169 HD
ATOM     16  H   UNL     1     -33.754  23.113   4.123  0.00  0.00    +0.169 HD
ENDROOT
BRANCH   9  19
ATOM     17  O   UNL     1     -39.824  24.477   3.645  0.00  0.00    -0.126 OA
ATOM     18  O   UNL     1     -39.443  24.861   1.517  0.00  0.00    -0.126 OA
ATOM     19  N   UNL     1     -39.140  24.330   2.608  0.00  0.00    +0.060 N 
ENDBRANCH   9  19
TORSDOF 1
ENDMDL
