MODEL 1
REMARK VINA RESULT:      -6.2      0.000      0.000
REMARK  Name = 197564
REMARK  5 active torsions:
REMARK  status: ('A' for Active; 'I' for Inactive)
REMARK    1  A    between atoms: N_3  and  C_22
REMARK    2  A    between atoms: C_9  and  N_26
REMARK    3  A    between atoms: C_12  and  C_30
REMARK    4  A    between atoms: C_14  and  N_18
REMARK    5  A    between atoms: C_30  and  O_31
REMARK                            x       y       z     vdW  Elec       q    Type
REMARK                         _______ _______ _______ _____ _____    ______ ____
ROOT
ATOM      1  F   UNL     1     -38.138  19.582  -0.350  0.00  0.00    -0.199 F 
ATOM      2  O   UNL     1     -40.838  23.578   1.320  0.00  0.00    -0.290 OA
ATOM      3  N   UNL     1     -37.226  23.752   3.177  0.00  0.00    -0.267 N 
ATOM      4  N   UNL     1     -36.481  21.747   2.047  0.00  0.00    -0.373 NA
ATOM      5  C   UNL     1     -36.746  20.744   1.177  0.00  0.00    +0.213 C 
ATOM      6  C   UNL     1     -37.446  22.678   2.276  0.00  0.00    +0.178 C 
ATOM      7  C   UNL     1     -38.686  22.592   1.621  0.00  0.00    +0.166 C 
ATOM      8  C   UNL     1     -37.941  20.600   0.499  0.00  0.00    +0.193 C 
ATOM      9  C   UNL     1     -38.929  21.546   0.727  0.00  0.00    +0.065 C 
ATOM     10  C   UNL     1     -38.216  24.686   3.399  0.00  0.00    +0.076 C 
ATOM     11  C   UNL     1     -39.743  23.606   1.867  0.00  0.00    +0.194 C 
ATOM     12  C   UNL     1     -39.426  24.693   2.826  0.00  0.00    +0.126 C 
ATOM     13  N   UNL     1     -35.767  19.801   0.947  0.00  0.00    -0.284 N 
ATOM     14  C   UNL     1     -33.653  18.787   0.768  0.00  0.00    -0.044 C 
ATOM     15  C   UNL     1     -34.452  19.807   1.588  0.00  0.00    +0.071 C 
ATOM     16  C   UNL     1     -34.720  17.777   0.361  0.00  0.00    +0.001 C 
ATOM     17  C   UNL     1     -35.918  18.668   0.035  0.00  0.00    +0.091 C 
ENDROOT
BRANCH  14  18
ATOM     18  N   UNL     1     -32.552  18.198   1.510  0.00  0.00    +0.383 N 
ATOM     19  H   UNL     1     -31.805  18.886   1.612  0.00  0.00    -0.089 HD
ATOM     20  H   UNL     1     -32.199  17.385   1.006  0.00  0.00    -0.089 HD
ATOM     21  H   UNL     1     -32.878  17.912   2.433  0.00  0.00    -0.089 HD
ENDBRANCH  14  18
BRANCH   3  22
ATOM     22  C   UNL     1     -35.923  23.793   3.829  0.00  0.00    +0.064 C 
ATOM     23  C   UNL     1     -35.668  22.446   4.511  0.00  0.00    +0.020 C 
ATOM     24  C   UNL     1     -35.934  24.920   4.865  0.00  0.00    +0.020 C 
ATOM     25  C   UNL     1     -34.850  24.057   2.770  0.00  0.00    +0.020 C 
ENDBRANCH   3  22
BRANCH   9  26
ATOM     26  N   UNL     1     -40.149  21.393   0.032  0.00  0.00    -0.358 N 
ATOM     27  H   UNL     1     -40.353  20.544  -0.422  0.00  0.00    +0.142 HD
ATOM     28  H   UNL     1     -40.795  22.136   0.002  0.00  0.00    +0.142 HD
ENDBRANCH   9  26
BRANCH  12  30
ATOM     29  O   UNL     1     -40.575  26.726   2.451  0.00  0.00    -0.245 OA
ATOM     30  C   UNL     1     -40.356  25.767   3.179  0.00  0.00    +0.342 C 
BRANCH  30  31
ATOM     31  O   UNL     1     -40.907  25.522   4.381  0.00  0.00    -0.477 OA
ATOM     32  H   UNL     1     -40.948  26.201   5.025  0.00  0.00    +0.295 HD
ENDBRANCH  30  31
ENDBRANCH  12  30
TORSDOF 5
ENDMDL
MODEL 2
REMARK VINA RESULT:      -6.1      3.314      5.889
REMARK  Name = 197564
REMARK  5 active torsions:
REMARK  status: ('A' for Active; 'I' for Inactive)
REMARK    1  A    between atoms: N_3  and  C_22
REMARK    2  A    between atoms: C_9  and  N_26
REMARK    3  A    between atoms: C_12  and  C_30
REMARK    4  A    between atoms: C_14  and  N_18
REMARK    5  A    between atoms: C_30  and  O_31
REMARK                            x       y       z     vdW  Elec       q    Type
REMARK                         _______ _______ _______ _____ _____    ______ ____
ROOT
ATOM      1  F   UNL     1     -35.585  21.089   3.249  0.00  0.00    -0.199 F 
ATOM      2  O   UNL     1     -38.508  18.989  -0.370  0.00  0.00    -0.290 OA
ATOM      3  N   UNL     1     -39.949  22.737   0.266  0.00  0.00    -0.267 N 
ATOM      4  N   UNL     1     -38.267  23.163   1.952  0.00  0.00    -0.373 NA
ATOM      5  C   UNL     1     -37.201  22.720   2.659  0.00  0.00    +0.213 C 
ATOM      6  C   UNL     1     -38.830  22.329   1.038  0.00  0.00    +0.178 C 
ATOM      7  C   UNL     1     -38.312  21.038   0.840  0.00  0.00    +0.166 C 
ATOM      8  C   UNL     1     -36.642  21.465   2.515  0.00  0.00    +0.193 C 
ATOM      9  C   UNL     1     -37.210  20.609   1.585  0.00  0.00    +0.065 C 
ATOM     10  C   UNL     1     -40.509  21.878  -0.656  0.00  0.00    +0.076 C 
ATOM     11  C   UNL     1     -38.923  20.122  -0.157  0.00  0.00    +0.194 C 
ATOM     12  C   UNL     1     -40.090  20.634  -0.918  0.00  0.00    +0.126 C 
ATOM     13  N   UNL     1     -36.632  23.567   3.586  0.00  0.00    -0.284 N 
ATOM     14  C   UNL     1     -35.973  25.535   4.691  0.00  0.00    -0.044 C 
ATOM     15  C   UNL     1     -37.108  24.922   3.863  0.00  0.00    +0.071 C 
ATOM     16  C   UNL     1     -35.435  24.334   5.461  0.00  0.00    +0.001 C 
ATOM     17  C   UNL     1     -35.480  23.218   4.417  0.00  0.00    +0.091 C 
ENDROOT
BRANCH  14  18
ATOM     18  N   UNL     1     -36.415  26.621   5.548  0.00  0.00    +0.383 N 
ATOM     19  H   UNL     1     -35.619  26.986   6.072  0.00  0.00    -0.089 HD
ATOM     20  H   UNL     1     -37.120  26.275   6.199  0.00  0.00    -0.089 HD
ATOM     21  H   UNL     1     -36.815  27.365   4.976  0.00  0.00    -0.089 HD
ENDBRANCH  14  18
BRANCH   3  22
ATOM     22  C   UNL     1     -40.445  24.086   0.511  0.00  0.00    +0.064 C 
ATOM     23  C   UNL     1     -40.549  24.308   2.022  0.00  0.00    +0.020 C 
ATOM     24  C   UNL     1     -41.823  24.222  -0.142  0.00  0.00    +0.020 C 
ATOM     25  C   UNL     1     -39.466  25.091  -0.102  0.00  0.00    +0.020 C 
ENDBRANCH   3  22
BRANCH   9  26
ATOM     26  N   UNL     1     -36.634  19.327   1.442  0.00  0.00    -0.358 N 
ATOM     27  H   UNL     1     -36.117  18.935   2.182  0.00  0.00    +0.142 HD
ATOM     28  H   UNL     1     -36.751  18.826   0.603  0.00  0.00    +0.142 HD
ENDBRANCH   9  26
BRANCH  12  30
ATOM     29  O   UNL     1     -40.960  20.248  -3.084  0.00  0.00    -0.245 OA
ATOM     30  C   UNL     1     -40.805  19.859  -1.933  0.00  0.00    +0.342 C 
BRANCH  30  31
ATOM     31  O   UNL     1     -41.235  18.698  -1.407  0.00  0.00    -0.477 OA
ATOM     32  H   UNL     1     -41.829  18.157  -1.889  0.00  0.00    +0.295 HD
ENDBRANCH  30  31
ENDBRANCH  12  30
TORSDOF 5
ENDMDL
MODEL 3
REMARK VINA RESULT:      -5.9      4.608      7.631
REMARK  Name = 197564
REMARK  5 active torsions:
REMARK  status: ('A' for Active; 'I' for Inactive)
REMARK    1  A    between atoms: N_3  and  C_22
REMARK    2  A    between atoms: C_9  and  N_26
REMARK    3  A    between atoms: C_12  and  C_30
REMARK    4  A    between atoms: C_14  and  N_18
REMARK    5  A    between atoms: C_30  and  O_31
REMARK                            x       y       z     vdW  Elec       q    Type
REMARK                         _______ _______ _______ _____ _____    ______ ____
ROOT
ATOM      1  F   UNL     1     -34.839  28.876   3.030  0.00  0.00    -0.199 F 
ATOM      2  O   UNL     1     -34.369  24.423   5.478  0.00  0.00    -0.290 OA
ATOM      3  N   UNL     1     -37.140  23.862   2.557  0.00  0.00    -0.267 N 
ATOM      4  N   UNL     1     -36.919  26.157   1.823  0.00  0.00    -0.373 NA
ATOM      5  C   UNL     1     -36.331  27.367   1.974  0.00  0.00    +0.213 C 
ATOM      6  C   UNL     1     -36.559  25.152   2.666  0.00  0.00    +0.178 C 
ATOM      7  C   UNL     1     -35.599  25.375   3.668  0.00  0.00    +0.166 C 
ATOM      8  C   UNL     1     -35.382  27.654   2.935  0.00  0.00    +0.193 C 
ATOM      9  C   UNL     1     -35.009  26.635   3.798  0.00  0.00    +0.065 C 
ATOM     10  C   UNL     1     -36.764  22.855   3.421  0.00  0.00    +0.076 C 
ATOM     11  C   UNL     1     -35.202  24.281   4.591  0.00  0.00    +0.194 C 
ATOM     12  C   UNL     1     -35.863  22.966   4.404  0.00  0.00    +0.126 C 
ATOM     13  N   UNL     1     -36.698  28.384   1.119  0.00  0.00    -0.284 N 
ATOM     14  C   UNL     1     -37.489  29.511  -0.787  0.00  0.00    -0.044 C 
ATOM     15  C   UNL     1     -37.692  28.246   0.054  0.00  0.00    +0.071 C 
ATOM     16  C   UNL     1     -37.070  30.541   0.256  0.00  0.00    +0.001 C 
ATOM     17  C   UNL     1     -36.146  29.737   1.169  0.00  0.00    +0.091 C 
ENDROOT
BRANCH  14  18
ATOM     18  N   UNL     1     -38.675  29.894  -1.534  0.00  0.00    +0.383 N 
ATOM     19  H   UNL     1     -38.455  29.921  -2.530  0.00  0.00    -0.089 HD
ATOM     20  H   UNL     1     -38.986  30.816  -1.230  0.00  0.00    -0.089 HD
ATOM     21  H   UNL     1     -39.416  29.213  -1.368  0.00  0.00    -0.089 HD
ENDBRANCH  14  18
BRANCH   3  22
ATOM     22  C   UNL     1     -38.129  23.686   1.500  0.00  0.00    +0.064 C 
ATOM     23  C   UNL     1     -37.453  23.911   0.146  0.00  0.00    +0.020 C 
ATOM     24  C   UNL     1     -39.250  24.707   1.711  0.00  0.00    +0.020 C 
ATOM     25  C   UNL     1     -38.687  22.262   1.579  0.00  0.00    +0.020 C 
ENDBRANCH   3  22
BRANCH   9  26
ATOM     26  N   UNL     1     -34.038  26.935   4.779  0.00  0.00    -0.358 N 
ATOM     27  H   UNL     1     -33.340  26.277   4.997  0.00  0.00    +0.142 HD
ATOM     28  H   UNL     1     -34.060  27.802   5.244  0.00  0.00    +0.142 HD
ENDBRANCH   9  26
BRANCH  12  30
ATOM     29  O   UNL     1     -35.004  20.798   4.804  0.00  0.00    -0.245 OA
ATOM     30  C   UNL     1     -35.585  21.789   5.229  0.00  0.00    +0.342 C 
BRANCH  30  31
ATOM     31  O   UNL     1     -36.051  21.981   6.476  0.00  0.00    -0.477 OA
ATOM     32  H   UNL     1     -36.729  22.608   6.631  0.00  0.00    +0.295 HD
ENDBRANCH  30  31
ENDBRANCH  12  30
TORSDOF 5
ENDMDL
MODEL 4
REMARK VINA RESULT:      -5.8      4.336      7.093
REMARK  Name = 197564
REMARK  5 active torsions:
REMARK  status: ('A' for Active; 'I' for Inactive)
REMARK    1  A    between atoms: N_3  and  C_22
REMARK    2  A    between atoms: C_9  and  N_26
REMARK    3  A    between atoms: C_12  and  C_30
REMARK    4  A    between atoms: C_14  and  N_18
REMARK    5  A    between atoms: C_30  and  O_31
REMARK                            x       y       z     vdW  Elec       q    Type
REMARK                         _______ _______ _______ _____ _____    ______ ____
ROOT
ATOM      1  F   UNL     1     -34.608  26.979  -0.871  0.00  0.00    -0.199 F 
ATOM      2  O   UNL     1     -35.065  21.932  -0.261  0.00  0.00    -0.290 OA
ATOM      3  N   UNL     1     -35.265  23.580   3.450  0.00  0.00    -0.267 N 
ATOM      4  N   UNL     1     -35.006  25.807   2.542  0.00  0.00    -0.373 NA
ATOM      5  C   UNL     1     -34.846  26.602   1.457  0.00  0.00    +0.213 C 
ATOM      6  C   UNL     1     -35.096  24.463   2.352  0.00  0.00    +0.178 C 
ATOM      7  C   UNL     1     -35.023  23.922   1.058  0.00  0.00    +0.166 C 
ATOM      8  C   UNL     1     -34.767  26.136   0.159  0.00  0.00    +0.193 C 
ATOM      9  C   UNL     1     -34.858  24.767  -0.041  0.00  0.00    +0.065 C 
ATOM     10  C   UNL     1     -35.353  22.219   3.241  0.00  0.00    +0.076 C 
ATOM     11  C   UNL     1     -35.121  22.455   0.846  0.00  0.00    +0.194 C 
ATOM     12  C   UNL     1     -35.295  21.607   2.052  0.00  0.00    +0.126 C 
ATOM     13  N   UNL     1     -34.754  27.963   1.651  0.00  0.00    -0.284 N 
ATOM     14  C   UNL     1     -35.001  30.095   2.613  0.00  0.00    -0.044 C 
ATOM     15  C   UNL     1     -34.813  28.614   2.960  0.00  0.00    +0.071 C 
ATOM     16  C   UNL     1     -34.230  30.231   1.304  0.00  0.00    +0.001 C 
ATOM     17  C   UNL     1     -34.580  28.935   0.573  0.00  0.00    +0.091 C 
ENDROOT
BRANCH  14  18
ATOM     18  N   UNL     1     -34.530  30.989   3.657  0.00  0.00    +0.383 N 
ATOM     19  H   UNL     1     -33.947  31.717   3.243  0.00  0.00    -0.089 HD
ATOM     20  H   UNL     1     -33.983  30.460   4.336  0.00  0.00    -0.089 HD
ATOM     21  H   UNL     1     -35.329  31.417   4.123  0.00  0.00    -0.089 HD
ENDBRANCH  14  18
BRANCH   3  22
ATOM     22  C   UNL     1     -35.335  24.195   4.770  0.00  0.00    +0.064 C 
ATOM     23  C   UNL     1     -34.082  25.048   4.986  0.00  0.00    +0.020 C 
ATOM     24  C   UNL     1     -35.410  23.084   5.820  0.00  0.00    +0.020 C 
ATOM     25  C   UNL     1     -36.587  25.074   4.839  0.00  0.00    +0.020 C 
ENDBRANCH   3  22
BRANCH   9  26
ATOM     26  N   UNL     1     -34.776  24.297  -1.371  0.00  0.00    -0.358 N 
ATOM     27  H   UNL     1     -33.896  24.158  -1.790  0.00  0.00    +0.142 HD
ATOM     28  H   UNL     1     -35.598  24.108  -1.878  0.00  0.00    +0.142 HD
ENDBRANCH   9  26
BRANCH  12  30
ATOM     29  O   UNL     1     -34.501  19.419   1.630  0.00  0.00    -0.245 OA
ATOM     30  C   UNL     1     -35.407  20.149   2.014  0.00  0.00    +0.342 C 
BRANCH  30  31
ATOM     31  O   UNL     1     -36.617  19.768   2.460  0.00  0.00    -0.477 OA
ATOM     32  H   UNL     1     -37.279  19.506   1.852  0.00  0.00    +0.295 HD
ENDBRANCH  30  31
ENDBRANCH  12  30
TORSDOF 5
ENDMDL
MODEL 5
REMARK VINA RESULT:      -5.8      2.738      5.962
REMARK  Name = 197564
REMARK  5 active torsions:
REMARK  status: ('A' for Active; 'I' for Inactive)
REMARK    1  A    between atoms: N_3  and  C_22
REMARK    2  A    between atoms: C_9  and  N_26
REMARK    3  A    between atoms: C_12  and  C_30
REMARK    4  A    between atoms: C_14  and  N_18
REMARK    5  A    between atoms: C_30  and  O_31
REMARK                            x       y       z     vdW  Elec       q    Type
REMARK                         _______ _______ _______ _____ _____    ______ ____
ROOT
ATOM      1  F   UNL     1     -39.320  24.141   2.868  0.00  0.00    -0.199 F 
ATOM      2  O   UNL     1     -40.214  20.281  -0.348  0.00  0.00    -0.290 OA
ATOM      3  N   UNL     1     -36.272  20.097   0.628  0.00  0.00    -0.267 N 
ATOM      4  N   UNL     1     -36.474  22.037   2.060  0.00  0.00    -0.373 NA
ATOM      5  C   UNL     1     -37.256  23.009   2.585  0.00  0.00    +0.213 C 
ATOM      6  C   UNL     1     -37.041  21.139   1.210  0.00  0.00    +0.178 C 
ATOM      7  C   UNL     1     -38.406  21.227   0.890  0.00  0.00    +0.166 C 
ATOM      8  C   UNL     1     -38.602  23.154   2.314  0.00  0.00    +0.193 C 
ATOM      9  C   UNL     1     -39.187  22.242   1.448  0.00  0.00    +0.065 C 
ATOM     10  C   UNL     1     -36.862  19.196  -0.233  0.00  0.00    +0.076 C 
ATOM     11  C   UNL     1     -39.029  20.249  -0.038  0.00  0.00    +0.194 C 
ATOM     12  C   UNL     1     -38.149  19.194  -0.600  0.00  0.00    +0.126 C 
ATOM     13  N   UNL     1     -36.680  23.919   3.446  0.00  0.00    -0.284 N 
ATOM     14  C   UNL     1     -35.216  24.874   5.019  0.00  0.00    -0.044 C 
ATOM     15  C   UNL     1     -35.268  23.908   3.830  0.00  0.00    +0.071 C 
ATOM     16  C   UNL     1     -36.296  25.892   4.669  0.00  0.00    +0.001 C 
ATOM     17  C   UNL     1     -37.404  25.018   4.083  0.00  0.00    +0.091 C 
ENDROOT
BRANCH  14  18
ATOM     18  N   UNL     1     -33.904  25.467   5.214  0.00  0.00    +0.383 N 
ATOM     19  H   UNL     1     -33.286  25.180   4.455  0.00  0.00    -0.089 HD
ATOM     20  H   UNL     1     -33.518  25.152   6.104  0.00  0.00    -0.089 HD
ATOM     21  H   UNL     1     -33.987  26.483   5.219  0.00  0.00    -0.089 HD
ENDBRANCH  14  18
BRANCH   3  22
ATOM     22  C   UNL     1     -34.862  20.052   0.995  0.00  0.00    +0.064 C 
ATOM     23  C   UNL     1     -34.130  21.197   0.291  0.00  0.00    +0.020 C 
ATOM     24  C   UNL     1     -34.288  18.703   0.553  0.00  0.00    +0.020 C 
ATOM     25  C   UNL     1     -34.743  20.206   2.514  0.00  0.00    +0.020 C 
ENDBRANCH   3  22
BRANCH   9  26
ATOM     26  N   UNL     1     -40.564  22.395   1.174  0.00  0.00    -0.358 N 
ATOM     27  H   UNL     1     -41.047  21.697   0.676  0.00  0.00    +0.142 HD
ATOM     28  H   UNL     1     -41.041  23.199   1.482  0.00  0.00    +0.142 HD
ENDBRANCH   9  26
BRANCH  12  30
ATOM     29  O   UNL     1     -37.971  17.819  -2.517  0.00  0.00    -0.245 OA
ATOM     30  C   UNL     1     -38.607  18.159  -1.527  0.00  0.00    +0.342 C 
BRANCH  30  31
ATOM     31  O   UNL     1     -39.789  17.664  -1.117  0.00  0.00    -0.477 OA
ATOM     32  H   UNL     1     -40.236  17.026  -1.637  0.00  0.00    +0.295 HD
ENDBRANCH  30  31
ENDBRANCH  12  30
TORSDOF 5
ENDMDL
MODEL 6
REMARK VINA RESULT:      -5.7      4.481      7.325
REMARK  Name = 197564
REMARK  5 active torsions:
REMARK  status: ('A' for Active; 'I' for Inactive)
REMARK    1  A    between atoms: N_3  and  C_22
REMARK    2  A    between atoms: C_9  and  N_26
REMARK    3  A    between atoms: C_12  and  C_30
REMARK    4  A    between atoms: C_14  and  N_18
REMARK    5  A    between atoms: C_30  and  O_31
REMARK                            x       y       z     vdW  Elec       q    Type
REMARK                         _______ _______ _______ _____ _____    ______ ____
ROOT
ATOM      1  F   UNL     1     -33.830  26.165   6.135  0.00  0.00    -0.199 F 
ATOM      2  O   UNL     1     -36.407  22.099   4.439  0.00  0.00    -0.290 OA
ATOM      3  N   UNL     1     -34.755  23.877   1.178  0.00  0.00    -0.267 N 
ATOM      4  N   UNL     1     -33.750  25.598   2.550  0.00  0.00    -0.373 NA
ATOM      5  C   UNL     1     -33.549  26.124   3.781  0.00  0.00    +0.213 C 
ATOM      6  C   UNL     1     -34.509  24.475   2.442  0.00  0.00    +0.178 C 
ATOM      7  C   UNL     1     -35.069  23.882   3.586  0.00  0.00    +0.166 C 
ATOM      8  C   UNL     1     -34.068  25.593   4.946  0.00  0.00    +0.193 C 
ATOM      9  C   UNL     1     -34.843  24.448   4.843  0.00  0.00    +0.065 C 
ATOM     10  C   UNL     1     -35.529  22.740   1.085  0.00  0.00    +0.076 C 
ATOM     11  C   UNL     1     -35.899  22.656   3.473  0.00  0.00    +0.194 C 
ATOM     12  C   UNL     1     -36.104  22.101   2.111  0.00  0.00    +0.126 C 
ATOM     13  N   UNL     1     -32.780  27.263   3.889  0.00  0.00    -0.284 N 
ATOM     14  C   UNL     1     -31.177  28.917   3.418  0.00  0.00    -0.044 C 
ATOM     15  C   UNL     1     -32.164  27.951   2.754  0.00  0.00    +0.071 C 
ATOM     16  C   UNL     1     -31.883  29.273   4.721  0.00  0.00    +0.001 C 
ATOM     17  C   UNL     1     -32.483  27.935   5.154  0.00  0.00    +0.091 C 
ENDROOT
BRANCH  14  18
ATOM     18  N   UNL     1     -30.870  30.073   2.592  0.00  0.00    +0.383 N 
ATOM     19  H   UNL     1     -31.009  30.925   3.136  0.00  0.00    -0.089 HD
ATOM     20  H   UNL     1     -31.487  30.084   1.780  0.00  0.00    -0.089 HD
ATOM     21  H   UNL     1     -29.899  30.021   2.283  0.00  0.00    -0.089 HD
ENDBRANCH  14  18
BRANCH   3  22
ATOM     22  C   UNL     1     -34.150  24.533   0.024  0.00  0.00    +0.064 C 
ATOM     23  C   UNL     1     -34.739  25.940  -0.110  0.00  0.00    +0.020 C 
ATOM     24  C   UNL     1     -34.462  23.704  -1.224  0.00  0.00    +0.020 C 
ATOM     25  C   UNL     1     -32.637  24.616   0.242  0.00  0.00    +0.020 C 
ENDBRANCH   3  22
BRANCH   9  26
ATOM     26  N   UNL     1     -35.372  23.910   6.038  0.00  0.00    -0.358 N 
ATOM     27  H   UNL     1     -35.745  24.509   6.723  0.00  0.00    +0.142 HD
ATOM     28  H   UNL     1     -35.367  22.937   6.183  0.00  0.00    +0.142 HD
ENDBRANCH   9  26
BRANCH  12  30
ATOM     29  O   UNL     1     -37.738  20.851   0.943  0.00  0.00    -0.245 OA
ATOM     30  C   UNL     1     -36.894  20.902   1.830  0.00  0.00    +0.342 C 
BRANCH  30  31
ATOM     31  O   UNL     1     -36.544  19.913   2.670  0.00  0.00    -0.477 OA
ATOM     32  H   UNL     1     -36.003  19.210   2.368  0.00  0.00    +0.295 HD
ENDBRANCH  30  31
ENDBRANCH  12  30
TORSDOF 5
ENDMDL
MODEL 7
REMARK VINA RESULT:      -5.6      5.501      8.102
REMARK  Name = 197564
REMARK  5 active torsions:
REMARK  status: ('A' for Active; 'I' for Inactive)
REMARK    1  A    between atoms: N_3  and  C_22
REMARK    2  A    between atoms: C_9  and  N_26
REMARK    3  A    between atoms: C_12  and  C_30
REMARK    4  A    between atoms: C_14  and  N_18
REMARK    5  A    between atoms: C_30  and  O_31
REMARK                            x       y       z     vdW  Elec       q    Type
REMARK                         _______ _______ _______ _____ _____    ______ ____
ROOT
ATOM      1  F   UNL     1     -33.117  31.074   2.846  0.00  0.00    -0.199 F 
ATOM      2  O   UNL     1     -37.193  28.972   0.606  0.00  0.00    -0.290 OA
ATOM      3  N   UNL     1     -35.808  26.255   3.295  0.00  0.00    -0.267 N 
ATOM      4  N   UNL     1     -34.018  27.740   3.964  0.00  0.00    -0.373 NA
ATOM      5  C   UNL     1     -33.390  28.930   3.822  0.00  0.00    +0.213 C 
ATOM      6  C   UNL     1     -35.108  27.486   3.191  0.00  0.00    +0.178 C 
ATOM      7  C   UNL     1     -35.564  28.443   2.269  0.00  0.00    +0.166 C 
ATOM      8  C   UNL     1     -33.784  29.915   2.937  0.00  0.00    +0.193 C 
ATOM      9  C   UNL     1     -34.895  29.663   2.146  0.00  0.00    +0.065 C 
ATOM     10  C   UNL     1     -36.910  26.014   2.503  0.00  0.00    +0.076 C 
ATOM     11  C   UNL     1     -36.754  28.171   1.423  0.00  0.00    +0.194 C 
ATOM     12  C   UNL     1     -37.422  26.857   1.598  0.00  0.00    +0.126 C 
ATOM     13  N   UNL     1     -32.285  29.185   4.605  0.00  0.00    -0.284 N 
ATOM     14  C   UNL     1     -30.761  29.109   6.394  0.00  0.00    -0.044 C 
ATOM     15  C   UNL     1     -31.736  28.247   5.585  0.00  0.00    +0.071 C 
ATOM     16  C   UNL     1     -30.252  30.102   5.356  0.00  0.00    +0.001 C 
ATOM     17  C   UNL     1     -31.513  30.426   4.556  0.00  0.00    +0.091 C 
ENDROOT
BRANCH  14  18
ATOM     18  N   UNL     1     -29.704  28.335   7.022  0.00  0.00    +0.383 N 
ATOM     19  H   UNL     1     -28.803  28.775   6.832  0.00  0.00    -0.089 HD
ATOM     20  H   UNL     1     -29.706  27.388   6.644  0.00  0.00    -0.089 HD
ATOM     21  H   UNL     1     -29.860  28.301   8.030  0.00  0.00    -0.089 HD
ENDBRANCH  14  18
BRANCH   3  22
ATOM     22  C   UNL     1     -35.292  25.299   4.267  0.00  0.00    +0.064 C 
ATOM     23  C   UNL     1     -33.803  25.072   3.997  0.00  0.00    +0.020 C 
ATOM     24  C   UNL     1     -36.067  23.987   4.115  0.00  0.00    +0.020 C 
ATOM     25  C   UNL     1     -35.490  25.871   5.674  0.00  0.00    +0.020 C 
ENDBRANCH   3  22
BRANCH   9  26
ATOM     26  N   UNL     1     -35.293  30.674   1.242  0.00  0.00    -0.358 N 
ATOM     27  H   UNL     1     -35.607  30.432   0.341  0.00  0.00    +0.142 HD
ATOM     28  H   UNL     1     -35.258  31.619   1.515  0.00  0.00    +0.142 HD
ENDBRANCH   9  26
BRANCH  12  30
ATOM     29  O   UNL     1     -38.610  25.455   0.108  0.00  0.00    -0.245 OA
ATOM     30  C   UNL     1     -38.602  26.435   0.843  0.00  0.00    +0.342 C 
BRANCH  30  31
ATOM     31  O   UNL     1     -39.628  27.269   1.089  0.00  0.00    -0.477 OA
ATOM     32  H   UNL     1     -39.468  28.180   1.234  0.00  0.00    +0.295 HD
ENDBRANCH  30  31
ENDBRANCH  12  30
TORSDOF 5
ENDMDL
MODEL 8
REMARK VINA RESULT:      -5.6      4.243      6.793
REMARK  Name = 197564
REMARK  5 active torsions:
REMARK  status: ('A' for Active; 'I' for Inactive)
REMARK    1  A    between atoms: N_3  and  C_22
REMARK    2  A    between atoms: C_9  and  N_26
REMARK    3  A    between atoms: C_12  and  C_30
REMARK    4  A    between atoms: C_14  and  N_18
REMARK    5  A    between atoms: C_30  and  O_31
REMARK                            x       y       z     vdW  Elec       q    Type
REMARK                         _______ _______ _______ _____ _____    ______ ____
ROOT
ATOM      1  F   UNL     1     -36.544  28.829   0.123  0.00  0.00    -0.199 F 
ATOM      2  O   UNL     1     -38.922  24.324   0.428  0.00  0.00    -0.290 OA
ATOM      3  N   UNL     1     -36.398  24.528   3.608  0.00  0.00    -0.267 N 
ATOM      4  N   UNL     1     -35.634  26.724   2.937  0.00  0.00    -0.373 NA
ATOM      5  C   UNL     1     -35.701  27.753   2.060  0.00  0.00    +0.213 C 
ATOM      6  C   UNL     1     -36.424  25.638   2.723  0.00  0.00    +0.178 C 
ATOM      7  C   UNL     1     -37.287  25.594   1.615  0.00  0.00    +0.166 C 
ATOM      8  C   UNL     1     -36.526  27.776   0.952  0.00  0.00    +0.193 C 
ATOM      9  C   UNL     1     -37.335  26.673   0.728  0.00  0.00    +0.065 C 
ATOM     10  C   UNL     1     -37.205  23.435   3.375  0.00  0.00    +0.076 C 
ATOM     11  C   UNL     1     -38.152  24.411   1.377  0.00  0.00    +0.194 C 
ATOM     12  C   UNL     1     -38.057  23.297   2.353  0.00  0.00    +0.126 C 
ATOM     13  N   UNL     1     -34.898  28.852   2.278  0.00  0.00    -0.284 N 
ATOM     14  C   UNL     1     -33.587  30.467   3.375  0.00  0.00    -0.044 C 
ATOM     15  C   UNL     1     -33.967  28.982   3.399  0.00  0.00    +0.071 C 
ATOM     16  C   UNL     1     -33.637  30.800   1.888  0.00  0.00    +0.001 C 
ATOM     17  C   UNL     1     -34.870  30.031   1.413  0.00  0.00    +0.091 C 
ENDROOT
BRANCH  14  18
ATOM     18  N   UNL     1     -32.296  30.734   3.985  0.00  0.00    +0.383 N 
ATOM     19  H   UNL     1     -32.122  30.052   4.724  0.00  0.00    -0.089 HD
ATOM     20  H   UNL     1     -32.295  31.673   4.382  0.00  0.00    -0.089 HD
ATOM     21  H   UNL     1     -31.564  30.662   3.278  0.00  0.00    -0.089 HD
ENDBRANCH  14  18
BRANCH   3  22
ATOM     22  C   UNL     1     -35.485  24.627   4.741  0.00  0.00    +0.064 C 
ATOM     23  C   UNL     1     -34.065  24.845   4.215  0.00  0.00    +0.020 C 
ATOM     24  C   UNL     1     -35.562  23.324   5.540  0.00  0.00    +0.020 C 
ATOM     25  C   UNL     1     -35.910  25.810   5.614  0.00  0.00    +0.020 C 
ENDBRANCH   3  22
BRANCH   9  26
ATOM     26  N   UNL     1     -38.175  26.702  -0.407  0.00  0.00    -0.358 N 
ATOM     27  H   UNL     1     -38.789  27.458  -0.545  0.00  0.00    +0.142 HD
ATOM     28  H   UNL     1     -38.146  25.966  -1.060  0.00  0.00    +0.142 HD
ENDBRANCH   9  26
BRANCH  12  30
ATOM     29  O   UNL     1     -40.062  22.051   2.198  0.00  0.00    -0.245 OA
ATOM     30  C   UNL     1     -38.840  22.063   2.260  0.00  0.00    +0.342 C 
BRANCH  30  31
ATOM     31  O   UNL     1     -38.019  20.998   2.250  0.00  0.00    -0.477 OA
ATOM     32  H   UNL     1     -37.231  21.018   1.744  0.00  0.00    +0.295 HD
ENDBRANCH  30  31
ENDBRANCH  12  30
TORSDOF 5
ENDMDL
MODEL 9
REMARK VINA RESULT:      -5.5      5.215      7.959
REMARK  Name = 197564
REMARK  5 active torsions:
REMARK  status: ('A' for Active; 'I' for Inactive)
REMARK    1  A    between atoms: N_3  and  C_22
REMARK    2  A    between atoms: C_9  and  N_26
REMARK    3  A    between atoms: C_12  and  C_30
REMARK    4  A    between atoms: C_14  and  N_18
REMARK    5  A    between atoms: C_30  and  O_31
REMARK                            x       y       z     vdW  Elec       q    Type
REMARK                         _______ _______ _______ _____ _____    ______ ____
ROOT
ATOM      1  F   UNL     1     -32.967  26.338   6.622  0.00  0.00    -0.199 F 
ATOM      2  O   UNL     1     -37.118  24.400   4.370  0.00  0.00    -0.290 OA
ATOM      3  N   UNL     1     -35.988  27.620   2.161  0.00  0.00    -0.267 N 
ATOM      4  N   UNL     1     -34.119  28.052   3.636  0.00  0.00    -0.373 NA
ATOM      5  C   UNL     1     -33.409  27.703   4.735  0.00  0.00    +0.213 C 
ATOM      6  C   UNL     1     -35.204  27.304   3.302  0.00  0.00    +0.178 C 
ATOM      7  C   UNL     1     -35.572  26.196   4.084  0.00  0.00    +0.166 C 
ATOM      8  C   UNL     1     -33.714  26.629   5.547  0.00  0.00    +0.193 C 
ATOM      9  C   UNL     1     -34.819  25.861   5.212  0.00  0.00    +0.065 C 
ATOM     10  C   UNL     1     -37.086  26.851   1.837  0.00  0.00    +0.076 C 
ATOM     11  C   UNL     1     -36.756  25.376   3.723  0.00  0.00    +0.194 C 
ATOM     12  C   UNL     1     -37.517  25.781   2.515  0.00  0.00    +0.126 C 
ATOM     13  N   UNL     1     -32.310  28.464   5.073  0.00  0.00    -0.284 N 
ATOM     14  C   UNL     1     -30.459  29.903   4.890  0.00  0.00    -0.044 C 
ATOM     15  C   UNL     1     -31.858  29.635   4.322  0.00  0.00    +0.071 C 
ATOM     16  C   UNL     1     -30.599  29.462   6.342  0.00  0.00    +0.001 C 
ATOM     17  C   UNL     1     -31.455  28.201   6.230  0.00  0.00    +0.091 C 
ENDROOT
BRANCH  14  18
ATOM     18  N   UNL     1     -30.040  31.286   4.742  0.00  0.00    +0.383 N 
ATOM     19  H   UNL     1     -30.674  31.767   4.103  0.00  0.00    -0.089 HD
ATOM     20  H   UNL     1     -29.092  31.316   4.367  0.00  0.00    -0.089 HD
ATOM     21  H   UNL     1     -30.061  31.746   5.652  0.00  0.00    -0.089 HD
ENDBRANCH  14  18
BRANCH   3  22
ATOM     22  C   UNL     1     -35.561  28.779   1.385  0.00  0.00    +0.064 C 
ATOM     23  C   UNL     1     -36.556  29.003   0.243  0.00  0.00    +0.020 C 
ATOM     24  C   UNL     1     -34.163  28.500   0.826  0.00  0.00    +0.020 C 
ATOM     25  C   UNL     1     -35.530  30.003   2.304  0.00  0.00    +0.020 C 
ENDBRANCH   3  22
BRANCH   9  26
ATOM     26  N   UNL     1     -35.126  24.763   6.046  0.00  0.00    -0.358 N 
ATOM     27  H   UNL     1     -34.776  24.732   6.966  0.00  0.00    +0.142 HD
ATOM     28  H   UNL     1     -35.691  24.031   5.709  0.00  0.00    +0.142 HD
ENDBRANCH   9  26
BRANCH  12  30
ATOM     29  O   UNL     1     -38.842  24.730   0.861  0.00  0.00    -0.245 OA
ATOM     30  C   UNL     1     -38.705  25.080   2.027  0.00  0.00    +0.342 C 
BRANCH  30  31
ATOM     31  O   UNL     1     -39.576  24.892   3.034  0.00  0.00    -0.477 OA
ATOM     32  H   UNL     1     -40.497  24.896   2.864  0.00  0.00    +0.295 HD
ENDBRANCH  30  31
ENDBRANCH  12  30
TORSDOF 5
ENDMDL
