MODEL 1
REMARK VINA RESULT:      -6.0      0.000      0.000
REMARK  Name = 60149579
REMARK  7 active torsions:
REMARK  status: ('A' for Active; 'I' for Inactive)
REMARK    1  A    between atoms: C_9  and  C_28
REMARK    2  A    between atoms: C_10  and  C_33
REMARK    3  A    between atoms: C_12  and  C_25
REMARK    4  A    between atoms: C_28  and  C_30
REMARK    5  A    between atoms: C_30  and  C_31
REMARK    6  A    between atoms: C_33  and  C_34
REMARK    7  A    between atoms: C_34  and  O_35
REMARK                            x       y       z     vdW  Elec       q    Type
REMARK                         _______ _______ _______ _____ _____    ______ ____
ROOT
ATOM      1  O   UNL     1     -35.168  26.895   1.597  0.00  0.00    -0.451 OA
ATOM      2  O   UNL     1     -32.222  28.197   3.964  0.00  0.00    -0.275 OA
ATOM      3  O   UNL     1     -36.672  28.636   1.584  0.00  0.00    -0.248 OA
ATOM      4  O   UNL     1     -38.549  24.220   3.578  0.00  0.00    -0.273 OA
ATOM      5  O   UNL     1     -35.771  22.278   6.342  0.00  0.00    -0.270 OA
ATOM      6  N   UNL     1     -36.935  25.062   2.135  0.00  0.00    -0.295 N 
ATOM      7  N   UNL     1     -33.530  26.251   3.938  0.00  0.00    -0.284 N 
ATOM      8  N   UNL     1     -36.654  22.266   4.222  0.00  0.00    -0.295 N 
ATOM      9  C   UNL     1     -34.070  27.782   1.256  0.00  0.00    +0.177 C 
ATOM     10  C   UNL     1     -32.767  27.182   1.835  0.00  0.00    +0.119 C 
ATOM     11  C   UNL     1     -32.790  27.285   3.370  0.00  0.00    +0.229 C 
ATOM     12  C   UNL     1     -37.478  26.409   2.040  0.00  0.00    +0.171 C 
ATOM     13  C   UNL     1     -36.410  27.444   1.716  0.00  0.00    +0.335 C 
ATOM     14  C   UNL     1     -37.527  24.072   2.909  0.00  0.00    +0.241 C 
ATOM     15  C   UNL     1     -36.779  22.747   2.844  0.00  0.00    +0.149 C 
ATOM     16  C   UNL     1     -33.795  25.995   5.275  0.00  0.00    +0.050 C 
ATOM     17  C   UNL     1     -37.563  21.762   1.986  0.00  0.00    +0.031 C 
ATOM     18  C   UNL     1     -34.617  24.823   5.585  0.00  0.00    +0.019 C 
ATOM     19  C   UNL     1     -33.392  26.778   6.291  0.00  0.00    +0.016 C 
ATOM     20  C   UNL     1     -35.774  22.709   5.192  0.00  0.00    +0.246 C 
ATOM     21  C   UNL     1     -34.838  23.781   4.769  0.00  0.00    +0.059 C 
ATOM     22  H   UNL     1     -36.118  24.843   1.631  0.00  0.00    +0.150 HD
ATOM     23  H   UNL     1     -33.921  25.611   3.300  0.00  0.00    +0.155 HD
ATOM     24  H   UNL     1     -37.266  21.542   4.487  0.00  0.00    +0.150 HD
ENDROOT
BRANCH  12  25
ATOM     25  C   UNL     1     -38.578  26.460   0.985  0.00  0.00    +0.029 C 
ATOM     26  C   UNL     1     -39.954  26.330   1.635  0.00  0.00    +0.002 C 
ATOM     27  C   UNL     1     -38.374  25.364  -0.060  0.00  0.00    +0.002 C 
ENDBRANCH  12  25
BRANCH   9  28
ATOM     28  C   UNL     1     -34.048  27.912  -0.267  0.00  0.00    +0.041 C 
ATOM     29  C   UNL     1     -34.523  29.307  -0.675  0.00  0.00    +0.004 C 
BRANCH  28  30
ATOM     30  C   UNL     1     -34.899  26.794  -0.900  0.00  0.00    +0.004 C 
BRANCH  30  31
ATOM     31  C   UNL     1     -34.071  25.619  -1.426  0.00  0.00    +0.000 C 
ATOM     32  C   UNL     1     -34.344  24.349  -0.632  0.00  0.00    +0.000 C 
ENDBRANCH  30  31
ENDBRANCH  28  30
ENDBRANCH   9  28
BRANCH  10  33
ATOM     33  C   UNL     1     -31.504  27.868   1.307  0.00  0.00    +0.044 C 
BRANCH  33  34
ATOM     34  C   UNL     1     -30.573  26.873   0.639  0.00  0.00    +0.138 C 
BRANCH  34  35
ATOM     35  O   UNL     1     -31.165  25.584   0.718  0.00  0.00    -0.382 OA
ATOM     36  H   UNL     1     -31.322  25.246  -0.179  0.00  0.00    +0.210 HD
ENDBRANCH  34  35
ENDBRANCH  33  34
ENDBRANCH  10  33
TORSDOF 7
ENDMDL
MODEL 2
REMARK VINA RESULT:      -5.6      1.787      5.855
REMARK  Name = 60149579
REMARK  7 active torsions:
REMARK  status: ('A' for Active; 'I' for Inactive)
REMARK    1  A    between atoms: C_9  and  C_28
REMARK    2  A    between atoms: C_10  and  C_33
REMARK    3  A    between atoms: C_12  and  C_25
REMARK    4  A    between atoms: C_28  and  C_30
REMARK    5  A    between atoms: C_30  and  C_31
REMARK    6  A    between atoms: C_33  and  C_34
REMARK    7  A    between atoms: C_34  and  O_35
REMARK                            x       y       z     vdW  Elec       q    Type
REMARK                         _______ _______ _______ _____ _____    ______ ____
ROOT
ATOM      1  O   UNL     1     -35.546  25.578   1.364  0.00  0.00    -0.451 OA
ATOM      2  O   UNL     1     -37.564  22.888   3.524  0.00  0.00    -0.275 OA
ATOM      3  O   UNL     1     -34.435  24.307  -0.198  0.00  0.00    -0.248 OA
ATOM      4  O   UNL     1     -31.311  26.965   2.994  0.00  0.00    -0.273 OA
ATOM      5  O   UNL     1     -32.540  26.717   7.184  0.00  0.00    -0.270 OA
ATOM      6  N   UNL     1     -33.452  26.941   2.092  0.00  0.00    -0.295 N 
ATOM      7  N   UNL     1     -36.083  24.619   4.079  0.00  0.00    -0.284 N 
ATOM      8  N   UNL     1     -32.515  28.016   5.289  0.00  0.00    -0.295 N 
ATOM      9  C   UNL     1     -36.812  24.942   1.047  0.00  0.00    +0.177 C 
ATOM     10  C   UNL     1     -37.702  24.980   2.313  0.00  0.00    +0.119 C 
ATOM     11  C   UNL     1     -37.126  24.026   3.375  0.00  0.00    +0.229 C 
ATOM     12  C   UNL     1     -33.192  25.946   1.062  0.00  0.00    +0.171 C 
ATOM     13  C   UNL     1     -34.447  25.182   0.664  0.00  0.00    +0.335 C 
ATOM     14  C   UNL     1     -32.474  27.367   2.981  0.00  0.00    +0.241 C 
ATOM     15  C   UNL     1     -32.984  28.416   3.961  0.00  0.00    +0.149 C 
ATOM     16  C   UNL     1     -35.305  24.094   5.101  0.00  0.00    +0.050 C 
ATOM     17  C   UNL     1     -32.436  29.784   3.573  0.00  0.00    +0.031 C 
ATOM     18  C   UNL     1     -34.261  24.955   5.660  0.00  0.00    +0.019 C 
ATOM     19  C   UNL     1     -35.415  22.839   5.568  0.00  0.00    +0.016 C 
ATOM     20  C   UNL     1     -33.029  27.018   6.097  0.00  0.00    +0.246 C 
ATOM     21  C   UNL     1     -34.204  26.292   5.555  0.00  0.00    +0.059 C 
ATOM     22  H   UNL     1     -34.355  27.328   2.161  0.00  0.00    +0.150 HD
ATOM     23  H   UNL     1     -35.865  25.542   3.814  0.00  0.00    +0.155 HD
ATOM     24  H   UNL     1     -31.747  28.515   5.648  0.00  0.00    +0.150 HD
ENDROOT
BRANCH  12  25
ATOM     25  C   UNL     1     -32.584  26.608  -0.169  0.00  0.00    +0.029 C 
ATOM     26  C   UNL     1     -31.085  26.320  -0.250  0.00  0.00    +0.002 C 
ATOM     27  C   UNL     1     -32.838  28.115  -0.152  0.00  0.00    +0.002 C 
ENDBRANCH  12  25
BRANCH   9  28
ATOM     28  C   UNL     1     -37.417  25.699  -0.135  0.00  0.00    +0.041 C 
ATOM     29  C   UNL     1     -37.392  24.815  -1.383  0.00  0.00    +0.004 C 
BRANCH  28  30
ATOM     30  C   UNL     1     -36.669  27.030  -0.343  0.00  0.00    +0.004 C 
BRANCH  30  31
ATOM     31  C   UNL     1     -37.343  28.223   0.337  0.00  0.00    +0.000 C 
ATOM     32  C   UNL     1     -36.339  29.049   1.130  0.00  0.00    +0.000 C 
ENDBRANCH  30  31
ENDBRANCH  28  30
ENDBRANCH   9  28
BRANCH  10  33
ATOM     33  C   UNL     1     -39.158  24.597   2.034  0.00  0.00    +0.044 C 
BRANCH  33  34
ATOM     34  C   UNL     1     -40.108  25.327   2.964  0.00  0.00    +0.138 C 
BRANCH  34  35
ATOM     35  O   UNL     1     -39.498  26.549   3.359  0.00  0.00    -0.382 OA
ATOM     36  H   UNL     1     -38.700  26.696   2.828  0.00  0.00    +0.210 HD
ENDBRANCH  34  35
ENDBRANCH  33  34
ENDBRANCH  10  33
TORSDOF 7
ENDMDL
MODEL 3
REMARK VINA RESULT:      -5.5      3.003      5.106
REMARK  Name = 60149579
REMARK  7 active torsions:
REMARK  status: ('A' for Active; 'I' for Inactive)
REMARK    1  A    between atoms: C_9  and  C_28
REMARK    2  A    between atoms: C_10  and  C_33
REMARK    3  A    between atoms: C_12  and  C_25
REMARK    4  A    between atoms: C_28  and  C_30
REMARK    5  A    between atoms: C_30  and  C_31
REMARK    6  A    between atoms: C_33  and  C_34
REMARK    7  A    between atoms: C_34  and  O_35
REMARK                            x       y       z     vdW  Elec       q    Type
REMARK                         _______ _______ _______ _____ _____    ______ ____
ROOT
ATOM      1  O   UNL     1     -34.697  22.466   0.493  0.00  0.00    -0.451 OA
ATOM      2  O   UNL     1     -32.531  25.196  -1.464  0.00  0.00    -0.275 OA
ATOM      3  O   UNL     1     -36.684  22.408  -0.664  0.00  0.00    -0.248 OA
ATOM      4  O   UNL     1     -37.150  23.923   4.285  0.00  0.00    -0.273 OA
ATOM      5  O   UNL     1     -34.105  26.829   5.475  0.00  0.00    -0.270 OA
ATOM      6  N   UNL     1     -35.798  22.706   2.839  0.00  0.00    -0.295 N 
ATOM      7  N   UNL     1     -33.120  24.916   0.788  0.00  0.00    -0.284 N 
ATOM      8  N   UNL     1     -34.772  24.633   5.576  0.00  0.00    -0.295 N 
ATOM      9  C   UNL     1     -33.929  22.294  -0.727  0.00  0.00    +0.177 C 
ATOM     10  C   UNL     1     -32.549  22.963  -0.527  0.00  0.00    +0.119 C 
ATOM     11  C   UNL     1     -32.721  24.492  -0.476  0.00  0.00    +0.229 C 
ATOM     12  C   UNL     1     -36.746  22.641   1.736  0.00  0.00    +0.171 C 
ATOM     13  C   UNL     1     -36.055  22.492   0.387  0.00  0.00    +0.335 C 
ATOM     14  C   UNL     1     -36.089  23.353   4.033  0.00  0.00    +0.241 C 
ATOM     15  C   UNL     1     -34.944  23.282   5.036  0.00  0.00    +0.149 C 
ATOM     16  C   UNL     1     -33.387  26.201   1.238  0.00  0.00    +0.050 C 
ATOM     17  C   UNL     1     -35.293  22.289   6.137  0.00  0.00    +0.031 C 
ATOM     18  C   UNL     1     -33.799  26.352   2.635  0.00  0.00    +0.019 C 
ATOM     19  C   UNL     1     -33.342  27.299   0.464  0.00  0.00    +0.016 C 
ATOM     20  C   UNL     1     -34.162  25.712   4.964  0.00  0.00    +0.246 C 
ATOM     21  C   UNL     1     -33.603  25.455   3.614  0.00  0.00    +0.059 C 
ATOM     22  H   UNL     1     -34.919  22.275   2.736  0.00  0.00    +0.150 HD
ATOM     23  H   UNL     1     -33.230  24.203   1.459  0.00  0.00    +0.155 HD
ATOM     24  H   UNL     1     -35.131  24.789   6.479  0.00  0.00    +0.150 HD
ENDROOT
BRANCH  12  25
ATOM     25  C   UNL     1     -37.717  21.485   1.944  0.00  0.00    +0.029 C 
ATOM     26  C   UNL     1     -37.333  20.294   1.067  0.00  0.00    +0.002 C 
ATOM     27  C   UNL     1     -39.151  21.925   1.650  0.00  0.00    +0.002 C 
ENDBRANCH  12  25
BRANCH   9  28
ATOM     28  C   UNL     1     -33.836  20.792  -0.996  0.00  0.00    +0.041 C 
ATOM     29  C   UNL     1     -34.952  20.366  -1.951  0.00  0.00    +0.004 C 
BRANCH  28  30
ATOM     30  C   UNL     1     -33.876  20.017   0.335  0.00  0.00    +0.004 C 
BRANCH  30  31
ATOM     31  C   UNL     1     -32.509  19.491   0.778  0.00  0.00    +0.000 C 
ATOM     32  C   UNL     1     -32.606  18.062   1.295  0.00  0.00    +0.000 C 
ENDBRANCH  30  31
ENDBRANCH  28  30
ENDBRANCH   9  28
BRANCH  10  33
ATOM     33  C   UNL     1     -31.546  22.610  -1.629  0.00  0.00    +0.044 C 
BRANCH  33  34
ATOM     34  C   UNL     1     -30.373  21.821  -1.077  0.00  0.00    +0.138 C 
BRANCH  34  35
ATOM     35  O   UNL     1     -29.254  22.693  -0.980  0.00  0.00    -0.382 OA
ATOM     36  H   UNL     1     -28.491  22.200  -0.638  0.00  0.00    +0.210 HD
ENDBRANCH  34  35
ENDBRANCH  33  34
ENDBRANCH  10  33
TORSDOF 7
ENDMDL
MODEL 4
REMARK VINA RESULT:      -5.5      3.501      6.988
REMARK  Name = 60149579
REMARK  7 active torsions:
REMARK  status: ('A' for Active; 'I' for Inactive)
REMARK    1  A    between atoms: C_9  and  C_28
REMARK    2  A    between atoms: C_10  and  C_33
REMARK    3  A    between atoms: C_12  and  C_25
REMARK    4  A    between atoms: C_28  and  C_30
REMARK    5  A    between atoms: C_30  and  C_31
REMARK    6  A    between atoms: C_33  and  C_34
REMARK    7  A    between atoms: C_34  and  O_35
REMARK                            x       y       z     vdW  Elec       q    Type
REMARK                         _______ _______ _______ _____ _____    ______ ____
ROOT
ATOM      1  O   UNL     1     -35.421  21.777   1.641  0.00  0.00    -0.451 OA
ATOM      2  O   UNL     1     -37.796  20.313  -1.222  0.00  0.00    -0.275 OA
ATOM      3  O   UNL     1     -35.596  20.236   3.340  0.00  0.00    -0.248 OA
ATOM      4  O   UNL     1     -37.279  24.990   4.598  0.00  0.00    -0.273 OA
ATOM      5  O   UNL     1     -39.789  26.787   1.500  0.00  0.00    -0.270 OA
ATOM      6  N   UNL     1     -35.861  23.848   3.154  0.00  0.00    -0.295 N 
ATOM      7  N   UNL     1     -37.650  22.396  -0.155  0.00  0.00    -0.284 N 
ATOM      8  N   UNL     1     -37.702  26.743   2.460  0.00  0.00    -0.295 N 
ATOM      9  C   UNL     1     -35.121  20.739   0.670  0.00  0.00    +0.177 C 
ATOM     10  C   UNL     1     -35.608  21.220  -0.717  0.00  0.00    +0.119 C 
ATOM     11  C   UNL     1     -37.147  21.240  -0.743  0.00  0.00    +0.229 C 
ATOM     12  C   UNL     1     -35.893  22.573   3.858  0.00  0.00    +0.171 C 
ATOM     13  C   UNL     1     -35.622  21.394   2.933  0.00  0.00    +0.335 C 
ATOM     14  C   UNL     1     -36.569  24.959   3.593  0.00  0.00    +0.241 C 
ATOM     15  C   UNL     1     -36.373  26.174   2.696  0.00  0.00    +0.149 C 
ATOM     16  C   UNL     1     -38.970  22.786   0.025  0.00  0.00    +0.050 C 
ATOM     17  C   UNL     1     -35.461  27.178   3.391  0.00  0.00    +0.031 C 
ATOM     18  C   UNL     1     -39.207  24.070   0.688  0.00  0.00    +0.019 C 
ATOM     19  C   UNL     1     -40.033  22.041  -0.323  0.00  0.00    +0.016 C 
ATOM     20  C   UNL     1     -38.677  26.272   1.600  0.00  0.00    +0.246 C 
ATOM     21  C   UNL     1     -38.316  25.065   0.817  0.00  0.00    +0.059 C 
ATOM     22  H   UNL     1     -35.316  23.925   2.338  0.00  0.00    +0.150 HD
ATOM     23  H   UNL     1     -36.974  23.028   0.183  0.00  0.00    +0.155 HD
ATOM     24  H   UNL     1     -37.925  27.554   2.971  0.00  0.00    +0.150 HD
ENDROOT
BRANCH  12  25
ATOM     25  C   UNL     1     -34.879  22.574   4.996  0.00  0.00    +0.029 C 
ATOM     26  C   UNL     1     -35.554  22.209   6.318  0.00  0.00    +0.002 C 
ATOM     27  C   UNL     1     -34.192  23.935   5.105  0.00  0.00    +0.002 C 
ENDBRANCH  12  25
BRANCH   9  28
ATOM     28  C   UNL     1     -33.613  20.490   0.725  0.00  0.00    +0.041 C 
ATOM     29  C   UNL     1     -32.885  21.526  -0.133  0.00  0.00    +0.004 C 
BRANCH  28  30
ATOM     30  C   UNL     1     -33.305  19.045   0.288  0.00  0.00    +0.004 C 
BRANCH  30  31
ATOM     31  C   UNL     1     -32.622  18.210   1.373  0.00  0.00    +0.000 C 
ATOM     32  C   UNL     1     -31.168  17.928   1.022  0.00  0.00    +0.000 C 
ENDBRANCH  30  31
ENDBRANCH  28  30
ENDBRANCH   9  28
BRANCH  10  33
ATOM     33  C   UNL     1     -35.100  20.346  -1.867  0.00  0.00    +0.044 C 
BRANCH  33  34
ATOM     34  C   UNL     1     -35.071  21.115  -3.174  0.00  0.00    +0.138 C 
BRANCH  34  35
ATOM     35  O   UNL     1     -34.764  22.473  -2.887  0.00  0.00    -0.382 OA
ATOM     36  H   UNL     1     -34.046  22.771  -3.468  0.00  0.00    +0.210 HD
ENDBRANCH  34  35
ENDBRANCH  33  34
ENDBRANCH  10  33
TORSDOF 7
ENDMDL
MODEL 5
REMARK VINA RESULT:      -5.4      2.663      4.391
REMARK  Name = 60149579
REMARK  7 active torsions:
REMARK  status: ('A' for Active; 'I' for Inactive)
REMARK    1  A    between atoms: C_9  and  C_28
REMARK    2  A    between atoms: C_10  and  C_33
REMARK    3  A    between atoms: C_12  and  C_25
REMARK    4  A    between atoms: C_28  and  C_30
REMARK    5  A    between atoms: C_30  and  C_31
REMARK    6  A    between atoms: C_33  and  C_34
REMARK    7  A    between atoms: C_34  and  O_35
REMARK                            x       y       z     vdW  Elec       q    Type
REMARK                         _______ _______ _______ _____ _____    ______ ____
ROOT
ATOM      1  O   UNL     1     -33.885  23.494   0.384  0.00  0.00    -0.451 OA
ATOM      2  O   UNL     1     -32.945  27.252  -0.596  0.00  0.00    -0.275 OA
ATOM      3  O   UNL     1     -35.438  22.885  -1.200  0.00  0.00    -0.248 OA
ATOM      4  O   UNL     1     -37.247  22.862   3.672  0.00  0.00    -0.273 OA
ATOM      5  O   UNL     1     -36.067  26.405   5.949  0.00  0.00    -0.270 OA
ATOM      6  N   UNL     1     -35.298  22.696   2.418  0.00  0.00    -0.295 N 
ATOM      7  N   UNL     1     -33.658  26.233   1.392  0.00  0.00    -0.284 N 
ATOM      8  N   UNL     1     -35.666  24.175   5.570  0.00  0.00    -0.295 N 
ATOM      9  C   UNL     1     -32.956  23.948  -0.636  0.00  0.00    +0.177 C 
ATOM     10  C   UNL     1     -32.077  25.065  -0.025  0.00  0.00    +0.119 C 
ATOM     11  C   UNL     1     -32.932  26.324   0.208  0.00  0.00    +0.229 C 
ATOM     12  C   UNL     1     -35.942  22.502   1.127  0.00  0.00    +0.171 C 
ATOM     13  C   UNL     1     -35.074  22.975  -0.031  0.00  0.00    +0.335 C 
ATOM     14  C   UNL     1     -36.019  22.863   3.594  0.00  0.00    +0.241 C 
ATOM     15  C   UNL     1     -35.125  23.043   4.813  0.00  0.00    +0.149 C 
ATOM     16  C   UNL     1     -34.542  27.146   1.950  0.00  0.00    +0.050 C 
ATOM     17  C   UNL     1     -35.137  21.768   5.646  0.00  0.00    +0.031 C 
ATOM     18  C   UNL     1     -35.173  26.779   3.220  0.00  0.00    +0.019 C 
ATOM     19  C   UNL     1     -34.891  28.309   1.377  0.00  0.00    +0.016 C 
ATOM     20  C   UNL     1     -35.535  25.520   5.281  0.00  0.00    +0.246 C 
ATOM     21  C   UNL     1     -34.732  25.844   4.076  0.00  0.00    +0.059 C 
ATOM     22  H   UNL     1     -34.314  22.708   2.461  0.00  0.00    +0.150 HD
ATOM     23  H   UNL     1     -33.525  25.405   1.907  0.00  0.00    +0.155 HD
ATOM     24  H   UNL     1     -36.182  23.950   6.378  0.00  0.00    +0.150 HD
ENDROOT
BRANCH  12  25
ATOM     25  C   UNL     1     -36.299  21.032   0.933  0.00  0.00    +0.029 C 
ATOM     26  C   UNL     1     -37.799  20.813   1.127  0.00  0.00    +0.002 C 
ATOM     27  C   UNL     1     -35.501  20.151   1.893  0.00  0.00    +0.002 C 
ENDBRANCH  12  25
BRANCH   9  28
ATOM     28  C   UNL     1     -32.152  22.731  -1.092  0.00  0.00    +0.041 C 
ATOM     29  C   UNL     1     -32.462  22.425  -2.558  0.00  0.00    +0.004 C 
BRANCH  28  30
ATOM     30  C   UNL     1     -32.445  21.533  -0.168  0.00  0.00    +0.004 C 
BRANCH  30  31
ATOM     31  C   UNL     1     -31.391  20.426  -0.250  0.00  0.00    +0.000 C 
ATOM     32  C   UNL     1     -31.830  19.186   0.516  0.00  0.00    +0.000 C 
ENDBRANCH  30  31
ENDBRANCH  28  30
ENDBRANCH   9  28
BRANCH  10  33
ATOM     33  C   UNL     1     -30.877  25.431  -0.902  0.00  0.00    +0.044 C 
BRANCH  33  34
ATOM     34  C   UNL     1     -29.841  26.217  -0.121  0.00  0.00    +0.138 C 
BRANCH  34  35
ATOM     35  O   UNL     1     -28.647  25.448  -0.062  0.00  0.00    -0.382 OA
ATOM     36  H   UNL     1     -28.860  24.511  -0.202  0.00  0.00    +0.210 HD
ENDBRANCH  34  35
ENDBRANCH  33  34
ENDBRANCH  10  33
TORSDOF 7
ENDMDL
MODEL 6
REMARK VINA RESULT:      -5.2     10.771     14.148
REMARK  Name = 60149579
REMARK  7 active torsions:
REMARK  status: ('A' for Active; 'I' for Inactive)
REMARK    1  A    between atoms: C_9  and  C_28
REMARK    2  A    between atoms: C_10  and  C_33
REMARK    3  A    between atoms: C_12  and  C_25
REMARK    4  A    between atoms: C_28  and  C_30
REMARK    5  A    between atoms: C_30  and  C_31
REMARK    6  A    between atoms: C_33  and  C_34
REMARK    7  A    between atoms: C_34  and  O_35
REMARK                            x       y       z     vdW  Elec       q    Type
REMARK                         _______ _______ _______ _____ _____    ______ ____
ROOT
ATOM      1  O   UNL     1     -38.493  36.659  -1.205  0.00  0.00    -0.451 OA
ATOM      2  O   UNL     1     -35.519  38.152  -3.418  0.00  0.00    -0.275 OA
ATOM      3  O   UNL     1     -38.636  34.467  -1.884  0.00  0.00    -0.248 OA
ATOM      4  O   UNL     1     -42.923  37.260  -2.796  0.00  0.00    -0.273 OA
ATOM      5  O   UNL     1     -42.066  41.195  -4.501  0.00  0.00    -0.270 OA
ATOM      6  N   UNL     1     -41.038  37.146  -1.442  0.00  0.00    -0.295 N 
ATOM      7  N   UNL     1     -37.731  38.823  -3.025  0.00  0.00    -0.284 N 
ATOM      8  N   UNL     1     -42.638  40.035  -2.602  0.00  0.00    -0.295 N 
ATOM      9  C   UNL     1     -37.063  36.543  -0.980  0.00  0.00    +0.177 C 
ATOM     10  C   UNL     1     -36.428  37.939  -1.184  0.00  0.00    +0.119 C 
ATOM     11  C   UNL     1     -36.483  38.316  -2.676  0.00  0.00    +0.229 C 
ATOM     12  C   UNL     1     -40.651  35.790  -1.803  0.00  0.00    +0.171 C 
ATOM     13  C   UNL     1     -39.156  35.551  -1.640  0.00  0.00    +0.335 C 
ATOM     14  C   UNL     1     -42.156  37.770  -1.981  0.00  0.00    +0.241 C 
ATOM     15  C   UNL     1     -42.358  39.182  -1.445  0.00  0.00    +0.149 C 
ATOM     16  C   UNL     1     -38.183  39.265  -4.261  0.00  0.00    +0.050 C 
ATOM     17  C   UNL     1     -43.520  39.191  -0.460  0.00  0.00    +0.031 C 
ATOM     18  C   UNL     1     -39.563  39.747  -4.338  0.00  0.00    +0.019 C 
ATOM     19  C   UNL     1     -37.456  39.229  -5.390  0.00  0.00    +0.016 C 
ATOM     20  C   UNL     1     -41.734  40.521  -3.528  0.00  0.00    +0.246 C 
ATOM     21  C   UNL     1     -40.316  40.146  -3.301  0.00  0.00    +0.059 C 
ATOM     22  H   UNL     1     -40.489  37.639  -0.790  0.00  0.00    +0.150 HD
ATOM     23  H   UNL     1     -38.387  38.875  -2.293  0.00  0.00    +0.155 HD
ATOM     24  H   UNL     1     -43.579  40.293  -2.734  0.00  0.00    +0.150 HD
ENDROOT
BRANCH  12  25
ATOM     25  C   UNL     1     -41.425  34.780  -0.964  0.00  0.00    +0.029 C 
ATOM     26  C   UNL     1     -42.489  34.080  -1.810  0.00  0.00    +0.002 C 
ATOM     27  C   UNL     1     -42.066  35.460   0.245  0.00  0.00    +0.002 C 
ENDBRANCH  12  25
BRANCH   9  28
ATOM     28  C   UNL     1     -36.869  35.995   0.434  0.00  0.00    +0.041 C 
ATOM     29  C   UNL     1     -36.647  34.483   0.378  0.00  0.00    +0.004 C 
BRANCH  28  30
ATOM     30  C   UNL     1     -38.074  36.379   1.314  0.00  0.00    +0.004 C 
BRANCH  30  31
ATOM     31  C   UNL     1     -38.547  35.248   2.231  0.00  0.00    +0.000 C 
ATOM     32  C   UNL     1     -39.696  35.700   3.121  0.00  0.00    +0.000 C 
ENDBRANCH  30  31
ENDBRANCH  28  30
ENDBRANCH   9  28
BRANCH  10  33
ATOM     33  C   UNL     1     -34.976  38.013  -0.703  0.00  0.00    +0.044 C 
BRANCH  33  34
ATOM     34  C   UNL     1     -34.772  39.166   0.262  0.00  0.00    +0.138 C 
BRANCH  34  35
ATOM     35  O   UNL     1     -34.647  40.364  -0.493  0.00  0.00    -0.382 OA
ATOM     36  H   UNL     1     -34.143  40.185  -1.302  0.00  0.00    +0.210 HD
ENDBRANCH  34  35
ENDBRANCH  33  34
ENDBRANCH  10  33
TORSDOF 7
ENDMDL
MODEL 7
REMARK VINA RESULT:      -5.1      2.688      6.201
REMARK  Name = 60149579
REMARK  7 active torsions:
REMARK  status: ('A' for Active; 'I' for Inactive)
REMARK    1  A    between atoms: C_9  and  C_28
REMARK    2  A    between atoms: C_10  and  C_33
REMARK    3  A    between atoms: C_12  and  C_25
REMARK    4  A    between atoms: C_28  and  C_30
REMARK    5  A    between atoms: C_30  and  C_31
REMARK    6  A    between atoms: C_33  and  C_34
REMARK    7  A    between atoms: C_34  and  O_35
REMARK                            x       y       z     vdW  Elec       q    Type
REMARK                         _______ _______ _______ _____ _____    ______ ____
ROOT
ATOM      1  O   UNL     1     -36.375  26.758   2.331  0.00  0.00    -0.451 OA
ATOM      2  O   UNL     1     -33.351  25.663   4.702  0.00  0.00    -0.275 OA
ATOM      3  O   UNL     1     -36.105  25.451   0.457  0.00  0.00    -0.248 OA
ATOM      4  O   UNL     1     -35.724  30.556  -0.438  0.00  0.00    -0.273 OA
ATOM      5  O   UNL     1     -33.264  32.630   2.524  0.00  0.00    -0.270 OA
ATOM      6  N   UNL     1     -36.630  28.994   1.024  0.00  0.00    -0.295 N 
ATOM      7  N   UNL     1     -34.109  27.734   3.907  0.00  0.00    -0.284 N 
ATOM      8  N   UNL     1     -35.403  32.173   1.822  0.00  0.00    -0.295 N 
ATOM      9  C   UNL     1     -36.295  25.601   3.204  0.00  0.00    +0.177 C 
ATOM     10  C   UNL     1     -35.735  26.065   4.570  0.00  0.00    +0.119 C 
ATOM     11  C   UNL     1     -34.251  26.446   4.414  0.00  0.00    +0.229 C 
ATOM     12  C   UNL     1     -36.415  27.827   0.180  0.00  0.00    +0.171 C 
ATOM     13  C   UNL     1     -36.280  26.544   0.988  0.00  0.00    +0.335 C 
ATOM     14  C   UNL     1     -36.258  30.274   0.634  0.00  0.00    +0.241 C 
ATOM     15  C   UNL     1     -36.591  31.329   1.682  0.00  0.00    +0.149 C 
ATOM     16  C   UNL     1     -32.949  28.439   3.618  0.00  0.00    +0.050 C 
ATOM     17  C   UNL     1     -37.794  32.142   1.220  0.00  0.00    +0.031 C 
ATOM     18  C   UNL     1     -33.102  29.793   3.082  0.00  0.00    +0.019 C 
ATOM     19  C   UNL     1     -31.708  27.941   3.748  0.00  0.00    +0.016 C 
ATOM     20  C   UNL     1     -34.234  31.876   2.499  0.00  0.00    +0.246 C 
ATOM     21  C   UNL     1     -34.201  30.557   3.176  0.00  0.00    +0.059 C 
ATOM     22  H   UNL     1     -37.057  28.871   1.903  0.00  0.00    +0.150 HD
ATOM     23  H   UNL     1     -34.949  28.214   3.727  0.00  0.00    +0.155 HD
ATOM     24  H   UNL     1     -35.441  33.054   1.384  0.00  0.00    +0.150 HD
ENDROOT
BRANCH  12  25
ATOM     25  C   UNL     1     -37.555  27.684  -0.822  0.00  0.00    +0.029 C 
ATOM     26  C   UNL     1     -37.125  28.184  -2.201  0.00  0.00    +0.002 C 
ATOM     27  C   UNL     1     -38.793  28.439  -0.342  0.00  0.00    +0.002 C 
ENDBRANCH  12  25
BRANCH   9  28
ATOM     28  C   UNL     1     -37.701  25.008   3.302  0.00  0.00    +0.041 C 
ATOM     29  C   UNL     1     -37.758  23.684   2.538  0.00  0.00    +0.004 C 
BRANCH  28  30
ATOM     30  C   UNL     1     -38.736  26.026   2.787  0.00  0.00    +0.004 C 
BRANCH  30  31
ATOM     31  C   UNL     1     -40.186  25.594   3.017  0.00  0.00    +0.000 C 
ATOM     32  C   UNL     1     -40.985  25.625   1.721  0.00  0.00    +0.000 C 
ENDBRANCH  30  31
ENDBRANCH  28  30
ENDBRANCH   9  28
BRANCH  10  33
ATOM     33  C   UNL     1     -35.865  25.002   5.664  0.00  0.00    +0.044 C 
BRANCH  33  34
ATOM     34  C   UNL     1     -35.325  23.662   5.201  0.00  0.00    +0.138 C 
BRANCH  34  35
ATOM     35  O   UNL     1     -36.244  22.650   5.592  0.00  0.00    -0.382 OA
ATOM     36  H   UNL     1     -35.753  21.869   5.893  0.00  0.00    +0.210 HD
ENDBRANCH  34  35
ENDBRANCH  33  34
ENDBRANCH  10  33
TORSDOF 7
ENDMDL
MODEL 8
REMARK VINA RESULT:      -5.0      2.508      7.155
REMARK  Name = 60149579
REMARK  7 active torsions:
REMARK  status: ('A' for Active; 'I' for Inactive)
REMARK    1  A    between atoms: C_9  and  C_28
REMARK    2  A    between atoms: C_10  and  C_33
REMARK    3  A    between atoms: C_12  and  C_25
REMARK    4  A    between atoms: C_28  and  C_30
REMARK    5  A    between atoms: C_30  and  C_31
REMARK    6  A    between atoms: C_33  and  C_34
REMARK    7  A    between atoms: C_34  and  O_35
REMARK                            x       y       z     vdW  Elec       q    Type
REMARK                         _______ _______ _______ _____ _____    ______ ____
ROOT
ATOM      1  O   UNL     1     -36.758  24.104   2.527  0.00  0.00    -0.451 OA
ATOM      2  O   UNL     1     -40.435  22.655   1.939  0.00  0.00    -0.275 OA
ATOM      3  O   UNL     1     -36.614  24.328   4.812  0.00  0.00    -0.248 OA
ATOM      4  O   UNL     1     -36.178  28.803   2.206  0.00  0.00    -0.273 OA
ATOM      5  O   UNL     1     -39.153  29.225  -0.972  0.00  0.00    -0.270 OA
ATOM      6  N   UNL     1     -35.902  26.505   2.001  0.00  0.00    -0.295 N 
ATOM      7  N   UNL     1     -39.265  24.489   1.065  0.00  0.00    -0.284 N 
ATOM      8  N   UNL     1     -36.963  28.737  -0.478  0.00  0.00    -0.295 N 
ATOM      9  C   UNL     1     -37.208  22.729   2.644  0.00  0.00    +0.177 C 
ATOM     10  C   UNL     1     -38.086  22.401   1.413  0.00  0.00    +0.119 C 
ATOM     11  C   UNL     1     -39.412  23.177   1.506  0.00  0.00    +0.229 C 
ATOM     12  C   UNL     1     -35.988  26.197   3.422  0.00  0.00    +0.171 C 
ATOM     13  C   UNL     1     -36.484  24.780   3.678  0.00  0.00    +0.335 C 
ATOM     14  C   UNL     1     -36.008  27.801   1.513  0.00  0.00    +0.241 C 
ATOM     15  C   UNL     1     -35.881  27.871  -0.004  0.00  0.00    +0.149 C 
ATOM     16  C   UNL     1     -40.212  25.502   0.997  0.00  0.00    +0.050 C 
ATOM     17  C   UNL     1     -34.517  28.440  -0.375  0.00  0.00    +0.031 C 
ATOM     18  C   UNL     1     -39.768  26.801   0.488  0.00  0.00    +0.019 C 
ATOM     19  C   UNL     1     -41.483  25.380   1.414  0.00  0.00    +0.016 C 
ATOM     20  C   UNL     1     -38.302  28.416  -0.609  0.00  0.00    +0.246 C 
ATOM     21  C   UNL     1     -38.668  27.025  -0.247  0.00  0.00    +0.059 C 
ATOM     22  H   UNL     1     -35.762  25.768   1.363  0.00  0.00    +0.150 HD
ATOM     23  H   UNL     1     -38.363  24.733   0.757  0.00  0.00    +0.155 HD
ATOM     24  H   UNL     1     -36.707  29.653  -0.733  0.00  0.00    +0.150 HD
ENDROOT
BRANCH  12  25
ATOM     25  C   UNL     1     -34.629  26.391   4.086  0.00  0.00    +0.029 C 
ATOM     26  C   UNL     1     -33.582  25.480   3.447  0.00  0.00    +0.002 C 
ATOM     27  C   UNL     1     -34.721  26.129   5.589  0.00  0.00    +0.002 C 
ENDBRANCH  12  25
BRANCH   9  28
ATOM     28  C   UNL     1     -35.961  21.850   2.745  0.00  0.00    +0.041 C 
ATOM     29  C   UNL     1     -35.515  21.750   4.204  0.00  0.00    +0.004 C 
BRANCH  28  30
ATOM     30  C   UNL     1     -34.854  22.406   1.829  0.00  0.00    +0.004 C 
BRANCH  30  31
ATOM     31  C   UNL     1     -34.482  21.467   0.679  0.00  0.00    +0.000 C 
ATOM     32  C   UNL     1     -34.201  20.058   1.183  0.00  0.00    +0.000 C 
ENDBRANCH  30  31
ENDBRANCH  28  30
ENDBRANCH   9  28
BRANCH  10  33
ATOM     33  C   UNL     1     -38.389  20.907   1.273  0.00  0.00    +0.044 C 
BRANCH  33  34
ATOM     34  C   UNL     1     -38.793  20.556  -0.146  0.00  0.00    +0.138 C 
BRANCH  34  35
ATOM     35  O   UNL     1     -40.189  20.289  -0.161  0.00  0.00    -0.382 OA
ATOM     36  H   UNL     1     -40.642  20.912   0.430  0.00  0.00    +0.210 HD
ENDBRANCH  34  35
ENDBRANCH  33  34
ENDBRANCH  10  33
TORSDOF 7
ENDMDL
MODEL 9
REMARK VINA RESULT:      -4.9      2.401      6.037
REMARK  Name = 60149579
REMARK  7 active torsions:
REMARK  status: ('A' for Active; 'I' for Inactive)
REMARK    1  A    between atoms: C_9  and  C_28
REMARK    2  A    between atoms: C_10  and  C_33
REMARK    3  A    between atoms: C_12  and  C_25
REMARK    4  A    between atoms: C_28  and  C_30
REMARK    5  A    between atoms: C_30  and  C_31
REMARK    6  A    between atoms: C_33  and  C_34
REMARK    7  A    between atoms: C_34  and  O_35
REMARK                            x       y       z     vdW  Elec       q    Type
REMARK                         _______ _______ _______ _____ _____    ______ ____
ROOT
ATOM      1  O   UNL     1     -35.206  23.929   0.704  0.00  0.00    -0.451 OA
ATOM      2  O   UNL     1     -36.858  20.969   2.821  0.00  0.00    -0.275 OA
ATOM      3  O   UNL     1     -33.543  22.886  -0.494  0.00  0.00    -0.248 OA
ATOM      4  O   UNL     1     -31.830  26.511   2.812  0.00  0.00    -0.273 OA
ATOM      5  O   UNL     1     -33.718  26.261   6.749  0.00  0.00    -0.270 OA
ATOM      6  N   UNL     1     -33.691  25.851   1.588  0.00  0.00    -0.295 N 
ATOM      7  N   UNL     1     -35.984  23.068   3.392  0.00  0.00    -0.284 N 
ATOM      8  N   UNL     1     -33.664  27.373   4.740  0.00  0.00    -0.295 N 
ATOM      9  C   UNL     1     -36.192  22.957   0.267  0.00  0.00    +0.177 C 
ATOM     10  C   UNL     1     -37.283  22.851   1.359  0.00  0.00    +0.119 C 
ATOM     11  C   UNL     1     -36.697  22.168   2.607  0.00  0.00    +0.229 C 
ATOM     12  C   UNL     1     -33.003  24.886   0.742  0.00  0.00    +0.171 C 
ATOM     13  C   UNL     1     -33.932  23.787   0.242  0.00  0.00    +0.335 C 
ATOM     14  C   UNL     1     -33.032  26.587   2.564  0.00  0.00    +0.241 C 
ATOM     15  C   UNL     1     -33.961  27.533   3.315  0.00  0.00    +0.149 C 
ATOM     16  C   UNL     1     -35.306  22.848   4.582  0.00  0.00    +0.050 C 
ATOM     17  C   UNL     1     -33.708  28.964   2.857  0.00  0.00    +0.031 C 
ATOM     18  C   UNL     1     -34.632  23.996   5.194  0.00  0.00    +0.019 C 
ATOM     19  C   UNL     1     -35.186  21.648   5.175  0.00  0.00    +0.016 C 
ATOM     20  C   UNL     1     -34.055  26.338   5.570  0.00  0.00    +0.246 C 
ATOM     21  C   UNL     1     -34.890  25.287   4.938  0.00  0.00    +0.059 C 
ATOM     22  H   UNL     1     -34.658  25.987   1.463  0.00  0.00    +0.150 HD
ATOM     23  H   UNL     1     -35.957  23.994   3.056  0.00  0.00    +0.155 HD
ATOM     24  H   UNL     1     -33.125  28.085   5.155  0.00  0.00    +0.150 HD
ENDROOT
BRANCH  12  25
ATOM     25  C   UNL     1     -32.360  25.592  -0.447  0.00  0.00    +0.029 C 
ATOM     26  C   UNL     1     -30.846  25.686  -0.262  0.00  0.00    +0.002 C 
ATOM     27  C   UNL     1     -32.963  26.983  -0.639  0.00  0.00    +0.002 C 
ENDBRANCH  12  25
BRANCH   9  28
ATOM     28  C   UNL     1     -36.734  23.434  -1.081  0.00  0.00    +0.041 C 
ATOM     29  C   UNL     1     -36.360  22.433  -2.174  0.00  0.00    +0.004 C 
BRANCH  28  30
ATOM     30  C   UNL     1     -36.214  24.853  -1.381  0.00  0.00    +0.004 C 
BRANCH  30  31
ATOM     31  C   UNL     1     -36.295  25.233  -2.862  0.00  0.00    +0.000 C 
ATOM     32  C   UNL     1     -34.943  25.691  -3.391  0.00  0.00    +0.000 C 
ENDBRANCH  30  31
ENDBRANCH  28  30
ENDBRANCH   9  28
BRANCH  10  33
ATOM     33  C   UNL     1     -38.521  22.076   0.898  0.00  0.00    +0.044 C 
BRANCH  33  34
ATOM     34  C   UNL     1     -39.684  22.275   1.850  0.00  0.00    +0.138 C 
BRANCH  34  35
ATOM     35  O   UNL     1     -40.087  21.002   2.338  0.00  0.00    -0.382 OA
ATOM     36  H   UNL     1     -39.801  20.906   3.261  0.00  0.00    +0.210 HD
ENDBRANCH  34  35
ENDBRANCH  33  34
ENDBRANCH  10  33
TORSDOF 7
ENDMDL
