MODEL 1
REMARK VINA RESULT:      -5.0      0.000      0.000
REMARK  Name = 191424
REMARK  7 active torsions:
REMARK  status: ('A' for Active; 'I' for Inactive)
REMARK    1  A    between atoms: N_4  and  N_12
REMARK    2  A    between atoms: C_7  and  C_13
REMARK    3  A    between atoms: C_13  and  C_14
REMARK    4  A    between atoms: C_14  and  C_15
REMARK    5  A    between atoms: C_15  and  C_16
REMARK    6  A    between atoms: C_16  and  C_18
REMARK    7  A    between atoms: C_18  and  O_19
REMARK                            x       y       z     vdW  Elec       q    Type
REMARK                         _______ _______ _______ _____ _____    ______ ____
ROOT
ATOM      1  S   UNL     1     -35.759  25.261   1.669  0.00  0.00    -0.138 S 
ATOM      2  O   UNL     1     -35.022  23.263   5.965  0.00  0.00    -0.251 OA
ATOM      3  N   UNL     1     -36.718  23.645   4.396  0.00  0.00    -0.287 N 
ATOM      4  N   UNL     1     -35.514  25.399   5.102  0.00  0.00    -0.163 N 
ATOM      5  C   UNL     1     -37.324  24.787   3.734  0.00  0.00    +0.104 C 
ATOM      6  C   UNL     1     -36.430  25.985   4.145  0.00  0.00    +0.127 C 
ATOM      7  C   UNL     1     -37.386  24.676   2.209  0.00  0.00    +0.067 C 
ATOM      8  C   UNL     1     -35.718  26.564   2.920  0.00  0.00    +0.081 C 
ATOM      9  C   UNL     1     -35.662  24.017   5.245  0.00  0.00    +0.320 C 
ATOM     10  H   UNL     1     -37.014  22.715   4.266  0.00  0.00    +0.151 HD
ENDROOT
BRANCH   4  12
ATOM     11  O   UNL     1     -33.424  26.061   5.416  0.00  0.00    -0.078 OA
ATOM     12  N   UNL     1     -34.565  26.169   5.877  0.00  0.00    +0.054 NA
ENDBRANCH   4  12
BRANCH   7  13
ATOM     13  C   UNL     1     -37.707  23.296   1.661  0.00  0.00    +0.013 C 
BRANCH  13  14
ATOM     14  C   UNL     1     -36.852  22.903   0.453  0.00  0.00    +0.001 C 
BRANCH  14  15
ATOM     15  C   UNL     1     -36.284  21.480   0.478  0.00  0.00    +0.012 C 
BRANCH  15  16
ATOM     16  C   UNL     1     -35.175  21.286   1.512  0.00  0.00    +0.109 C 
BRANCH  16  18
ATOM     17  O   UNL     1     -35.239  20.760   3.889  0.00  0.00    -0.250 OA
ATOM     18  C   UNL     1     -35.683  20.601   2.760  0.00  0.00    +0.314 C 
BRANCH  18  19
ATOM     19  O   UNL     1     -36.712  19.759   2.479  0.00  0.00    -0.480 OA
ATOM     20  H   UNL     1     -36.566  18.835   2.449  0.00  0.00    +0.295 HD
ENDBRANCH  18  19
ENDBRANCH  16  18
ENDBRANCH  15  16
ENDBRANCH  14  15
ENDBRANCH  13  14
ENDBRANCH   7  13
TORSDOF 7
ENDMDL
MODEL 2
REMARK VINA RESULT:      -5.0      3.358      5.212
REMARK  Name = 191424
REMARK  7 active torsions:
REMARK  status: ('A' for Active; 'I' for Inactive)
REMARK    1  A    between atoms: N_4  and  N_12
REMARK    2  A    between atoms: C_7  and  C_13
REMARK    3  A    between atoms: C_13  and  C_14
REMARK    4  A    between atoms: C_14  and  C_15
REMARK    5  A    between atoms: C_15  and  C_16
REMARK    6  A    between atoms: C_16  and  C_18
REMARK    7  A    between atoms: C_18  and  O_19
REMARK                            x       y       z     vdW  Elec       q    Type
REMARK                         _______ _______ _______ _____ _____    ______ ____
ROOT
ATOM      1  S   UNL     1     -38.258  22.826   1.518  0.00  0.00    -0.138 S 
ATOM      2  O   UNL     1     -37.399  27.544   1.600  0.00  0.00    -0.251 OA
ATOM      3  N   UNL     1     -37.123  25.615   2.899  0.00  0.00    -0.287 N 
ATOM      4  N   UNL     1     -39.175  26.090   2.131  0.00  0.00    -0.163 N 
ATOM      5  C   UNL     1     -37.968  24.578   3.465  0.00  0.00    +0.104 C 
ATOM      6  C   UNL     1     -39.367  24.849   2.854  0.00  0.00    +0.127 C 
ATOM      7  C   UNL     1     -37.521  23.150   3.141  0.00  0.00    +0.067 C 
ATOM      8  C   UNL     1     -39.786  23.691   1.944  0.00  0.00    +0.081 C 
ATOM      9  C   UNL     1     -37.852  26.541   2.136  0.00  0.00    +0.320 C 
ATOM     10  H   UNL     1     -36.150  25.664   3.036  0.00  0.00    +0.151 HD
ENDROOT
BRANCH   4  12
ATOM     11  O   UNL     1     -41.148  27.080   2.312  0.00  0.00    -0.078 OA
ATOM     12  N   UNL     1     -40.251  26.825   1.502  0.00  0.00    +0.054 NA
ENDBRANCH   4  12
BRANCH   7  13
ATOM     13  C   UNL     1     -36.021  22.912   3.144  0.00  0.00    +0.013 C 
BRANCH  13  14
ATOM     14  C   UNL     1     -35.485  22.401   4.484  0.00  0.00    +0.001 C 
BRANCH  14  15
ATOM     15  C   UNL     1     -35.212  23.475   5.542  0.00  0.00    +0.012 C 
BRANCH  15  16
ATOM     16  C   UNL     1     -34.310  24.604   5.042  0.00  0.00    +0.109 C 
BRANCH  16  18
ATOM     17  O   UNL     1     -35.863  26.419   5.515  0.00  0.00    -0.250 OA
ATOM     18  C   UNL     1     -34.736  25.948   5.588  0.00  0.00    +0.314 C 
BRANCH  18  19
ATOM     19  O   UNL     1     -33.698  26.594   6.179  0.00  0.00    -0.480 OA
ATOM     20  H   UNL     1     -33.390  27.405   5.827  0.00  0.00    +0.295 HD
ENDBRANCH  18  19
ENDBRANCH  16  18
ENDBRANCH  15  16
ENDBRANCH  14  15
ENDBRANCH  13  14
ENDBRANCH   7  13
TORSDOF 7
ENDMDL
MODEL 3
REMARK VINA RESULT:      -5.0      2.304      2.533
REMARK  Name = 191424
REMARK  7 active torsions:
REMARK  status: ('A' for Active; 'I' for Inactive)
REMARK    1  A    between atoms: N_4  and  N_12
REMARK    2  A    between atoms: C_7  and  C_13
REMARK    3  A    between atoms: C_13  and  C_14
REMARK    4  A    between atoms: C_14  and  C_15
REMARK    5  A    between atoms: C_15  and  C_16
REMARK    6  A    between atoms: C_16  and  C_18
REMARK    7  A    between atoms: C_18  and  O_19
REMARK                            x       y       z     vdW  Elec       q    Type
REMARK                         _______ _______ _______ _____ _____    ______ ____
ROOT
ATOM      1  S   UNL     1     -34.957  23.353   1.597  0.00  0.00    -0.138 S 
ATOM      2  O   UNL     1     -35.073  22.566   6.326  0.00  0.00    -0.251 OA
ATOM      3  N   UNL     1     -36.392  22.338   4.405  0.00  0.00    -0.287 N 
ATOM      4  N   UNL     1     -35.507  24.349   4.849  0.00  0.00    -0.163 N 
ATOM      5  C   UNL     1     -36.912  23.199   3.357  0.00  0.00    +0.104 C 
ATOM      6  C   UNL     1     -36.222  24.564   3.607  0.00  0.00    +0.127 C 
ATOM      7  C   UNL     1     -36.618  22.714   1.935  0.00  0.00    +0.067 C 
ATOM      8  C   UNL     1     -35.293  24.915   2.442  0.00  0.00    +0.081 C 
ATOM      9  C   UNL     1     -35.586  23.035   5.319  0.00  0.00    +0.320 C 
ATOM     10  H   UNL     1     -36.584  21.374   4.467  0.00  0.00    +0.151 HD
ENDROOT
BRANCH   4  12
ATOM     11  O   UNL     1     -35.484  26.436   5.589  0.00  0.00    -0.078 OA
ATOM     12  N   UNL     1     -34.816  25.398   5.567  0.00  0.00    +0.054 NA
ENDBRANCH   4  12
BRANCH   7  13
ATOM     13  C   UNL     1     -36.707  21.214   1.718  0.00  0.00    +0.013 C 
BRANCH  13  14
ATOM     14  C   UNL     1     -35.514  20.633   0.955  0.00  0.00    +0.001 C 
BRANCH  14  15
ATOM     15  C   UNL     1     -34.505  19.849   1.800  0.00  0.00    +0.012 C 
BRANCH  15  16
ATOM     16  C   UNL     1     -33.221  19.503   1.046  0.00  0.00    +0.109 C 
BRANCH  16  18
ATOM     17  O   UNL     1     -31.829  17.588   1.614  0.00  0.00    -0.250 OA
ATOM     18  C   UNL     1     -32.875  18.037   1.166  0.00  0.00    +0.314 C 
BRANCH  18  19
ATOM     19  O   UNL     1     -33.881  17.251   0.702  0.00  0.00    -0.480 OA
ATOM     20  H   UNL     1     -34.391  16.741   1.300  0.00  0.00    +0.295 HD
ENDBRANCH  18  19
ENDBRANCH  16  18
ENDBRANCH  15  16
ENDBRANCH  14  15
ENDBRANCH  13  14
ENDBRANCH   7  13
TORSDOF 7
ENDMDL
MODEL 4
REMARK VINA RESULT:      -4.9      3.612      5.309
REMARK  Name = 191424
REMARK  7 active torsions:
REMARK  status: ('A' for Active; 'I' for Inactive)
REMARK    1  A    between atoms: N_4  and  N_12
REMARK    2  A    between atoms: C_7  and  C_13
REMARK    3  A    between atoms: C_13  and  C_14
REMARK    4  A    between atoms: C_14  and  C_15
REMARK    5  A    between atoms: C_15  and  C_16
REMARK    6  A    between atoms: C_16  and  C_18
REMARK    7  A    between atoms: C_18  and  O_19
REMARK                            x       y       z     vdW  Elec       q    Type
REMARK                         _______ _______ _______ _____ _____    ______ ____
ROOT
ATOM      1  S   UNL     1     -37.262  24.636   1.423  0.00  0.00    -0.138 S 
ATOM      2  O   UNL     1     -41.220  27.228   2.204  0.00  0.00    -0.251 OA
ATOM      3  N   UNL     1     -39.584  26.005   3.348  0.00  0.00    -0.287 N 
ATOM      4  N   UNL     1     -40.679  24.998   1.671  0.00  0.00    -0.163 N 
ATOM      5  C   UNL     1     -39.066  24.647   3.344  0.00  0.00    +0.104 C 
ATOM      6  C   UNL     1     -39.750  23.982   2.122  0.00  0.00    +0.127 C 
ATOM      7  C   UNL     1     -37.545  24.551   3.210  0.00  0.00    +0.067 C 
ATOM      8  C   UNL     1     -38.710  23.616   1.060  0.00  0.00    +0.081 C 
ATOM      9  C   UNL     1     -40.578  26.201   2.375  0.00  0.00    +0.320 C 
ATOM     10  H   UNL     1     -39.275  26.707   3.965  0.00  0.00    +0.151 HD
ENDROOT
BRANCH   4  12
ATOM     11  O   UNL     1     -42.085  23.626   0.648  0.00  0.00    -0.078 OA
ATOM     12  N   UNL     1     -41.656  24.784   0.625  0.00  0.00    +0.054 NA
ENDBRANCH   4  12
BRANCH   7  13
ATOM     13  C   UNL     1     -36.749  25.603   3.964  0.00  0.00    +0.013 C 
BRANCH  13  14
ATOM     14  C   UNL     1     -36.238  25.125   5.326  0.00  0.00    +0.001 C 
BRANCH  14  15
ATOM     15  C   UNL     1     -34.986  24.243   5.292  0.00  0.00    +0.012 C 
BRANCH  15  16
ATOM     16  C   UNL     1     -35.152  22.923   6.044  0.00  0.00    +0.109 C 
BRANCH  16  18
ATOM     17  O   UNL     1     -35.477  21.840   3.888  0.00  0.00    -0.250 OA
ATOM     18  C   UNL     1     -35.346  21.758   5.101  0.00  0.00    +0.314 C 
BRANCH  18  19
ATOM     19  O   UNL     1     -35.363  20.576   5.771  0.00  0.00    -0.480 OA
ATOM     20  H   UNL     1     -35.345  19.769   5.297  0.00  0.00    +0.295 HD
ENDBRANCH  18  19
ENDBRANCH  16  18
ENDBRANCH  15  16
ENDBRANCH  14  15
ENDBRANCH  13  14
ENDBRANCH   7  13
TORSDOF 7
ENDMDL
MODEL 5
REMARK VINA RESULT:      -4.9      3.189      6.139
REMARK  Name = 191424
REMARK  7 active torsions:
REMARK  status: ('A' for Active; 'I' for Inactive)
REMARK    1  A    between atoms: N_4  and  N_12
REMARK    2  A    between atoms: C_7  and  C_13
REMARK    3  A    between atoms: C_13  and  C_14
REMARK    4  A    between atoms: C_14  and  C_15
REMARK    5  A    between atoms: C_15  and  C_16
REMARK    6  A    between atoms: C_16  and  C_18
REMARK    7  A    between atoms: C_18  and  O_19
REMARK                            x       y       z     vdW  Elec       q    Type
REMARK                         _______ _______ _______ _____ _____    ______ ____
ROOT
ATOM      1  S   UNL     1     -35.561  22.222   0.393  0.00  0.00    -0.138 S 
ATOM      2  O   UNL     1     -40.144  22.003   1.787  0.00  0.00    -0.251 OA
ATOM      3  N   UNL     1     -37.978  21.561   2.560  0.00  0.00    -0.287 N 
ATOM      4  N   UNL     1     -38.616  20.646   0.615  0.00  0.00    -0.163 N 
ATOM      5  C   UNL     1     -36.846  20.745   2.157  0.00  0.00    +0.104 C 
ATOM      6  C   UNL     1     -37.249  20.193   0.766  0.00  0.00    +0.127 C 
ATOM      7  C   UNL     1     -35.521  21.506   2.057  0.00  0.00    +0.067 C 
ATOM      8  C   UNL     1     -36.318  20.744  -0.318  0.00  0.00    +0.081 C 
ATOM      9  C   UNL     1     -39.051  21.469   1.658  0.00  0.00    +0.320 C 
ATOM     10  H   UNL     1     -37.992  22.115   3.373  0.00  0.00    +0.151 HD
ENDROOT
BRANCH   4  12
ATOM     11  O   UNL     1     -39.393  19.039  -0.696  0.00  0.00    -0.078 OA
ATOM     12  N   UNL     1     -39.475  20.253  -0.481  0.00  0.00    +0.054 NA
ENDBRANCH   4  12
BRANCH   7  13
ATOM     13  C   UNL     1     -35.283  22.558   3.126  0.00  0.00    +0.013 C 
BRANCH  13  14
ATOM     14  C   UNL     1     -35.294  21.997   4.550  0.00  0.00    +0.001 C 
BRANCH  14  15
ATOM     15  C   UNL     1     -35.466  23.030   5.668  0.00  0.00    +0.012 C 
BRANCH  15  16
ATOM     16  C   UNL     1     -35.210  24.466   5.212  0.00  0.00    +0.109 C 
BRANCH  16  18
ATOM     17  O   UNL     1     -37.502  24.762   4.444  0.00  0.00    -0.250 OA
ATOM     18  C   UNL     1     -36.499  25.219   4.974  0.00  0.00    +0.314 C 
BRANCH  18  19
ATOM     19  O   UNL     1     -36.415  26.499   5.422  0.00  0.00    -0.480 OA
ATOM     20  H   UNL     1     -35.727  26.747   6.007  0.00  0.00    +0.295 HD
ENDBRANCH  18  19
ENDBRANCH  16  18
ENDBRANCH  15  16
ENDBRANCH  14  15
ENDBRANCH  13  14
ENDBRANCH   7  13
TORSDOF 7
ENDMDL
MODEL 6
REMARK VINA RESULT:      -4.9      3.168      4.180
REMARK  Name = 191424
REMARK  7 active torsions:
REMARK  status: ('A' for Active; 'I' for Inactive)
REMARK    1  A    between atoms: N_4  and  N_12
REMARK    2  A    between atoms: C_7  and  C_13
REMARK    3  A    between atoms: C_13  and  C_14
REMARK    4  A    between atoms: C_14  and  C_15
REMARK    5  A    between atoms: C_15  and  C_16
REMARK    6  A    between atoms: C_16  and  C_18
REMARK    7  A    between atoms: C_18  and  O_19
REMARK                            x       y       z     vdW  Elec       q    Type
REMARK                         _______ _______ _______ _____ _____    ______ ____
ROOT
ATOM      1  S   UNL     1     -34.667  22.797   0.975  0.00  0.00    -0.138 S 
ATOM      2  O   UNL     1     -35.369  22.496   5.709  0.00  0.00    -0.251 OA
ATOM      3  N   UNL     1     -35.576  21.232   3.749  0.00  0.00    -0.287 N 
ATOM      4  N   UNL     1     -36.559  23.245   3.819  0.00  0.00    -0.163 N 
ATOM      5  C   UNL     1     -36.268  21.339   2.476  0.00  0.00    +0.104 C 
ATOM      6  C   UNL     1     -36.863  22.770   2.485  0.00  0.00    +0.127 C 
ATOM      7  C   UNL     1     -35.370  21.151   1.250  0.00  0.00    +0.067 C 
ATOM      8  C   UNL     1     -36.219  23.623   1.389  0.00  0.00    +0.081 C 
ATOM      9  C   UNL     1     -35.784  22.354   4.567  0.00  0.00    +0.320 C 
ATOM     10  H   UNL     1     -35.024  20.459   4.009  0.00  0.00    +0.151 HD
ENDROOT
BRANCH   4  12
ATOM     11  O   UNL     1     -38.213  24.705   4.009  0.00  0.00    -0.078 OA
ATOM     12  N   UNL     1     -37.045  24.499   4.353  0.00  0.00    +0.054 NA
ENDBRANCH   4  12
BRANCH   7  13
ATOM     13  C   UNL     1     -34.295  20.085   1.377  0.00  0.00    +0.013 C 
BRANCH  13  14
ATOM     14  C   UNL     1     -33.069  20.344   0.498  0.00  0.00    +0.001 C 
BRANCH  14  15
ATOM     15  C   UNL     1     -31.961  19.290   0.579  0.00  0.00    +0.012 C 
BRANCH  15  16
ATOM     16  C   UNL     1     -32.366  18.041   1.360  0.00  0.00    +0.109 C 
BRANCH  16  18
ATOM     17  O   UNL     1     -33.710  16.662  -0.131  0.00  0.00    -0.250 OA
ATOM     18  C   UNL     1     -32.651  16.872   0.444  0.00  0.00    +0.314 C 
BRANCH  18  19
ATOM     19  O   UNL     1     -31.572  16.055   0.334  0.00  0.00    -0.480 OA
ATOM     20  H   UNL     1     -31.689  15.127   0.285  0.00  0.00    +0.295 HD
ENDBRANCH  18  19
ENDBRANCH  16  18
ENDBRANCH  15  16
ENDBRANCH  14  15
ENDBRANCH  13  14
ENDBRANCH   7  13
TORSDOF 7
ENDMDL
MODEL 7
REMARK VINA RESULT:      -4.6      3.013      6.000
REMARK  Name = 191424
REMARK  7 active torsions:
REMARK  status: ('A' for Active; 'I' for Inactive)
REMARK    1  A    between atoms: N_4  and  N_12
REMARK    2  A    between atoms: C_7  and  C_13
REMARK    3  A    between atoms: C_13  and  C_14
REMARK    4  A    between atoms: C_14  and  C_15
REMARK    5  A    between atoms: C_15  and  C_16
REMARK    6  A    between atoms: C_16  and  C_18
REMARK    7  A    between atoms: C_18  and  O_19
REMARK                            x       y       z     vdW  Elec       q    Type
REMARK                         _______ _______ _______ _____ _____    ______ ____
ROOT
ATOM      1  S   UNL     1     -33.709  25.682   3.001  0.00  0.00    -0.138 S 
ATOM      2  O   UNL     1     -38.266  24.333   3.644  0.00  0.00    -0.251 OA
ATOM      3  N   UNL     1     -36.833  26.150   3.999  0.00  0.00    -0.287 N 
ATOM      4  N   UNL     1     -36.219  24.146   4.793  0.00  0.00    -0.163 N 
ATOM      5  C   UNL     1     -35.587  26.407   4.702  0.00  0.00    +0.104 C 
ATOM      6  C   UNL     1     -35.113  25.005   5.164  0.00  0.00    +0.127 C 
ATOM      7  C   UNL     1     -34.505  27.072   3.847  0.00  0.00    +0.067 C 
ATOM      8  C   UNL     1     -33.806  24.626   4.464  0.00  0.00    +0.081 C 
ATOM      9  C   UNL     1     -37.230  24.806   4.090  0.00  0.00    +0.320 C 
ATOM     10  H   UNL     1     -37.341  26.841   3.516  0.00  0.00    +0.151 HD
ENDROOT
BRANCH   4  12
ATOM     11  O   UNL     1     -35.941  22.566   6.320  0.00  0.00    -0.078 OA
ATOM     12  N   UNL     1     -36.301  22.746   5.153  0.00  0.00    +0.054 NA
ENDBRANCH   4  12
BRANCH   7  13
ATOM     13  C   UNL     1     -34.992  28.130   2.872  0.00  0.00    +0.013 C 
BRANCH  13  14
ATOM     14  C   UNL     1     -34.306  29.488   3.049  0.00  0.00    +0.001 C 
BRANCH  14  15
ATOM     15  C   UNL     1     -32.786  29.491   2.867  0.00  0.00    +0.012 C 
BRANCH  15  16
ATOM     16  C   UNL     1     -32.030  30.033   4.080  0.00  0.00    +0.109 C 
BRANCH  16  18
ATOM     17  O   UNL     1     -32.246  29.040   6.293  0.00  0.00    -0.250 OA
ATOM     18  C   UNL     1     -31.836  28.975   5.142  0.00  0.00    +0.314 C 
BRANCH  18  19
ATOM     19  O   UNL     1     -31.131  27.917   4.664  0.00  0.00    -0.480 OA
ATOM     20  H   UNL     1     -30.214  27.849   4.836  0.00  0.00    +0.295 HD
ENDBRANCH  18  19
ENDBRANCH  16  18
ENDBRANCH  15  16
ENDBRANCH  14  15
ENDBRANCH  13  14
ENDBRANCH   7  13
TORSDOF 7
ENDMDL
MODEL 8
REMARK VINA RESULT:      -4.6      3.051      5.225
REMARK  Name = 191424
REMARK  7 active torsions:
REMARK  status: ('A' for Active; 'I' for Inactive)
REMARK    1  A    between atoms: N_4  and  N_12
REMARK    2  A    between atoms: C_7  and  C_13
REMARK    3  A    between atoms: C_13  and  C_14
REMARK    4  A    between atoms: C_14  and  C_15
REMARK    5  A    between atoms: C_15  and  C_16
REMARK    6  A    between atoms: C_16  and  C_18
REMARK    7  A    between atoms: C_18  and  O_19
REMARK                            x       y       z     vdW  Elec       q    Type
REMARK                         _______ _______ _______ _____ _____    ______ ____
ROOT
ATOM      1  S   UNL     1     -35.626  23.204   1.396  0.00  0.00    -0.138 S 
ATOM      2  O   UNL     1     -38.858  26.321   3.081  0.00  0.00    -0.251 OA
ATOM      3  N   UNL     1     -38.142  24.108   3.352  0.00  0.00    -0.287 N 
ATOM      4  N   UNL     1     -38.676  24.803   1.289  0.00  0.00    -0.163 N 
ATOM      5  C   UNL     1     -37.992  22.924   2.523  0.00  0.00    +0.104 C 
ATOM      6  C   UNL     1     -38.264  23.430   1.083  0.00  0.00    +0.127 C 
ATOM      7  C   UNL     1     -36.609  22.271   2.598  0.00  0.00    +0.067 C 
ATOM      8  C   UNL     1     -37.000  23.311   0.227  0.00  0.00    +0.081 C 
ATOM      9  C   UNL     1     -38.591  25.220   2.620  0.00  0.00    +0.320 C 
ATOM     10  H   UNL     1     -37.953  24.128   4.318  0.00  0.00    +0.151 HD
ENDROOT
BRANCH   4  12
ATOM     11  O   UNL     1     -40.178  25.167  -0.298  0.00  0.00    -0.078 OA
ATOM     12  N   UNL     1     -39.175  25.657   0.232  0.00  0.00    +0.054 NA
ENDBRANCH   4  12
BRANCH   7  13
ATOM     13  C   UNL     1     -35.962  22.253   3.972  0.00  0.00    +0.013 C 
BRANCH  13  14
ATOM     14  C   UNL     1     -34.969  23.395   4.197  0.00  0.00    +0.001 C 
BRANCH  14  15
ATOM     15  C   UNL     1     -35.011  24.048   5.582  0.00  0.00    +0.012 C 
BRANCH  15  16
ATOM     16  C   UNL     1     -34.508  25.491   5.589  0.00  0.00    +0.109 C 
BRANCH  16  18
ATOM     17  O   UNL     1     -35.128  27.237   4.010  0.00  0.00    -0.250 OA
ATOM     18  C   UNL     1     -35.452  26.420   4.860  0.00  0.00    +0.314 C 
BRANCH  18  19
ATOM     19  O   UNL     1     -36.735  26.246   5.272  0.00  0.00    -0.480 OA
ATOM     20  H   UNL     1     -37.434  26.679   4.823  0.00  0.00    +0.295 HD
ENDBRANCH  18  19
ENDBRANCH  16  18
ENDBRANCH  15  16
ENDBRANCH  14  15
ENDBRANCH  13  14
ENDBRANCH   7  13
TORSDOF 7
ENDMDL
MODEL 9
REMARK VINA RESULT:      -4.5      2.771      3.640
REMARK  Name = 191424
REMARK  7 active torsions:
REMARK  status: ('A' for Active; 'I' for Inactive)
REMARK    1  A    between atoms: N_4  and  N_12
REMARK    2  A    between atoms: C_7  and  C_13
REMARK    3  A    between atoms: C_13  and  C_14
REMARK    4  A    between atoms: C_14  and  C_15
REMARK    5  A    between atoms: C_15  and  C_16
REMARK    6  A    between atoms: C_16  and  C_18
REMARK    7  A    between atoms: C_18  and  O_19
REMARK                            x       y       z     vdW  Elec       q    Type
REMARK                         _______ _______ _______ _____ _____    ______ ____
ROOT
ATOM      1  S   UNL     1     -35.120  22.495   1.447  0.00  0.00    -0.138 S 
ATOM      2  O   UNL     1     -35.225  22.655   6.239  0.00  0.00    -0.251 OA
ATOM      3  N   UNL     1     -36.616  22.914   4.373  0.00  0.00    -0.287 N 
ATOM      4  N   UNL     1     -34.727  24.117   4.460  0.00  0.00    -0.163 N 
ATOM      5  C   UNL     1     -36.662  23.744   3.181  0.00  0.00    +0.104 C 
ATOM      6  C   UNL     1     -35.310  24.502   3.191  0.00  0.00    +0.127 C 
ATOM      7  C   UNL     1     -36.817  22.964   1.873  0.00  0.00    +0.067 C 
ATOM      8  C   UNL     1     -34.453  24.083   1.993  0.00  0.00    +0.081 C 
ATOM      9  C   UNL     1     -35.479  23.168   5.157  0.00  0.00    +0.320 C 
ATOM     10  H   UNL     1     -37.304  22.250   4.605  0.00  0.00    +0.151 HD
ENDROOT
BRANCH   4  12
ATOM     11  O   UNL     1     -33.578  25.923   5.033  0.00  0.00    -0.078 OA
ATOM     12  N   UNL     1     -33.507  24.691   4.988  0.00  0.00    +0.054 NA
ENDBRANCH   4  12
BRANCH   7  13
ATOM     13  C   UNL     1     -37.745  21.763   1.927  0.00  0.00    +0.013 C 
BRANCH  13  14
ATOM     14  C   UNL     1     -39.146  22.046   1.379  0.00  0.00    +0.001 C 
BRANCH  14  15
ATOM     15  C   UNL     1     -40.020  22.966   2.237  0.00  0.00    +0.012 C 
BRANCH  15  16
ATOM     16  C   UNL     1     -40.148  24.381   1.673  0.00  0.00    +0.109 C 
BRANCH  16  18
ATOM     17  O   UNL     1     -40.112  26.640   2.582  0.00  0.00    -0.250 OA
ATOM     18  C   UNL     1     -40.044  25.431   2.756  0.00  0.00    +0.314 C 
BRANCH  18  19
ATOM     19  O   UNL     1     -39.855  24.866   3.977  0.00  0.00    -0.480 OA
ATOM     20  H   UNL     1     -40.549  24.388   4.385  0.00  0.00    +0.295 HD
ENDBRANCH  18  19
ENDBRANCH  16  18
ENDBRANCH  15  16
ENDBRANCH  14  15
ENDBRANCH  13  14
ENDBRANCH   7  13
TORSDOF 7
ENDMDL
