MODEL 1
REMARK VINA RESULT:      -5.3      0.000      0.000
REMARK  Name = 5487610
REMARK  6 active torsions:
REMARK  status: ('A' for Active; 'I' for Inactive)
REMARK    1  A    between atoms: C_4  and  C_17
REMARK    2  A    between atoms: C_7  and  C_14
REMARK    3  A    between atoms: C_8  and  S_9
REMARK    4  A    between atoms: C_14  and  O_15
REMARK    5  A    between atoms: C_17  and  O_19
REMARK    6  A    between atoms: O_19  and  S_20
REMARK                            x       y       z     vdW  Elec       q    Type
REMARK                         _______ _______ _______ _____ _____    ______ ____
ROOT
ATOM      1  O   UNL     1     -36.489  25.249   0.468  0.00  0.00    -0.274 OA
ATOM      2  N   UNL     1     -36.378  26.566   2.423  0.00  0.00    -0.253 N 
ATOM      3  C   UNL     1     -36.771  25.939   3.709  0.00  0.00    +0.097 C 
ATOM      4  C   UNL     1     -37.137  24.682   2.876  0.00  0.00    +0.125 C 
ATOM      5  C   UNL     1     -35.519  26.053   4.590  0.00  0.00    +0.068 C 
ATOM      6  C   UNL     1     -36.664  25.485   1.643  0.00  0.00    +0.233 C 
ATOM      7  C   UNL     1     -35.148  27.148   2.547  0.00  0.00    +0.144 C 
ATOM      8  C   UNL     1     -34.626  26.913   3.753  0.00  0.00    +0.112 C 
ENDROOT
BRANCH   8   9
ATOM      9  S   UNL     1     -33.092  27.445   4.248  0.00  0.00    +0.040 S 
ATOM     10  O   UNL     1     -33.004  26.738   5.720  0.00  0.00    -0.065 OA
ATOM     11  O   UNL     1     -33.098  28.889   4.459  0.00  0.00    -0.065 OA
ATOM     12  O   UNL     1     -32.055  26.844   3.414  0.00  0.00    -0.065 OA
ENDBRANCH   8   9
BRANCH   7  14
ATOM     13  O   UNL     1     -34.710  29.037   1.172  0.00  0.00    -0.244 OA
ATOM     14  C   UNL     1     -34.540  27.853   1.427  0.00  0.00    +0.353 C 
BRANCH  14  15
ATOM     15  O   UNL     1     -33.762  27.006   0.715  0.00  0.00    -0.476 OA
ATOM     16  H   UNL     1     -33.359  26.273   1.138  0.00  0.00    +0.295 HD
ENDBRANCH  14  15
ENDBRANCH   7  14
BRANCH   4  17
ATOM     17  C   UNL     1     -36.356  23.417   3.138  0.00  0.00    +0.158 C 
ATOM     18  C   UNL     1     -36.681  22.344   2.105  0.00  0.00    +0.035 C 
BRANCH  17  19
ATOM     19  O   UNL     1     -36.675  22.924   4.439  0.00  0.00    -0.202 OA
BRANCH  19  20
ATOM     20  S   UNL     1     -35.489  22.325   5.386  0.00  0.00    +0.239 S 
ATOM     21  O   UNL     1     -35.129  20.893   4.692  0.00  0.00    -0.022 OA
ATOM     22  O   UNL     1     -34.334  23.189   5.230  0.00  0.00    -0.116 OA
ATOM     23  O   UNL     1     -36.026  22.058   6.707  0.00  0.00    -0.116 OA
ENDBRANCH  19  20
ENDBRANCH  17  19
ENDBRANCH   4  17
TORSDOF 6
ENDMDL
MODEL 2
REMARK VINA RESULT:      -5.3      2.289      5.973
REMARK  Name = 5487610
REMARK  6 active torsions:
REMARK  status: ('A' for Active; 'I' for Inactive)
REMARK    1  A    between atoms: C_4  and  C_17
REMARK    2  A    between atoms: C_7  and  C_14
REMARK    3  A    between atoms: C_8  and  S_9
REMARK    4  A    between atoms: C_14  and  O_15
REMARK    5  A    between atoms: C_17  and  O_19
REMARK    6  A    between atoms: O_19  and  S_20
REMARK                            x       y       z     vdW  Elec       q    Type
REMARK                         _______ _______ _______ _____ _____    ______ ____
ROOT
ATOM      1  O   UNL     1     -35.156  22.697   5.874  0.00  0.00    -0.274 OA
ATOM      2  N   UNL     1     -36.665  23.023   4.089  0.00  0.00    -0.253 N 
ATOM      3  C   UNL     1     -37.033  24.416   3.733  0.00  0.00    +0.097 C 
ATOM      4  C   UNL     1     -36.167  24.854   4.944  0.00  0.00    +0.125 C 
ATOM      5  C   UNL     1     -36.600  24.564   2.268  0.00  0.00    +0.068 C 
ATOM      6  C   UNL     1     -35.876  23.350   5.153  0.00  0.00    +0.233 C 
ATOM      7  C   UNL     1     -36.248  22.353   2.974  0.00  0.00    +0.144 C 
ATOM      8  C   UNL     1     -36.216  23.163   1.913  0.00  0.00    +0.112 C 
ENDROOT
BRANCH   8   9
ATOM      9  S   UNL     1     -35.706  22.685   0.366  0.00  0.00    +0.040 S 
ATOM     10  O   UNL     1     -36.059  24.039  -0.482  0.00  0.00    -0.065 OA
ATOM     11  O   UNL     1     -36.560  21.618  -0.144  0.00  0.00    -0.065 OA
ATOM     12  O   UNL     1     -34.255  22.522   0.339  0.00  0.00    -0.065 OA
ENDBRANCH   8   9
BRANCH   7  14
ATOM     13  O   UNL     1     -34.746  20.560   3.400  0.00  0.00    -0.244 OA
ATOM     14  C   UNL     1     -35.850  20.954   3.049  0.00  0.00    +0.353 C 
BRANCH  14  15
ATOM     15  O   UNL     1     -36.879  20.160   2.675  0.00  0.00    -0.476 OA
ATOM     16  H   UNL     1     -37.197  19.499   3.259  0.00  0.00    +0.295 HD
ENDBRANCH  14  15
ENDBRANCH   7  14
BRANCH   4  17
ATOM     17  C   UNL     1     -34.946  25.696   4.664  0.00  0.00    +0.158 C 
ATOM     18  C   UNL     1     -34.065  25.822   5.902  0.00  0.00    +0.035 C 
BRANCH  17  19
ATOM     19  O   UNL     1     -35.353  26.999   4.247  0.00  0.00    -0.202 OA
BRANCH  19  20
ATOM     20  S   UNL     1     -34.559  27.740   3.030  0.00  0.00    +0.239 S 
ATOM     21  O   UNL     1     -33.676  28.884   3.788  0.00  0.00    -0.022 OA
ATOM     22  O   UNL     1     -33.633  26.775   2.467  0.00  0.00    -0.116 OA
ATOM     23  O   UNL     1     -35.520  28.412   2.175  0.00  0.00    -0.116 OA
ENDBRANCH  19  20
ENDBRANCH  17  19
ENDBRANCH   4  17
TORSDOF 6
ENDMDL
MODEL 3
REMARK VINA RESULT:      -5.1      2.925      4.980
REMARK  Name = 5487610
REMARK  6 active torsions:
REMARK  status: ('A' for Active; 'I' for Inactive)
REMARK    1  A    between atoms: C_4  and  C_17
REMARK    2  A    between atoms: C_7  and  C_14
REMARK    3  A    between atoms: C_8  and  S_9
REMARK    4  A    between atoms: C_14  and  O_15
REMARK    5  A    between atoms: C_17  and  O_19
REMARK    6  A    between atoms: O_19  and  S_20
REMARK                            x       y       z     vdW  Elec       q    Type
REMARK                         _______ _______ _______ _____ _____    ______ ____
ROOT
ATOM      1  O   UNL     1     -35.345  20.457   3.327  0.00  0.00    -0.274 OA
ATOM      2  N   UNL     1     -35.995  22.147   1.813  0.00  0.00    -0.253 N 
ATOM      3  C   UNL     1     -36.410  23.459   2.369  0.00  0.00    +0.097 C 
ATOM      4  C   UNL     1     -36.222  22.817   3.770  0.00  0.00    +0.125 C 
ATOM      5  C   UNL     1     -35.434  24.466   1.747  0.00  0.00    +0.068 C 
ATOM      6  C   UNL     1     -35.794  21.538   3.017  0.00  0.00    +0.233 C 
ATOM      7  C   UNL     1     -35.041  22.331   0.853  0.00  0.00    +0.144 C 
ATOM      8  C   UNL     1     -34.704  23.619   0.753  0.00  0.00    +0.112 C 
ENDROOT
BRANCH   8   9
ATOM      9  S   UNL     1     -33.518  24.214  -0.306  0.00  0.00    +0.040 S 
ATOM     10  O   UNL     1     -33.461  25.776   0.176  0.00  0.00    -0.065 OA
ATOM     11  O   UNL     1     -34.010  24.201  -1.680  0.00  0.00    -0.065 OA
ATOM     12  O   UNL     1     -32.220  23.617  -0.000  0.00  0.00    -0.065 OA
ENDBRANCH   8   9
BRANCH   7  14
ATOM     13  O   UNL     1     -34.956  20.708  -0.882  0.00  0.00    -0.244 OA
ATOM     14  C   UNL     1     -34.479  21.197   0.132  0.00  0.00    +0.353 C 
BRANCH  14  15
ATOM     15  O   UNL     1     -33.354  20.769   0.750  0.00  0.00    -0.476 OA
ATOM     16  H   UNL     1     -33.273  20.847   1.681  0.00  0.00    +0.295 HD
ENDBRANCH  14  15
ENDBRANCH   7  14
BRANCH   4  17
ATOM     17  C   UNL     1     -35.159  23.400   4.670  0.00  0.00    +0.158 C 
ATOM     18  C   UNL     1     -34.947  22.534   5.907  0.00  0.00    +0.035 C 
BRANCH  17  19
ATOM     19  O   UNL     1     -35.550  24.711   5.079  0.00  0.00    -0.202 OA
BRANCH  19  20
ATOM     20  S   UNL     1     -34.456  25.921   5.057  0.00  0.00    +0.239 S 
ATOM     21  O   UNL     1     -33.221  25.307   4.186  0.00  0.00    -0.022 OA
ATOM     22  O   UNL     1     -35.032  27.009   4.289  0.00  0.00    -0.116 OA
ATOM     23  O   UNL     1     -33.979  26.155   6.407  0.00  0.00    -0.116 OA
ENDBRANCH  19  20
ENDBRANCH  17  19
ENDBRANCH   4  17
TORSDOF 6
ENDMDL
MODEL 4
REMARK VINA RESULT:      -5.0      2.090      4.117
REMARK  Name = 5487610
REMARK  6 active torsions:
REMARK  status: ('A' for Active; 'I' for Inactive)
REMARK    1  A    between atoms: C_4  and  C_17
REMARK    2  A    between atoms: C_7  and  C_14
REMARK    3  A    between atoms: C_8  and  S_9
REMARK    4  A    between atoms: C_14  and  O_15
REMARK    5  A    between atoms: C_17  and  O_19
REMARK    6  A    between atoms: O_19  and  S_20
REMARK                            x       y       z     vdW  Elec       q    Type
REMARK                         _______ _______ _______ _____ _____    ______ ____
ROOT
ATOM      1  O   UNL     1     -33.720  28.397   3.821  0.00  0.00    -0.274 OA
ATOM      2  N   UNL     1     -34.129  27.034   1.939  0.00  0.00    -0.253 N 
ATOM      3  C   UNL     1     -34.042  25.562   2.112  0.00  0.00    +0.097 C 
ATOM      4  C   UNL     1     -33.602  25.855   3.571  0.00  0.00    +0.125 C 
ATOM      5  C   UNL     1     -35.433  25.047   1.721  0.00  0.00    +0.068 C 
ATOM      6  C   UNL     1     -33.766  27.350   3.216  0.00  0.00    +0.233 C 
ATOM      7  C   UNL     1     -35.318  27.362   1.352  0.00  0.00    +0.144 C 
ATOM      8  C   UNL     1     -36.083  26.281   1.181  0.00  0.00    +0.112 C 
ENDROOT
BRANCH   8   9
ATOM      9  S   UNL     1     -37.646  26.315   0.521  0.00  0.00    +0.040 S 
ATOM     10  O   UNL     1     -38.084  24.755   0.740  0.00  0.00    -0.065 OA
ATOM     11  O   UNL     1     -37.585  26.551  -0.918  0.00  0.00    -0.065 OA
ATOM     12  O   UNL     1     -38.528  27.134   1.349  0.00  0.00    -0.065 OA
ENDBRANCH   8   9
BRANCH   7  14
ATOM     13  O   UNL     1     -35.336  29.331   0.020  0.00  0.00    -0.244 OA
ATOM     14  C   UNL     1     -35.644  28.750   1.051  0.00  0.00    +0.353 C 
BRANCH  14  15
ATOM     15  O   UNL     1     -36.334  29.295   2.078  0.00  0.00    -0.476 OA
ATOM     16  H   UNL     1     -36.091  29.099   2.962  0.00  0.00    +0.295 HD
ENDBRANCH  14  15
ENDBRANCH   7  14
BRANCH   4  17
ATOM     17  C   UNL     1     -34.501  25.373   4.684  0.00  0.00    +0.158 C 
ATOM     18  C   UNL     1     -34.153  26.047   6.006  0.00  0.00    +0.035 C 
BRANCH  17  19
ATOM     19  O   UNL     1     -34.360  23.960   4.829  0.00  0.00    -0.202 OA
BRANCH  19  20
ATOM     20  S   UNL     1     -35.692  23.023   4.923  0.00  0.00    +0.239 S 
ATOM     21  O   UNL     1     -36.917  24.069   4.665  0.00  0.00    -0.022 OA
ATOM     22  O   UNL     1     -35.656  22.107   3.799  0.00  0.00    -0.116 OA
ATOM     23  O   UNL     1     -35.819  22.511   6.275  0.00  0.00    -0.116 OA
ENDBRANCH  19  20
ENDBRANCH  17  19
ENDBRANCH   4  17
TORSDOF 6
ENDMDL
MODEL 5
REMARK VINA RESULT:      -4.9      1.832      5.389
REMARK  Name = 5487610
REMARK  6 active torsions:
REMARK  status: ('A' for Active; 'I' for Inactive)
REMARK    1  A    between atoms: C_4  and  C_17
REMARK    2  A    between atoms: C_7  and  C_14
REMARK    3  A    between atoms: C_8  and  S_9
REMARK    4  A    between atoms: C_14  and  O_15
REMARK    5  A    between atoms: C_17  and  O_19
REMARK    6  A    between atoms: O_19  and  S_20
REMARK                            x       y       z     vdW  Elec       q    Type
REMARK                         _______ _______ _______ _____ _____    ______ ____
ROOT
ATOM      1  O   UNL     1     -37.055  28.575   1.476  0.00  0.00    -0.274 OA
ATOM      2  N   UNL     1     -35.992  26.469   1.508  0.00  0.00    -0.253 N 
ATOM      3  C   UNL     1     -34.514  26.436   1.637  0.00  0.00    +0.097 C 
ATOM      4  C   UNL     1     -34.569  27.986   1.581  0.00  0.00    +0.125 C 
ATOM      5  C   UNL     1     -34.259  25.630   2.918  0.00  0.00    +0.068 C 
ATOM      6  C   UNL     1     -36.103  27.828   1.473  0.00  0.00    +0.233 C 
ATOM      7  C   UNL     1     -36.558  25.654   2.447  0.00  0.00    +0.144 C 
ATOM      8  C   UNL     1     -35.630  25.134   3.253  0.00  0.00    +0.112 C 
ENDROOT
BRANCH   8   9
ATOM      9  S   UNL     1     -35.971  24.109   4.563  0.00  0.00    +0.040 S 
ATOM     10  O   UNL     1     -34.451  23.747   5.046  0.00  0.00    -0.065 OA
ATOM     11  O   UNL     1     -36.584  22.871   4.094  0.00  0.00    -0.065 OA
ATOM     12  O   UNL     1     -36.602  24.863   5.643  0.00  0.00    -0.065 OA
ENDBRANCH   8   9
BRANCH   7  14
ATOM     13  O   UNL     1     -38.650  24.687   1.863  0.00  0.00    -0.244 OA
ATOM     14  C   UNL     1     -38.004  25.491   2.519  0.00  0.00    +0.353 C 
BRANCH  14  15
ATOM     15  O   UNL     1     -38.521  26.359   3.418  0.00  0.00    -0.476 OA
ATOM     16  H   UNL     1     -38.561  27.274   3.217  0.00  0.00    +0.295 HD
ENDBRANCH  14  15
ENDBRANCH   7  14
BRANCH   4  17
ATOM     17  C   UNL     1     -34.101  28.747   2.798  0.00  0.00    +0.158 C 
ATOM     18  C   UNL     1     -34.502  30.216   2.719  0.00  0.00    +0.035 C 
BRANCH  17  19
ATOM     19  O   UNL     1     -32.680  28.656   2.898  0.00  0.00    -0.202 OA
BRANCH  19  20
ATOM     20  S   UNL     1     -31.990  28.390   4.352  0.00  0.00    +0.239 S 
ATOM     21  O   UNL     1     -31.619  29.887   4.882  0.00  0.00    -0.022 OA
ATOM     22  O   UNL     1     -33.018  27.858   5.227  0.00  0.00    -0.116 OA
ATOM     23  O   UNL     1     -30.749  27.663   4.162  0.00  0.00    -0.116 OA
ENDBRANCH  19  20
ENDBRANCH  17  19
ENDBRANCH   4  17
TORSDOF 6
ENDMDL
MODEL 6
REMARK VINA RESULT:      -4.9      2.353      5.864
REMARK  Name = 5487610
REMARK  6 active torsions:
REMARK  status: ('A' for Active; 'I' for Inactive)
REMARK    1  A    between atoms: C_4  and  C_17
REMARK    2  A    between atoms: C_7  and  C_14
REMARK    3  A    between atoms: C_8  and  S_9
REMARK    4  A    between atoms: C_14  and  O_15
REMARK    5  A    between atoms: C_17  and  O_19
REMARK    6  A    between atoms: O_19  and  S_20
REMARK                            x       y       z     vdW  Elec       q    Type
REMARK                         _______ _______ _______ _____ _____    ______ ____
ROOT
ATOM      1  O   UNL     1     -38.148  27.762   1.096  0.00  0.00    -0.274 OA
ATOM      2  N   UNL     1     -36.141  26.623   1.592  0.00  0.00    -0.253 N 
ATOM      3  C   UNL     1     -34.863  27.360   1.429  0.00  0.00    +0.097 C 
ATOM      4  C   UNL     1     -35.720  28.536   0.890  0.00  0.00    +0.125 C 
ATOM      5  C   UNL     1     -34.223  27.330   2.823  0.00  0.00    +0.068 C 
ATOM      6  C   UNL     1     -36.945  27.630   1.145  0.00  0.00    +0.233 C 
ATOM      7  C   UNL     1     -36.197  26.060   2.836  0.00  0.00    +0.144 C 
ATOM      8  C   UNL     1     -35.132  26.403   3.564  0.00  0.00    +0.112 C 
ENDROOT
BRANCH   8   9
ATOM      9  S   UNL     1     -34.886  25.923   5.174  0.00  0.00    +0.040 S 
ATOM     10  O   UNL     1     -33.681  26.946   5.597  0.00  0.00    -0.065 OA
ATOM     11  O   UNL     1     -34.343  24.570   5.224  0.00  0.00    -0.065 OA
ATOM     12  O   UNL     1     -36.050  26.264   5.988  0.00  0.00    -0.065 OA
ENDBRANCH   8   9
BRANCH   7  14
ATOM     13  O   UNL     1     -37.426  24.046   3.125  0.00  0.00    -0.244 OA
ATOM     14  C   UNL     1     -37.345  25.261   3.242  0.00  0.00    +0.353 C 
BRANCH  14  15
ATOM     15  O   UNL     1     -38.301  26.061   3.766  0.00  0.00    -0.476 OA
ATOM     16  H   UNL     1     -38.297  26.257   4.683  0.00  0.00    +0.295 HD
ENDBRANCH  14  15
ENDBRANCH   7  14
BRANCH   4  17
ATOM     17  C   UNL     1     -35.716  29.823   1.679  0.00  0.00    +0.158 C 
ATOM     18  C   UNL     1     -36.724  30.819   1.116  0.00  0.00    +0.035 C 
BRANCH  17  19
ATOM     19  O   UNL     1     -34.413  30.404   1.635  0.00  0.00    -0.202 OA
BRANCH  19  20
ATOM     20  S   UNL     1     -33.872  31.265   2.910  0.00  0.00    +0.239 S 
ATOM     21  O   UNL     1     -32.361  30.697   3.145  0.00  0.00    -0.022 OA
ATOM     22  O   UNL     1     -33.757  32.647   2.481  0.00  0.00    -0.116 OA
ATOM     23  O   UNL     1     -34.662  30.930   4.080  0.00  0.00    -0.116 OA
ENDBRANCH  19  20
ENDBRANCH  17  19
ENDBRANCH   4  17
TORSDOF 6
ENDMDL
MODEL 7
REMARK VINA RESULT:      -4.8      2.790      5.597
REMARK  Name = 5487610
REMARK  6 active torsions:
REMARK  status: ('A' for Active; 'I' for Inactive)
REMARK    1  A    between atoms: C_4  and  C_17
REMARK    2  A    between atoms: C_7  and  C_14
REMARK    3  A    between atoms: C_8  and  S_9
REMARK    4  A    between atoms: C_14  and  O_15
REMARK    5  A    between atoms: C_17  and  O_19
REMARK    6  A    between atoms: O_19  and  S_20
REMARK                            x       y       z     vdW  Elec       q    Type
REMARK                         _______ _______ _______ _____ _____    ______ ____
ROOT
ATOM      1  O   UNL     1     -34.944  21.906   1.978  0.00  0.00    -0.274 OA
ATOM      2  N   UNL     1     -36.688  22.720   3.343  0.00  0.00    -0.253 N 
ATOM      3  C   UNL     1     -36.391  23.854   4.253  0.00  0.00    +0.097 C 
ATOM      4  C   UNL     1     -34.924  23.743   3.756  0.00  0.00    +0.125 C 
ATOM      5  C   UNL     1     -37.364  24.958   3.821  0.00  0.00    +0.068 C 
ATOM      6  C   UNL     1     -35.421  22.590   2.855  0.00  0.00    +0.233 C 
ATOM      7  C   UNL     1     -37.797  23.003   2.596  0.00  0.00    +0.144 C 
ATOM      8  C   UNL     1     -38.236  24.240   2.841  0.00  0.00    +0.112 C 
ENDROOT
BRANCH   8   9
ATOM      9  S   UNL     1     -39.567  24.949   2.062  0.00  0.00    +0.040 S 
ATOM     10  O   UNL     1     -39.744  26.299   2.969  0.00  0.00    -0.065 OA
ATOM     11  O   UNL     1     -40.763  24.136   2.256  0.00  0.00    -0.065 OA
ATOM     12  O   UNL     1     -39.197  25.377   0.715  0.00  0.00    -0.065 OA
ENDBRANCH   8   9
BRANCH   7  14
ATOM     13  O   UNL     1     -38.176  22.118   0.422  0.00  0.00    -0.244 OA
ATOM     14  C   UNL     1     -38.315  22.039   1.634  0.00  0.00    +0.353 C 
BRANCH  14  15
ATOM     15  O   UNL     1     -38.970  21.049   2.282  0.00  0.00    -0.476 OA
ATOM     16  H   UNL     1     -39.501  20.445   1.801  0.00  0.00    +0.295 HD
ENDBRANCH  14  15
ENDBRANCH   7  14
BRANCH   4  17
ATOM     17  C   UNL     1     -34.350  24.921   3.006  0.00  0.00    +0.158 C 
ATOM     18  C   UNL     1     -33.786  24.493   1.655  0.00  0.00    +0.035 C 
BRANCH  17  19
ATOM     19  O   UNL     1     -33.307  25.514   3.780  0.00  0.00    -0.202 OA
BRANCH  19  20
ATOM     20  S   UNL     1     -33.612  26.867   4.638  0.00  0.00    +0.239 S 
ATOM     21  O   UNL     1     -34.379  26.315   5.968  0.00  0.00    -0.022 OA
ATOM     22  O   UNL     1     -32.334  27.407   5.063  0.00  0.00    -0.116 OA
ATOM     23  O   UNL     1     -34.544  27.699   3.899  0.00  0.00    -0.116 OA
ENDBRANCH  19  20
ENDBRANCH  17  19
ENDBRANCH   4  17
TORSDOF 6
ENDMDL
MODEL 8
REMARK VINA RESULT:      -4.8      2.824      3.874
REMARK  Name = 5487610
REMARK  6 active torsions:
REMARK  status: ('A' for Active; 'I' for Inactive)
REMARK    1  A    between atoms: C_4  and  C_17
REMARK    2  A    between atoms: C_7  and  C_14
REMARK    3  A    between atoms: C_8  and  S_9
REMARK    4  A    between atoms: C_14  and  O_15
REMARK    5  A    between atoms: C_17  and  O_19
REMARK    6  A    between atoms: O_19  and  S_20
REMARK                            x       y       z     vdW  Elec       q    Type
REMARK                         _______ _______ _______ _____ _____    ______ ____
ROOT
ATOM      1  O   UNL     1     -36.918  26.538  -0.163  0.00  0.00    -0.274 OA
ATOM      2  N   UNL     1     -37.597  26.408   2.094  0.00  0.00    -0.253 N 
ATOM      3  C   UNL     1     -38.710  25.487   2.435  0.00  0.00    +0.097 C 
ATOM      4  C   UNL     1     -38.815  25.203   0.913  0.00  0.00    +0.125 C 
ATOM      5  C   UNL     1     -38.103  24.512   3.452  0.00  0.00    +0.068 C 
ATOM      6  C   UNL     1     -37.630  26.182   0.749  0.00  0.00    +0.233 C 
ATOM      7  C   UNL     1     -36.528  26.166   2.909  0.00  0.00    +0.144 C 
ATOM      8  C   UNL     1     -36.764  25.126   3.712  0.00  0.00    +0.112 C 
ENDROOT
BRANCH   8   9
ATOM      9  S   UNL     1     -35.642  24.511   4.829  0.00  0.00    +0.040 S 
ATOM     10  O   UNL     1     -35.520  25.787   5.845  0.00  0.00    -0.065 OA
ATOM     11  O   UNL     1     -34.339  24.334   4.196  0.00  0.00    -0.065 OA
ATOM     12  O   UNL     1     -36.233  23.409   5.584  0.00  0.00    -0.065 OA
ENDBRANCH   8   9
BRANCH   7  14
ATOM     13  O   UNL     1     -34.411  26.738   1.990  0.00  0.00    -0.244 OA
ATOM     14  C   UNL     1     -35.308  26.953   2.793  0.00  0.00    +0.353 C 
BRANCH  14  15
ATOM     15  O   UNL     1     -35.317  27.954   3.703  0.00  0.00    -0.476 OA
ATOM     16  H   UNL     1     -34.896  27.836   4.533  0.00  0.00    +0.295 HD
ENDBRANCH  14  15
ENDBRANCH   7  14
BRANCH   4  17
ATOM     17  C   UNL     1     -38.535  23.796   0.443  0.00  0.00    +0.158 C 
ATOM     18  C   UNL     1     -38.310  23.751  -1.064  0.00  0.00    +0.035 C 
BRANCH  17  19
ATOM     19  O   UNL     1     -39.641  22.956   0.775  0.00  0.00    -0.202 OA
BRANCH  19  20
ATOM     20  S   UNL     1     -39.367  21.461   1.368  0.00  0.00    +0.239 S 
ATOM     21  O   UNL     1     -39.544  20.493   0.067  0.00  0.00    -0.022 OA
ATOM     22  O   UNL     1     -37.974  21.403   1.769  0.00  0.00    -0.116 OA
ATOM     23  O   UNL     1     -40.413  21.128   2.317  0.00  0.00    -0.116 OA
ENDBRANCH  19  20
ENDBRANCH  17  19
ENDBRANCH   4  17
TORSDOF 6
ENDMDL
MODEL 9
REMARK VINA RESULT:      -4.7      2.617      4.159
REMARK  Name = 5487610
REMARK  6 active torsions:
REMARK  status: ('A' for Active; 'I' for Inactive)
REMARK    1  A    between atoms: C_4  and  C_17
REMARK    2  A    between atoms: C_7  and  C_14
REMARK    3  A    between atoms: C_8  and  S_9
REMARK    4  A    between atoms: C_14  and  O_15
REMARK    5  A    between atoms: C_17  and  O_19
REMARK    6  A    between atoms: O_19  and  S_20
REMARK                            x       y       z     vdW  Elec       q    Type
REMARK                         _______ _______ _______ _____ _____    ______ ____
ROOT
ATOM      1  O   UNL     1     -33.322  25.708   4.884  0.00  0.00    -0.274 OA
ATOM      2  N   UNL     1     -33.832  26.699   2.804  0.00  0.00    -0.253 N 
ATOM      3  C   UNL     1     -35.101  26.311   2.139  0.00  0.00    +0.097 C 
ATOM      4  C   UNL     1     -35.299  25.313   3.311  0.00  0.00    +0.125 C 
ATOM      5  C   UNL     1     -35.875  27.628   1.990  0.00  0.00    +0.068 C 
ATOM      6  C   UNL     1     -33.963  25.856   3.867  0.00  0.00    +0.233 C 
ATOM      7  C   UNL     1     -33.747  28.061   2.881  0.00  0.00    +0.144 C 
ATOM      8  C   UNL     1     -34.857  28.638   2.415  0.00  0.00    +0.112 C 
ENDROOT
BRANCH   8   9
ATOM      9  S   UNL     1     -35.123  30.314   2.396  0.00  0.00    +0.040 S 
ATOM     10  O   UNL     1     -36.617  30.360   1.731  0.00  0.00    -0.065 OA
ATOM     11  O   UNL     1     -34.211  30.964   1.460  0.00  0.00    -0.065 OA
ATOM     12  O   UNL     1     -35.239  30.824   3.760  0.00  0.00    -0.065 OA
ENDBRANCH   8   9
BRANCH   7  14
ATOM     13  O   UNL     1     -31.557  28.986   2.870  0.00  0.00    -0.244 OA
ATOM     14  C   UNL     1     -32.582  28.703   3.475  0.00  0.00    +0.353 C 
BRANCH  14  15
ATOM     15  O   UNL     1     -32.804  28.938   4.788  0.00  0.00    -0.476 OA
ATOM     16  H   UNL     1     -33.668  29.143   5.087  0.00  0.00    +0.295 HD
ENDBRANCH  14  15
ENDBRANCH   7  14
BRANCH   4  17
ATOM     17  C   UNL     1     -36.488  25.525   4.217  0.00  0.00    +0.158 C 
ATOM     18  C   UNL     1     -36.091  25.410   5.684  0.00  0.00    +0.035 C 
BRANCH  17  19
ATOM     19  O   UNL     1     -37.487  24.548   3.925  0.00  0.00    -0.202 OA
BRANCH  19  20
ATOM     20  S   UNL     1     -38.738  24.940   2.954  0.00  0.00    +0.239 S 
ATOM     21  O   UNL     1     -38.218  24.512   1.467  0.00  0.00    -0.022 OA
ATOM     22  O   UNL     1     -39.843  24.066   3.298  0.00  0.00    -0.116 OA
ATOM     23  O   UNL     1     -38.916  26.380   2.967  0.00  0.00    -0.116 OA
ENDBRANCH  19  20
ENDBRANCH  17  19
ENDBRANCH   4  17
TORSDOF 6
ENDMDL
