MODEL 1
REMARK VINA RESULT:      -5.4      0.000      0.000
REMARK  Name = 57348247
REMARK  5 active torsions:
REMARK  status: ('A' for Active; 'I' for Inactive)
REMARK    1  A    between atoms: C_3  and  C_10
REMARK    2  A    between atoms: C_3  and  C_21
REMARK    3  A    between atoms: C_7  and  O_25
REMARK    4  A    between atoms: N_9  and  N_13
REMARK    5  A    between atoms: N_14  and  C_18
REMARK                            x       y       z     vdW  Elec       q    Type
REMARK                         _______ _______ _______ _____ _____    ______ ____
ROOT
ATOM      1  O   UNL     1     -35.912  21.959   1.589  0.00  0.00    -0.226 OA
ATOM      2  N   UNL     1     -35.889  22.966   3.682  0.00  0.00    -0.241 N 
ATOM      3  C   UNL     1     -36.211  24.371   3.369  0.00  0.00    +0.133 C 
ATOM      4  C   UNL     1     -36.424  25.010   4.757  0.00  0.00    +0.029 C 
ATOM      5  C   UNL     1     -35.545  24.171   5.678  0.00  0.00    +0.024 C 
ATOM      6  C   UNL     1     -35.714  22.773   5.115  0.00  0.00    +0.097 C 
ATOM      7  C   UNL     1     -35.781  21.893   2.808  0.00  0.00    +0.402 C 
ENDROOT
BRANCH   3  10
ATOM      8  O   UNL     1     -34.148  24.307   2.157  0.00  0.00    -0.272 OA
ATOM      9  N   UNL     1     -34.991  26.367   2.833  0.00  0.00    -0.228 N 
ATOM     10  C   UNL     1     -35.008  24.990   2.708  0.00  0.00    +0.254 C 
ATOM     11  H   UNL     1     -35.728  26.831   3.294  0.00  0.00    +0.173 HD
BRANCH   9  13
ATOM     12  O   UNL     1     -32.003  28.317   2.620  0.00  0.00    -0.251 OA
ATOM     13  N   UNL     1     -33.933  27.089   2.308  0.00  0.00    -0.191 N 
ATOM     14  N   UNL     1     -33.108  27.470   4.460  0.00  0.00    -0.289 N 
ATOM     15  C   UNL     1     -33.958  27.179   0.862  0.00  0.00    +0.140 C 
ATOM     16  C   UNL     1     -32.942  27.674   3.094  0.00  0.00    +0.320 C 
ATOM     17  H   UNL     1     -33.884  26.945   4.764  0.00  0.00    +0.151 HD
BRANCH  14  18
ATOM     18  C   UNL     1     -32.198  27.989   5.452  0.00  0.00    +0.073 C 
ATOM     19  C   UNL     1     -32.520  27.409   6.823  0.00  0.00    +0.021 C 
ATOM     20  C   UNL     1     -32.241  29.512   5.474  0.00  0.00    +0.021 C 
ENDBRANCH  14  18
ENDBRANCH   9  13
ENDBRANCH   3  10
BRANCH   3  21
ATOM     21  C   UNL     1     -37.448  24.573   2.497  0.00  0.00    +0.023 C 
ATOM     22  C   UNL     1     -38.169  25.868   2.910  0.00  0.00    +0.002 C 
ATOM     23  C   UNL     1     -38.407  23.384   2.669  0.00  0.00    +0.002 C 
ATOM     24  C   UNL     1     -37.030  24.676   1.020  0.00  0.00    +0.002 C 
ENDBRANCH   3  21
BRANCH   7  25
ATOM     25  O   UNL     1     -35.524  20.708   3.425  0.00  0.00    -0.466 OA
ATOM     26  H   UNL     1     -35.592  20.641   4.357  0.00  0.00    +0.297 HD
ENDBRANCH   7  25
TORSDOF 5
ENDMDL
MODEL 2
REMARK VINA RESULT:      -5.4      2.692      3.834
REMARK  Name = 57348247
REMARK  5 active torsions:
REMARK  status: ('A' for Active; 'I' for Inactive)
REMARK    1  A    between atoms: C_3  and  C_10
REMARK    2  A    between atoms: C_3  and  C_21
REMARK    3  A    between atoms: C_7  and  O_25
REMARK    4  A    between atoms: N_9  and  N_13
REMARK    5  A    between atoms: N_14  and  C_18
REMARK                            x       y       z     vdW  Elec       q    Type
REMARK                         _______ _______ _______ _____ _____    ______ ____
ROOT
ATOM      1  O   UNL     1     -34.585  26.559   5.042  0.00  0.00    -0.226 OA
ATOM      2  N   UNL     1     -36.215  26.236   3.419  0.00  0.00    -0.241 N 
ATOM      3  C   UNL     1     -35.432  26.231   2.170  0.00  0.00    +0.133 C 
ATOM      4  C   UNL     1     -36.456  25.794   1.103  0.00  0.00    +0.029 C 
ATOM      5  C   UNL     1     -37.789  26.275   1.666  0.00  0.00    +0.024 C 
ATOM      6  C   UNL     1     -37.631  26.023   3.154  0.00  0.00    +0.097 C 
ATOM      7  C   UNL     1     -35.755  26.377   4.721  0.00  0.00    +0.402 C 
ENDROOT
BRANCH   3  10
ATOM      8  O   UNL     1     -34.444  27.955   0.835  0.00  0.00    -0.272 OA
ATOM      9  N   UNL     1     -35.229  28.489   2.958  0.00  0.00    -0.228 N 
ATOM     10  C   UNL     1     -34.986  27.643   1.892  0.00  0.00    +0.254 C 
ATOM     11  H   UNL     1     -35.672  28.148   3.770  0.00  0.00    +0.173 HD
BRANCH   9  13
ATOM     12  O   UNL     1     -33.362  31.504   3.405  0.00  0.00    -0.251 OA
ATOM     13  N   UNL     1     -34.849  29.818   2.879  0.00  0.00    -0.191 N 
ATOM     14  N   UNL     1     -32.955  29.365   4.169  0.00  0.00    -0.289 N 
ATOM     15  C   UNL     1     -35.767  30.636   2.113  0.00  0.00    +0.140 C 
ATOM     16  C   UNL     1     -33.695  30.319   3.479  0.00  0.00    +0.320 C 
ATOM     17  H   UNL     1     -33.285  28.437   4.184  0.00  0.00    +0.151 HD
BRANCH  14  18
ATOM     18  C   UNL     1     -31.727  29.670   4.864  0.00  0.00    +0.073 C 
ATOM     19  C   UNL     1     -30.551  28.971   4.193  0.00  0.00    +0.021 C 
ATOM     20  C   UNL     1     -31.833  29.281   6.334  0.00  0.00    +0.021 C 
ENDBRANCH  14  18
ENDBRANCH   9  13
ENDBRANCH   3  10
BRANCH   3  21
ATOM     21  C   UNL     1     -34.227  25.293   2.163  0.00  0.00    +0.023 C 
ATOM     22  C   UNL     1     -34.525  24.059   3.032  0.00  0.00    +0.002 C 
ATOM     23  C   UNL     1     -32.996  26.022   2.728  0.00  0.00    +0.002 C 
ATOM     24  C   UNL     1     -33.929  24.839   0.724  0.00  0.00    +0.002 C 
ENDBRANCH   3  21
BRANCH   7  25
ATOM     25  O   UNL     1     -36.735  26.281   5.661  0.00  0.00    -0.466 OA
ATOM     26  H   UNL     1     -36.679  26.788   6.448  0.00  0.00    +0.297 HD
ENDBRANCH   7  25
TORSDOF 5
ENDMDL
MODEL 3
REMARK VINA RESULT:      -5.3      2.823      6.346
REMARK  Name = 57348247
REMARK  5 active torsions:
REMARK  status: ('A' for Active; 'I' for Inactive)
REMARK    1  A    between atoms: C_3  and  C_10
REMARK    2  A    between atoms: C_3  and  C_21
REMARK    3  A    between atoms: C_7  and  O_25
REMARK    4  A    between atoms: N_9  and  N_13
REMARK    5  A    between atoms: N_14  and  C_18
REMARK                            x       y       z     vdW  Elec       q    Type
REMARK                         _______ _______ _______ _____ _____    ______ ____
ROOT
ATOM      1  O   UNL     1     -36.492  22.853   4.982  0.00  0.00    -0.226 OA
ATOM      2  N   UNL     1     -35.462  23.090   2.914  0.00  0.00    -0.241 N 
ATOM      3  C   UNL     1     -35.565  24.539   2.664  0.00  0.00    +0.133 C 
ATOM      4  C   UNL     1     -34.692  24.752   1.410  0.00  0.00    +0.029 C 
ATOM      5  C   UNL     1     -34.773  23.414   0.684  0.00  0.00    +0.024 C 
ATOM      6  C   UNL     1     -34.766  22.416   1.826  0.00  0.00    +0.097 C 
ATOM      7  C   UNL     1     -35.900  22.374   4.019  0.00  0.00    +0.402 C 
ENDROOT
BRANCH   3  10
ATOM      8  O   UNL     1     -37.335  25.941   1.871  0.00  0.00    -0.272 OA
ATOM      9  N   UNL     1     -37.853  23.815   2.657  0.00  0.00    -0.228 N 
ATOM     10  C   UNL     1     -37.001  24.856   2.338  0.00  0.00    +0.254 C 
ATOM     11  H   UNL     1     -37.493  22.976   3.029  0.00  0.00    +0.173 HD
BRANCH   9  13
ATOM     12  O   UNL     1     -41.114  23.450   1.240  0.00  0.00    -0.251 OA
ATOM     13  N   UNL     1     -39.215  23.956   2.451  0.00  0.00    -0.191 N 
ATOM     14  N   UNL     1     -39.097  22.527   0.607  0.00  0.00    -0.289 N 
ATOM     15  C   UNL     1     -39.856  24.831   3.412  0.00  0.00    +0.140 C 
ATOM     16  C   UNL     1     -39.901  23.320   1.419  0.00  0.00    +0.320 C 
ATOM     17  H   UNL     1     -38.135  22.471   0.812  0.00  0.00    +0.151 HD
BRANCH  14  18
ATOM     18  C   UNL     1     -39.603  21.780  -0.520  0.00  0.00    +0.073 C 
ATOM     19  C   UNL     1     -39.170  20.323  -0.429  0.00  0.00    +0.021 C 
ATOM     20  C   UNL     1     -39.145  22.411  -1.829  0.00  0.00    +0.021 C 
ENDBRANCH  14  18
ENDBRANCH   9  13
ENDBRANCH   3  10
BRANCH   3  21
ATOM     21  C   UNL     1     -35.080  25.430   3.805  0.00  0.00    +0.023 C 
ATOM     22  C   UNL     1     -33.962  24.715   4.583  0.00  0.00    +0.002 C 
ATOM     23  C   UNL     1     -36.246  25.733   4.761  0.00  0.00    +0.002 C 
ATOM     24  C   UNL     1     -34.536  26.752   3.237  0.00  0.00    +0.002 C 
ENDBRANCH   3  21
BRANCH   7  25
ATOM     25  O   UNL     1     -35.601  21.048   3.967  0.00  0.00    -0.466 OA
ATOM     26  H   UNL     1     -36.191  20.420   4.338  0.00  0.00    +0.297 HD
ENDBRANCH   7  25
TORSDOF 5
ENDMDL
MODEL 4
REMARK VINA RESULT:      -5.2      3.532      6.604
REMARK  Name = 57348247
REMARK  5 active torsions:
REMARK  status: ('A' for Active; 'I' for Inactive)
REMARK    1  A    between atoms: C_3  and  C_10
REMARK    2  A    between atoms: C_3  and  C_21
REMARK    3  A    between atoms: C_7  and  O_25
REMARK    4  A    between atoms: N_9  and  N_13
REMARK    5  A    between atoms: N_14  and  C_18
REMARK                            x       y       z     vdW  Elec       q    Type
REMARK                         _______ _______ _______ _____ _____    ______ ____
ROOT
ATOM      1  O   UNL     1     -35.039  28.780   3.057  0.00  0.00    -0.226 OA
ATOM      2  N   UNL     1     -33.530  30.523   2.768  0.00  0.00    -0.241 N 
ATOM      3  C   UNL     1     -32.312  29.826   2.317  0.00  0.00    +0.133 C 
ATOM      4  C   UNL     1     -31.370  30.975   1.903  0.00  0.00    +0.029 C 
ATOM      5  C   UNL     1     -31.815  32.139   2.782  0.00  0.00    +0.024 C 
ATOM      6  C   UNL     1     -33.321  31.963   2.827  0.00  0.00    +0.097 C 
ATOM      7  C   UNL     1     -34.768  29.977   3.079  0.00  0.00    +0.402 C 
ENDROOT
BRANCH   3  10
ATOM      8  O   UNL     1     -30.657  28.499   3.427  0.00  0.00    -0.272 OA
ATOM      9  N   UNL     1     -32.545  29.161   4.613  0.00  0.00    -0.228 N 
ATOM     10  C   UNL     1     -31.727  29.096   3.499  0.00  0.00    +0.254 C 
ATOM     11  H   UNL     1     -33.390  29.667   4.577  0.00  0.00    +0.173 HD
BRANCH   9  13
ATOM     12  O   UNL     1     -32.409  26.749   7.246  0.00  0.00    -0.251 OA
ATOM     13  N   UNL     1     -32.170  28.513   5.776  0.00  0.00    -0.191 N 
ATOM     14  N   UNL     1     -33.741  26.836   5.364  0.00  0.00    -0.289 N 
ATOM     15  C   UNL     1     -31.117  29.196   6.503  0.00  0.00    +0.140 C 
ATOM     16  C   UNL     1     -32.747  27.321   6.208  0.00  0.00    +0.320 C 
ATOM     17  H   UNL     1     -33.957  27.348   4.551  0.00  0.00    +0.151 HD
BRANCH  14  18
ATOM     18  C   UNL     1     -34.470  25.616   5.622  0.00  0.00    +0.073 C 
ATOM     19  C   UNL     1     -34.070  24.538   4.623  0.00  0.00    +0.021 C 
ATOM     20  C   UNL     1     -35.971  25.873   5.586  0.00  0.00    +0.021 C 
ENDBRANCH  14  18
ENDBRANCH   9  13
ENDBRANCH   3  10
BRANCH   3  21
ATOM     21  C   UNL     1     -32.511  28.858   1.153  0.00  0.00    +0.023 C 
ATOM     22  C   UNL     1     -32.882  27.466   1.693  0.00  0.00    +0.002 C 
ATOM     23  C   UNL     1     -31.213  28.753   0.335  0.00  0.00    +0.002 C 
ATOM     24  C   UNL     1     -33.643  29.366   0.243  0.00  0.00    +0.002 C 
ENDBRANCH   3  21
BRANCH   7  25
ATOM     25  O   UNL     1     -35.707  30.904   3.411  0.00  0.00    -0.466 OA
ATOM     26  H   UNL     1     -35.627  31.785   3.100  0.00  0.00    +0.297 HD
ENDBRANCH   7  25
TORSDOF 5
ENDMDL
MODEL 5
REMARK VINA RESULT:      -5.2      2.849      4.140
REMARK  Name = 57348247
REMARK  5 active torsions:
REMARK  status: ('A' for Active; 'I' for Inactive)
REMARK    1  A    between atoms: C_3  and  C_10
REMARK    2  A    between atoms: C_3  and  C_21
REMARK    3  A    between atoms: C_7  and  O_25
REMARK    4  A    between atoms: N_9  and  N_13
REMARK    5  A    between atoms: N_14  and  C_18
REMARK                            x       y       z     vdW  Elec       q    Type
REMARK                         _______ _______ _______ _____ _____    ______ ____
ROOT
ATOM      1  O   UNL     1     -36.751  24.422   4.808  0.00  0.00    -0.226 OA
ATOM      2  N   UNL     1     -36.958  25.715   2.889  0.00  0.00    -0.241 N 
ATOM      3  C   UNL     1     -35.555  25.949   2.502  0.00  0.00    +0.133 C 
ATOM      4  C   UNL     1     -35.668  26.610   1.113  0.00  0.00    +0.029 C 
ATOM      5  C   UNL     1     -37.020  27.315   1.160  0.00  0.00    +0.024 C 
ATOM      6  C   UNL     1     -37.875  26.340   1.946  0.00  0.00    +0.097 C 
ATOM      7  C   UNL     1     -37.444  24.983   3.964  0.00  0.00    +0.402 C 
ENDROOT
BRANCH   3  10
ATOM      8  O   UNL     1     -35.409  27.070   4.612  0.00  0.00    -0.272 OA
ATOM      9  N   UNL     1     -33.902  27.635   2.934  0.00  0.00    -0.228 N 
ATOM     10  C   UNL     1     -34.957  26.928   3.479  0.00  0.00    +0.254 C 
ATOM     11  H   UNL     1     -33.607  27.453   2.011  0.00  0.00    +0.173 HD
BRANCH   9  13
ATOM     12  O   UNL     1     -32.978  30.816   4.277  0.00  0.00    -0.251 OA
ATOM     13  N   UNL     1     -33.261  28.601   3.690  0.00  0.00    -0.191 N 
ATOM     14  N   UNL     1     -34.548  30.266   2.677  0.00  0.00    -0.289 N 
ATOM     15  C   UNL     1     -32.257  28.061   4.585  0.00  0.00    +0.140 C 
ATOM     16  C   UNL     1     -33.553  29.961   3.600  0.00  0.00    +0.320 C 
ATOM     17  H   UNL     1     -34.962  29.529   2.173  0.00  0.00    +0.151 HD
BRANCH  14  18
ATOM     18  C   UNL     1     -35.004  31.613   2.424  0.00  0.00    +0.073 C 
ATOM     19  C   UNL     1     -36.475  31.609   2.029  0.00  0.00    +0.021 C 
ATOM     20  C   UNL     1     -34.147  32.275   1.353  0.00  0.00    +0.021 C 
ENDBRANCH  14  18
ENDBRANCH   9  13
ENDBRANCH   3  10
BRANCH   3  21
ATOM     21  C   UNL     1     -34.687  24.695   2.423  0.00  0.00    +0.023 C 
ATOM     22  C   UNL     1     -33.595  24.885   1.357  0.00  0.00    +0.002 C 
ATOM     23  C   UNL     1     -35.555  23.483   2.046  0.00  0.00    +0.002 C 
ATOM     24  C   UNL     1     -34.023  24.436   3.787  0.00  0.00    +0.002 C 
ENDBRANCH   3  21
BRANCH   7  25
ATOM     25  O   UNL     1     -38.801  24.914   4.011  0.00  0.00    -0.466 OA
ATOM     26  H   UNL     1     -39.252  24.232   3.552  0.00  0.00    +0.297 HD
ENDBRANCH   7  25
TORSDOF 5
ENDMDL
MODEL 6
REMARK VINA RESULT:      -5.2      1.974      3.259
REMARK  Name = 57348247
REMARK  5 active torsions:
REMARK  status: ('A' for Active; 'I' for Inactive)
REMARK    1  A    between atoms: C_3  and  C_10
REMARK    2  A    between atoms: C_3  and  C_21
REMARK    3  A    between atoms: C_7  and  O_25
REMARK    4  A    between atoms: N_9  and  N_13
REMARK    5  A    between atoms: N_14  and  C_18
REMARK                            x       y       z     vdW  Elec       q    Type
REMARK                         _______ _______ _______ _____ _____    ______ ____
ROOT
ATOM      1  O   UNL     1     -34.829  20.799   2.027  0.00  0.00    -0.226 OA
ATOM      2  N   UNL     1     -36.848  21.945   2.080  0.00  0.00    -0.241 N 
ATOM      3  C   UNL     1     -36.440  23.335   1.805  0.00  0.00    +0.133 C 
ATOM      4  C   UNL     1     -37.780  24.074   1.611  0.00  0.00    +0.029 C 
ATOM      5  C   UNL     1     -38.759  23.271   2.460  0.00  0.00    +0.024 C 
ATOM      6  C   UNL     1     -38.292  21.844   2.245  0.00  0.00    +0.097 C 
ATOM      7  C   UNL     1     -36.050  20.812   2.153  0.00  0.00    +0.402 C 
ENDROOT
BRANCH   3  10
ATOM      8  O   UNL     1     -35.177  23.125   3.828  0.00  0.00    -0.272 OA
ATOM      9  N   UNL     1     -35.855  25.242   3.141  0.00  0.00    -0.228 N 
ATOM     10  C   UNL     1     -35.743  23.868   3.030  0.00  0.00    +0.254 C 
ATOM     11  H   UNL     1     -36.330  25.758   2.448  0.00  0.00    +0.173 HD
BRANCH   9  13
ATOM     12  O   UNL     1     -33.586  27.135   5.152  0.00  0.00    -0.251 OA
ATOM     13  N   UNL     1     -35.297  25.888   4.230  0.00  0.00    -0.191 N 
ATOM     14  N   UNL     1     -33.465  26.526   2.930  0.00  0.00    -0.289 N 
ATOM     15  C   UNL     1     -36.104  25.796   5.431  0.00  0.00    +0.140 C 
ATOM     16  C   UNL     1     -34.078  26.561   4.178  0.00  0.00    +0.320 C 
ATOM     17  H   UNL     1     -33.919  26.048   2.198  0.00  0.00    +0.151 HD
BRANCH  14  18
ATOM     18  C   UNL     1     -32.197  27.158   2.655  0.00  0.00    +0.073 C 
ATOM     19  C   UNL     1     -32.411  28.567   2.118  0.00  0.00    +0.021 C 
ATOM     20  C   UNL     1     -31.379  26.316   1.683  0.00  0.00    +0.021 C 
ENDBRANCH  14  18
ENDBRANCH   9  13
ENDBRANCH   3  10
BRANCH   3  21
ATOM     21  C   UNL     1     -35.551  23.518   0.577  0.00  0.00    +0.023 C 
ATOM     22  C   UNL     1     -34.071  23.440   0.991  0.00  0.00    +0.002 C 
ATOM     23  C   UNL     1     -35.824  24.889  -0.064  0.00  0.00    +0.002 C 
ATOM     24  C   UNL     1     -35.848  22.412  -0.450  0.00  0.00    +0.002 C 
ENDBRANCH   3  21
BRANCH   7  25
ATOM     25  O   UNL     1     -36.746  19.664   2.370  0.00  0.00    -0.466 OA
ATOM     26  H   UNL     1     -36.561  18.900   1.858  0.00  0.00    +0.297 HD
ENDBRANCH   7  25
TORSDOF 5
ENDMDL
MODEL 7
REMARK VINA RESULT:      -5.1      8.624     10.716
REMARK  Name = 57348247
REMARK  5 active torsions:
REMARK  status: ('A' for Active; 'I' for Inactive)
REMARK    1  A    between atoms: C_3  and  C_10
REMARK    2  A    between atoms: C_3  and  C_21
REMARK    3  A    between atoms: C_7  and  O_25
REMARK    4  A    between atoms: N_9  and  N_13
REMARK    5  A    between atoms: N_14  and  C_18
REMARK                            x       y       z     vdW  Elec       q    Type
REMARK                         _______ _______ _______ _____ _____    ______ ____
ROOT
ATOM      1  O   UNL     1     -42.279  28.871   4.338  0.00  0.00    -0.226 OA
ATOM      2  N   UNL     1     -42.933  27.233   2.827  0.00  0.00    -0.241 N 
ATOM      3  C   UNL     1     -44.163  27.801   2.246  0.00  0.00    +0.133 C 
ATOM      4  C   UNL     1     -44.490  26.841   1.084  0.00  0.00    +0.029 C 
ATOM      5  C   UNL     1     -43.895  25.512   1.536  0.00  0.00    +0.024 C 
ATOM      6  C   UNL     1     -42.618  25.941   2.233  0.00  0.00    +0.097 C 
ATOM      7  C   UNL     1     -42.097  27.791   3.784  0.00  0.00    +0.402 C 
ENDROOT
BRANCH   3  10
ATOM      8  O   UNL     1     -46.419  27.993   3.023  0.00  0.00    -0.272 OA
ATOM      9  N   UNL     1     -44.764  27.353   4.527  0.00  0.00    -0.228 N 
ATOM     10  C   UNL     1     -45.250  27.722   3.286  0.00  0.00    +0.254 C 
ATOM     11  H   UNL     1     -43.805  27.154   4.643  0.00  0.00    +0.173 HD
BRANCH   9  13
ATOM     12  O   UNL     1     -46.524  28.180   7.525  0.00  0.00    -0.251 OA
ATOM     13  N   UNL     1     -45.629  27.266   5.603  0.00  0.00    -0.191 N 
ATOM     14  N   UNL     1     -44.924  29.362   6.356  0.00  0.00    -0.289 N 
ATOM     15  C   UNL     1     -46.394  26.035   5.630  0.00  0.00    +0.140 C 
ATOM     16  C   UNL     1     -45.752  28.264   6.568  0.00  0.00    +0.320 C 
ATOM     17  H   UNL     1     -44.333  29.358   5.568  0.00  0.00    +0.151 HD
BRANCH  14  18
ATOM     18  C   UNL     1     -44.891  30.507   7.234  0.00  0.00    +0.073 C 
ATOM     19  C   UNL     1     -44.665  31.783   6.433  0.00  0.00    +0.021 C 
ATOM     20  C   UNL     1     -43.820  30.330   8.304  0.00  0.00    +0.021 C 
ENDBRANCH  14  18
ENDBRANCH   9  13
ENDBRANCH   3  10
BRANCH   3  21
ATOM     21  C   UNL     1     -44.037  29.233   1.732  0.00  0.00    +0.023 C 
ATOM     22  C   UNL     1     -45.012  29.453   0.562  0.00  0.00    +0.002 C 
ATOM     23  C   UNL     1     -42.600  29.487   1.246  0.00  0.00    +0.002 C 
ATOM     24  C   UNL     1     -44.370  30.222   2.862  0.00  0.00    +0.002 C 
ENDBRANCH   3  21
BRANCH   7  25
ATOM     25  O   UNL     1     -41.004  27.031   4.067  0.00  0.00    -0.466 OA
ATOM     26  H   UNL     1     -40.154  27.311   3.790  0.00  0.00    +0.297 HD
ENDBRANCH   7  25
TORSDOF 5
ENDMDL
MODEL 8
REMARK VINA RESULT:      -5.1      3.681      5.579
REMARK  Name = 57348247
REMARK  5 active torsions:
REMARK  status: ('A' for Active; 'I' for Inactive)
REMARK    1  A    between atoms: C_3  and  C_10
REMARK    2  A    between atoms: C_3  and  C_21
REMARK    3  A    between atoms: C_7  and  O_25
REMARK    4  A    between atoms: N_9  and  N_13
REMARK    5  A    between atoms: N_14  and  C_18
REMARK                            x       y       z     vdW  Elec       q    Type
REMARK                         _______ _______ _______ _____ _____    ______ ____
ROOT
ATOM      1  O   UNL     1     -34.635  22.193  -2.169  0.00  0.00    -0.226 OA
ATOM      2  N   UNL     1     -34.502  20.895  -0.247  0.00  0.00    -0.241 N 
ATOM      3  C   UNL     1     -35.915  20.758   0.150  0.00  0.00    +0.133 C 
ATOM      4  C   UNL     1     -35.872  19.718   1.288  0.00  0.00    +0.029 C 
ATOM      5  C   UNL     1     -34.482  19.900   1.889  0.00  0.00    +0.024 C 
ATOM      6  C   UNL     1     -33.626  20.175   0.668  0.00  0.00    +0.097 C 
ATOM      7  C   UNL     1     -33.978  21.562  -1.346  0.00  0.00    +0.402 C 
ENDROOT
BRANCH   3  10
ATOM      8  O   UNL     1     -35.896  23.146   0.311  0.00  0.00    -0.272 OA
ATOM      9  N   UNL     1     -37.347  21.941   1.673  0.00  0.00    -0.228 N 
ATOM     10  C   UNL     1     -36.377  22.084   0.697  0.00  0.00    +0.254 C 
ATOM     11  H   UNL     1     -37.673  21.044   1.918  0.00  0.00    +0.173 HD
BRANCH   9  13
ATOM     12  O   UNL     1     -37.851  24.525   4.089  0.00  0.00    -0.251 OA
ATOM     13  N   UNL     1     -37.856  23.063   2.302  0.00  0.00    -0.191 N 
ATOM     14  N   UNL     1     -36.371  22.755   4.079  0.00  0.00    -0.289 N 
ATOM     15  C   UNL     1     -38.917  23.711   1.557  0.00  0.00    +0.140 C 
ATOM     16  C   UNL     1     -37.393  23.525   3.533  0.00  0.00    +0.320 C 
ATOM     17  H   UNL     1     -36.056  21.969   3.576  0.00  0.00    +0.151 HD
BRANCH  14  18
ATOM     18  C   UNL     1     -35.748  23.055   5.346  0.00  0.00    +0.073 C 
ATOM     19  C   UNL     1     -34.582  24.016   5.150  0.00  0.00    +0.021 C 
ATOM     20  C   UNL     1     -35.295  21.773   6.035  0.00  0.00    +0.021 C 
ENDBRANCH  14  18
ENDBRANCH   9  13
ENDBRANCH   3  10
BRANCH   3  21
ATOM     21  C   UNL     1     -36.858  20.294  -0.957  0.00  0.00    +0.023 C 
ATOM     22  C   UNL     1     -37.460  21.515  -1.673  0.00  0.00    +0.002 C 
ATOM     23  C   UNL     1     -37.995  19.451  -0.354  0.00  0.00    +0.002 C 
ATOM     24  C   UNL     1     -36.083  19.441  -1.976  0.00  0.00    +0.002 C 
ENDBRANCH   3  21
BRANCH   7  25
ATOM     25  O   UNL     1     -32.627  21.452  -1.461  0.00  0.00    -0.466 OA
ATOM     26  H   UNL     1     -32.156  20.865  -0.902  0.00  0.00    +0.297 HD
ENDBRANCH   7  25
TORSDOF 5
ENDMDL
MODEL 9
REMARK VINA RESULT:      -5.1      2.543      4.771
REMARK  Name = 57348247
REMARK  5 active torsions:
REMARK  status: ('A' for Active; 'I' for Inactive)
REMARK    1  A    between atoms: C_3  and  C_10
REMARK    2  A    between atoms: C_3  and  C_21
REMARK    3  A    between atoms: C_7  and  O_25
REMARK    4  A    between atoms: N_9  and  N_13
REMARK    5  A    between atoms: N_14  and  C_18
REMARK                            x       y       z     vdW  Elec       q    Type
REMARK                         _______ _______ _______ _____ _____    ______ ____
ROOT
ATOM      1  O   UNL     1     -38.918  24.581   3.796  0.00  0.00    -0.226 OA
ATOM      2  N   UNL     1     -38.856  25.577   1.699  0.00  0.00    -0.241 N 
ATOM      3  C   UNL     1     -38.008  24.652   0.925  0.00  0.00    +0.133 C 
ATOM      4  C   UNL     1     -38.136  25.169  -0.522  0.00  0.00    +0.029 C 
ATOM      5  C   UNL     1     -38.417  26.657  -0.350  0.00  0.00    +0.024 C 
ATOM      6  C   UNL     1     -39.316  26.685   0.872  0.00  0.00    +0.097 C 
ATOM      7  C   UNL     1     -39.252  25.476   3.025  0.00  0.00    +0.402 C 
ENDROOT
BRANCH   3  10
ATOM      8  O   UNL     1     -35.634  24.413   0.734  0.00  0.00    -0.272 OA
ATOM      9  N   UNL     1     -36.510  25.430   2.633  0.00  0.00    -0.228 N 
ATOM     10  C   UNL     1     -36.586  24.818   1.395  0.00  0.00    +0.254 C 
ATOM     11  H   UNL     1     -37.332  25.723   3.091  0.00  0.00    +0.173 HD
BRANCH   9  13
ATOM     12  O   UNL     1     -33.552  24.860   4.556  0.00  0.00    -0.251 OA
ATOM     13  N   UNL     1     -35.275  25.628   3.225  0.00  0.00    -0.191 N 
ATOM     14  N   UNL     1     -35.384  23.506   4.193  0.00  0.00    -0.289 N 
ATOM     15  C   UNL     1     -34.693  26.921   2.924  0.00  0.00    +0.140 C 
ATOM     16  C   UNL     1     -34.652  24.677   4.031  0.00  0.00    +0.320 C 
ATOM     17  H   UNL     1     -36.256  23.431   3.742  0.00  0.00    +0.151 HD
BRANCH  14  18
ATOM     18  C   UNL     1     -34.925  22.392   4.989  0.00  0.00    +0.073 C 
ATOM     19  C   UNL     1     -35.162  21.080   4.251  0.00  0.00    +0.021 C 
ATOM     20  C   UNL     1     -35.609  22.390   6.351  0.00  0.00    +0.021 C 
ENDBRANCH  14  18
ENDBRANCH   9  13
ENDBRANCH   3  10
BRANCH   3  21
ATOM     21  C   UNL     1     -38.414  23.182   1.002  0.00  0.00    +0.023 C 
ATOM     22  C   UNL     1     -37.936  22.444  -0.261  0.00  0.00    +0.002 C 
ATOM     23  C   UNL     1     -39.944  23.070   1.103  0.00  0.00    +0.002 C 
ATOM     24  C   UNL     1     -37.776  22.531   2.241  0.00  0.00    +0.002 C 
ENDBRANCH   3  21
BRANCH   7  25
ATOM     25  O   UNL     1     -40.087  26.473   3.425  0.00  0.00    -0.466 OA
ATOM     26  H   UNL     1     -39.787  27.117   4.037  0.00  0.00    +0.297 HD
ENDBRANCH   7  25
TORSDOF 5
ENDMDL
