MODEL 1
REMARK VINA RESULT:      -7.1      0.000      0.000
REMARK  Name = 192255
REMARK  2 active torsions:
REMARK  status: ('A' for Active; 'I' for Inactive)
REMARK    1  A    between atoms: C_22  and  C_28
REMARK    2  A    between atoms: C_28  and  C_29
REMARK                            x       y       z     vdW  Elec       q    Type
REMARK                         _______ _______ _______ _____ _____    ______ ____
ROOT
ATOM      1  S   UNL     1     -38.989  26.840   0.506  0.00  0.00    -0.129 S 
ATOM      2  O   UNL     1     -36.488  20.435   2.550  0.00  0.00    -0.273 OA
ATOM      3  O   UNL     1     -34.496  23.875   1.694  0.00  0.00    -0.273 OA
ATOM      4  O   UNL     1     -37.294  23.071   0.402  0.00  0.00    -0.273 OA
ATOM      5  O   UNL     1     -37.498  26.228   3.053  0.00  0.00    -0.274 OA
ATOM      6  N   UNL     1     -39.531  23.625   0.336  0.00  0.00    -0.279 N 
ATOM      7  N   UNL     1     -35.063  23.478   3.894  0.00  0.00    -0.272 N 
ATOM      8  N   UNL     1     -37.430  22.499   3.014  0.00  0.00    -0.295 N 
ATOM      9  N   UNL     1     -35.416  26.463   2.059  0.00  0.00    -0.297 N 
ATOM     10  C   UNL     1     -39.460  24.422  -0.895  0.00  0.00    +0.086 C 
ATOM     11  C   UNL     1     -35.134  22.026   3.744  0.00  0.00    +0.152 C 
ATOM     12  C   UNL     1     -40.923  24.753  -1.228  0.00  0.00    +0.022 C 
ATOM     13  C   UNL     1     -35.086  21.491   5.174  0.00  0.00    +0.031 C 
ATOM     14  C   UNL     1     -41.697  23.618  -0.568  0.00  0.00    +0.023 C 
ATOM     15  C   UNL     1     -40.917  23.375   0.713  0.00  0.00    +0.093 C 
ATOM     16  C   UNL     1     -35.725  22.606   5.993  0.00  0.00    +0.024 C 
ATOM     17  C   UNL     1     -35.263  23.872   5.287  0.00  0.00    +0.094 C 
ATOM     18  C   UNL     1     -38.535  25.648  -0.806  0.00  0.00    +0.078 C 
ATOM     19  C   UNL     1     -36.404  21.571   3.019  0.00  0.00    +0.241 C 
ATOM     20  C   UNL     1     -34.729  24.304   2.829  0.00  0.00    +0.244 C 
ATOM     21  C   UNL     1     -38.415  23.046   0.919  0.00  0.00    +0.246 C 
ATOM     22  C   UNL     1     -34.659  25.800   3.115  0.00  0.00    +0.153 C 
ATOM     23  C   UNL     1     -38.650  22.345   2.246  0.00  0.00    +0.176 C 
ATOM     24  C   UNL     1     -37.339  27.440   0.971  0.00  0.00    +0.142 C 
ATOM     25  C   UNL     1     -36.793  26.635   2.132  0.00  0.00    +0.234 C 
ATOM     26  H   UNL     1     -37.326  23.310   3.563  0.00  0.00    +0.150 HD
ATOM     27  H   UNL     1     -34.935  26.798   1.268  0.00  0.00    +0.150 HD
ENDROOT
BRANCH  22  28
ATOM     28  C   UNL     1     -33.207  26.257   3.122  0.00  0.00    +0.055 C 
BRANCH  28  29
ATOM     29  C   UNL     1     -32.853  26.975   4.398  0.00  0.00    -0.020 C 
ATOM     30  C   UNL     1     -33.283  26.460   5.613  0.00  0.00    -0.004 C 
ATOM     31  C   UNL     1     -32.103  28.141   4.340  0.00  0.00    -0.004 C 
ATOM     32  C   UNL     1     -32.956  27.126   6.794  0.00  0.00    -0.000 C 
ATOM     33  C   UNL     1     -31.776  28.806   5.521  0.00  0.00    -0.000 C 
ATOM     34  C   UNL     1     -32.203  28.298   6.749  0.00  0.00    -0.000 C 
ENDBRANCH  28  29
ENDBRANCH  22  28
TORSDOF 2
ENDMDL
MODEL 2
REMARK VINA RESULT:      -6.9      2.743      5.465
REMARK  Name = 192255
REMARK  2 active torsions:
REMARK  status: ('A' for Active; 'I' for Inactive)
REMARK    1  A    between atoms: C_22  and  C_28
REMARK    2  A    between atoms: C_28  and  C_29
REMARK                            x       y       z     vdW  Elec       q    Type
REMARK                         _______ _______ _______ _____ _____    ______ ____
ROOT
ATOM      1  S   UNL     1     -40.045  23.393  -0.938  0.00  0.00    -0.129 S 
ATOM      2  O   UNL     1     -36.936  25.987   4.984  0.00  0.00    -0.273 OA
ATOM      3  O   UNL     1     -37.035  22.193   3.523  0.00  0.00    -0.273 OA
ATOM      4  O   UNL     1     -39.319  24.356   3.016  0.00  0.00    -0.273 OA
ATOM      5  O   UNL     1     -37.092  23.429  -0.333  0.00  0.00    -0.274 OA
ATOM      6  N   UNL     1     -40.304  25.664   1.393  0.00  0.00    -0.279 N 
ATOM      7  N   UNL     1     -35.241  23.522   2.947  0.00  0.00    -0.272 N 
ATOM      8  N   UNL     1     -36.967  25.594   2.702  0.00  0.00    -0.295 N 
ATOM      9  N   UNL     1     -37.167  21.442   0.859  0.00  0.00    -0.297 N 
ATOM     10  C   UNL     1     -41.429  24.760   1.123  0.00  0.00    +0.086 C 
ATOM     11  C   UNL     1     -35.354  24.397   4.113  0.00  0.00    +0.152 C 
ATOM     12  C   UNL     1     -42.337  25.546   0.164  0.00  0.00    +0.022 C 
ATOM     13  C   UNL     1     -34.009  25.116   4.184  0.00  0.00    +0.031 C 
ATOM     14  C   UNL     1     -42.006  26.999   0.482  0.00  0.00    +0.023 C 
ATOM     15  C   UNL     1     -40.511  26.957   0.751  0.00  0.00    +0.093 C 
ATOM     16  C   UNL     1     -33.559  25.174   2.730  0.00  0.00    +0.024 C 
ATOM     17  C   UNL     1     -34.063  23.860   2.151  0.00  0.00    +0.094 C 
ATOM     18  C   UNL     1     -41.018  23.368   0.611  0.00  0.00    +0.078 C 
ATOM     19  C   UNL     1     -36.514  25.389   3.993  0.00  0.00    +0.241 C 
ATOM     20  C   UNL     1     -36.109  22.456   2.750  0.00  0.00    +0.244 C 
ATOM     21  C   UNL     1     -39.299  25.359   2.298  0.00  0.00    +0.246 C 
ATOM     22  C   UNL     1     -35.872  21.598   1.512  0.00  0.00    +0.153 C 
ATOM     23  C   UNL     1     -38.156  26.357   2.378  0.00  0.00    +0.176 C 
ATOM     24  C   UNL     1     -38.974  21.953  -0.661  0.00  0.00    +0.142 C 
ATOM     25  C   UNL     1     -37.663  22.382  -0.035  0.00  0.00    +0.234 C 
ATOM     26  H   UNL     1     -36.452  25.200   1.961  0.00  0.00    +0.150 HD
ATOM     27  H   UNL     1     -37.707  20.644   1.060  0.00  0.00    +0.150 HD
ENDROOT
BRANCH  22  28
ATOM     28  C   UNL     1     -35.294  20.250   1.922  0.00  0.00    +0.055 C 
BRANCH  28  29
ATOM     29  C   UNL     1     -33.977  19.977   1.244  0.00  0.00    -0.020 C 
ATOM     30  C   UNL     1     -33.312  18.786   1.500  0.00  0.00    -0.004 C 
ATOM     31  C   UNL     1     -33.447  20.920   0.375  0.00  0.00    -0.004 C 
ATOM     32  C   UNL     1     -32.092  18.533   0.873  0.00  0.00    -0.000 C 
ATOM     33  C   UNL     1     -32.228  20.667  -0.252  0.00  0.00    -0.000 C 
ATOM     34  C   UNL     1     -31.550  19.473  -0.003  0.00  0.00    -0.000 C 
ENDBRANCH  28  29
ENDBRANCH  22  28
TORSDOF 2
ENDMDL
MODEL 3
REMARK VINA RESULT:      -6.8      3.602      5.970
REMARK  Name = 192255
REMARK  2 active torsions:
REMARK  status: ('A' for Active; 'I' for Inactive)
REMARK    1  A    between atoms: C_22  and  C_28
REMARK    2  A    between atoms: C_28  and  C_29
REMARK                            x       y       z     vdW  Elec       q    Type
REMARK                         _______ _______ _______ _____ _____    ______ ____
ROOT
ATOM      1  S   UNL     1     -39.005  20.302  -2.427  0.00  0.00    -0.129 S 
ATOM      2  O   UNL     1     -38.313  24.063   3.643  0.00  0.00    -0.273 OA
ATOM      3  O   UNL     1     -36.638  20.524   2.547  0.00  0.00    -0.273 OA
ATOM      4  O   UNL     1     -39.456  21.563   1.485  0.00  0.00    -0.273 OA
ATOM      5  O   UNL     1     -36.472  21.545  -1.367  0.00  0.00    -0.274 OA
ATOM      6  N   UNL     1     -40.562  22.324  -0.390  0.00  0.00    -0.279 N 
ATOM      7  N   UNL     1     -35.442  22.452   2.141  0.00  0.00    -0.272 N 
ATOM      8  N   UNL     1     -37.769  23.642   1.432  0.00  0.00    -0.295 N 
ATOM      9  N   UNL     1     -35.972  19.725  -0.021  0.00  0.00    -0.297 N 
ATOM     10  C   UNL     1     -41.168  21.035  -0.748  0.00  0.00    +0.086 C 
ATOM     11  C   UNL     1     -36.103  23.231   3.187  0.00  0.00    +0.152 C 
ATOM     12  C   UNL     1     -42.121  21.365  -1.908  0.00  0.00    +0.022 C 
ATOM     13  C   UNL     1     -35.188  24.436   3.402  0.00  0.00    +0.031 C 
ATOM     14  C   UNL     1     -42.455  22.834  -1.680  0.00  0.00    +0.023 C 
ATOM     15  C   UNL     1     -41.141  23.407  -1.175  0.00  0.00    +0.093 C 
ATOM     16  C   UNL     1     -34.540  24.639   2.039  0.00  0.00    +0.024 C 
ATOM     17  C   UNL     1     -34.369  23.221   1.514  0.00  0.00    +0.094 C 
ATOM     18  C   UNL     1     -40.155  19.919  -1.056  0.00  0.00    +0.078 C 
ATOM     19  C   UNL     1     -37.517  23.666   2.791  0.00  0.00    +0.241 C 
ATOM     20  C   UNL     1     -35.766  21.122   1.910  0.00  0.00    +0.244 C 
ATOM     21  C   UNL     1     -39.703  22.472   0.688  0.00  0.00    +0.246 C 
ATOM     22  C   UNL     1     -34.988  20.406   0.811  0.00  0.00    +0.153 C 
ATOM     23  C   UNL     1     -39.082  23.849   0.853  0.00  0.00    +0.176 C 
ATOM     24  C   UNL     1     -37.524  19.426  -1.849  0.00  0.00    +0.142 C 
ATOM     25  C   UNL     1     -36.627  20.363  -1.067  0.00  0.00    +0.234 C 
ATOM     26  H   UNL     1     -37.015  23.474   0.822  0.00  0.00    +0.150 HD
ATOM     27  H   UNL     1     -36.181  18.781   0.165  0.00  0.00    +0.150 HD
ENDROOT
BRANCH  22  28
ATOM     28  C   UNL     1     -34.010  19.418   1.432  0.00  0.00    +0.055 C 
BRANCH  28  29
ATOM     29  C   UNL     1     -32.656  19.484   0.775  0.00  0.00    -0.020 C 
ATOM     30  C   UNL     1     -31.770  18.427   0.932  0.00  0.00    -0.004 C 
ATOM     31  C   UNL     1     -32.314  20.599   0.024  0.00  0.00    -0.004 C 
ATOM     32  C   UNL     1     -30.516  18.488   0.325  0.00  0.00    -0.000 C 
ATOM     33  C   UNL     1     -31.060  20.659  -0.583  0.00  0.00    -0.000 C 
ATOM     34  C   UNL     1     -30.161  19.603  -0.433  0.00  0.00    -0.000 C 
ENDBRANCH  28  29
ENDBRANCH  22  28
TORSDOF 2
ENDMDL
MODEL 4
REMARK VINA RESULT:      -6.8      3.095      5.592
REMARK  Name = 192255
REMARK  2 active torsions:
REMARK  status: ('A' for Active; 'I' for Inactive)
REMARK    1  A    between atoms: C_22  and  C_28
REMARK    2  A    between atoms: C_28  and  C_29
REMARK                            x       y       z     vdW  Elec       q    Type
REMARK                         _______ _______ _______ _____ _____    ______ ____
ROOT
ATOM      1  S   UNL     1     -38.277  22.596  -3.105  0.00  0.00    -0.129 S 
ATOM      2  O   UNL     1     -39.168  24.645   3.712  0.00  0.00    -0.273 OA
ATOM      3  O   UNL     1     -37.676  21.182   2.189  0.00  0.00    -0.273 OA
ATOM      4  O   UNL     1     -39.834  22.995   0.704  0.00  0.00    -0.273 OA
ATOM      5  O   UNL     1     -36.103  23.015  -1.060  0.00  0.00    -0.274 OA
ATOM      6  N   UNL     1     -40.157  24.375  -1.114  0.00  0.00    -0.279 N 
ATOM      7  N   UNL     1     -36.184  22.863   2.703  0.00  0.00    -0.272 N 
ATOM      8  N   UNL     1     -37.981  24.637   1.724  0.00  0.00    -0.295 N 
ATOM      9  N   UNL     1     -36.304  20.872  -0.198  0.00  0.00    -0.297 N 
ATOM     10  C   UNL     1     -40.765  23.356  -1.979  0.00  0.00    +0.086 C 
ATOM     11  C   UNL     1     -37.052  23.502   3.692  0.00  0.00    +0.152 C 
ATOM     12  C   UNL     1     -41.233  24.132  -3.221  0.00  0.00    +0.022 C 
ATOM     13  C   UNL     1     -36.118  24.410   4.490  0.00  0.00    +0.031 C 
ATOM     14  C   UNL     1     -41.440  25.546  -2.694  0.00  0.00    +0.023 C 
ATOM     15  C   UNL     1     -40.305  25.705  -1.694  0.00  0.00    +0.093 C 
ATOM     16  C   UNL     1     -35.036  24.781   3.484  0.00  0.00    +0.024 C 
ATOM     17  C   UNL     1     -34.878  23.517   2.652  0.00  0.00    +0.094 C 
ATOM     18  C   UNL     1     -39.853  22.156  -2.286  0.00  0.00    +0.078 C 
ATOM     19  C   UNL     1     -38.191  24.297   3.048  0.00  0.00    +0.241 C 
ATOM     20  C   UNL     1     -36.576  21.717   2.024  0.00  0.00    +0.244 C 
ATOM     21  C   UNL     1     -39.690  24.093   0.160  0.00  0.00    +0.246 C 
ATOM     22  C   UNL     1     -35.574  21.127   1.038  0.00  0.00    +0.153 C 
ATOM     23  C   UNL     1     -38.993  25.237   0.877  0.00  0.00    +0.176 C 
ATOM     24  C   UNL     1     -37.190  21.325  -2.400  0.00  0.00    +0.142 C 
ATOM     25  C   UNL     1     -36.493  21.853  -1.163  0.00  0.00    +0.234 C 
ATOM     26  H   UNL     1     -37.095  24.461   1.333  0.00  0.00    +0.150 HD
ATOM     27  H   UNL     1     -36.677  19.974  -0.353  0.00  0.00    +0.150 HD
ENDROOT
BRANCH  22  28
ATOM     28  C   UNL     1     -34.985  19.843   1.607  0.00  0.00    +0.055 C 
BRANCH  28  29
ATOM     29  C   UNL     1     -33.585  19.601   1.109  0.00  0.00    -0.020 C 
ATOM     30  C   UNL     1     -32.949  18.405   1.416  0.00  0.00    -0.004 C 
ATOM     31  C   UNL     1     -32.950  20.575   0.353  0.00  0.00    -0.004 C 
ATOM     32  C   UNL     1     -31.652  18.181   0.956  0.00  0.00    -0.000 C 
ATOM     33  C   UNL     1     -31.653  20.350  -0.108  0.00  0.00    -0.000 C 
ATOM     34  C   UNL     1     -31.004  19.153   0.194  0.00  0.00    -0.000 C 
ENDBRANCH  28  29
ENDBRANCH  22  28
TORSDOF 2
ENDMDL
MODEL 5
REMARK VINA RESULT:      -6.6      3.466      6.033
REMARK  Name = 192255
REMARK  2 active torsions:
REMARK  status: ('A' for Active; 'I' for Inactive)
REMARK    1  A    between atoms: C_22  and  C_28
REMARK    2  A    between atoms: C_28  and  C_29
REMARK                            x       y       z     vdW  Elec       q    Type
REMARK                         _______ _______ _______ _____ _____    ______ ____
ROOT
ATOM      1  S   UNL     1     -34.313  24.514   4.666  0.00  0.00    -0.129 S 
ATOM      2  O   UNL     1     -37.001  25.982  -1.821  0.00  0.00    -0.273 OA
ATOM      3  O   UNL     1     -36.964  28.226   1.569  0.00  0.00    -0.273 OA
ATOM      4  O   UNL     1     -36.972  25.041   1.544  0.00  0.00    -0.273 OA
ATOM      5  O   UNL     1     -33.418  26.715   2.811  0.00  0.00    -0.274 OA
ATOM      6  N   UNL     1     -35.696  23.181   2.025  0.00  0.00    -0.279 N 
ATOM      7  N   UNL     1     -35.247  28.527   0.060  0.00  0.00    -0.272 N 
ATOM      8  N   UNL     1     -35.236  25.848  -0.328  0.00  0.00    -0.295 N 
ATOM      9  N   UNL     1     -35.036  28.198   3.560  0.00  0.00    -0.297 N 
ATOM     10  C   UNL     1     -36.269  22.937   3.354  0.00  0.00    +0.086 C 
ATOM     11  C   UNL     1     -36.008  28.049  -1.092  0.00  0.00    +0.152 C 
ATOM     12  C   UNL     1     -35.665  21.595   3.796  0.00  0.00    +0.022 C 
ATOM     13  C   UNL     1     -35.221  28.544  -2.303  0.00  0.00    +0.031 C 
ATOM     14  C   UNL     1     -35.341  20.905   2.476  0.00  0.00    +0.023 C 
ATOM     15  C   UNL     1     -34.874  22.055   1.598  0.00  0.00    +0.093 C 
ATOM     16  C   UNL     1     -33.784  28.589  -1.800  0.00  0.00    +0.024 C 
ATOM     17  C   UNL     1     -33.931  29.016  -0.347  0.00  0.00    +0.094 C 
ATOM     18  C   UNL     1     -36.065  24.086   4.357  0.00  0.00    +0.078 C 
ATOM     19  C   UNL     1     -36.157  26.525  -1.106  0.00  0.00    +0.241 C 
ATOM     20  C   UNL     1     -35.808  28.589   1.329  0.00  0.00    +0.244 C 
ATOM     21  C   UNL     1     -36.067  24.260   1.237  0.00  0.00    +0.246 C 
ATOM     22  C   UNL     1     -34.924  29.133   2.446  0.00  0.00    +0.153 C 
ATOM     23  C   UNL     1     -35.299  24.424  -0.064  0.00  0.00    +0.176 C 
ATOM     24  C   UNL     1     -34.470  26.301   4.945  0.00  0.00    +0.142 C 
ATOM     25  C   UNL     1     -34.246  27.059   3.653  0.00  0.00    +0.234 C 
ATOM     26  H   UNL     1     -34.496  26.361   0.069  0.00  0.00    +0.150 HD
ATOM     27  H   UNL     1     -35.694  28.380   4.268  0.00  0.00    +0.150 HD
ENDROOT
BRANCH  22  28
ATOM     28  C   UNL     1     -35.394  30.525   2.844  0.00  0.00    +0.055 C 
BRANCH  28  29
ATOM     29  C   UNL     1     -34.324  31.561   2.624  0.00  0.00    -0.020 C 
ATOM     30  C   UNL     1     -33.068  31.375   3.187  0.00  0.00    -0.004 C 
ATOM     31  C   UNL     1     -34.607  32.686   1.864  0.00  0.00    -0.004 C 
ATOM     32  C   UNL     1     -32.077  32.335   2.985  0.00  0.00    -0.000 C 
ATOM     33  C   UNL     1     -33.615  33.645   1.661  0.00  0.00    -0.000 C 
ATOM     34  C   UNL     1     -32.349  33.470   2.221  0.00  0.00    -0.000 C 
ENDBRANCH  28  29
ENDBRANCH  22  28
TORSDOF 2
ENDMDL
MODEL 6
REMARK VINA RESULT:      -6.5      3.150      6.020
REMARK  Name = 192255
REMARK  2 active torsions:
REMARK  status: ('A' for Active; 'I' for Inactive)
REMARK    1  A    between atoms: C_22  and  C_28
REMARK    2  A    between atoms: C_28  and  C_29
REMARK                            x       y       z     vdW  Elec       q    Type
REMARK                         _______ _______ _______ _____ _____    ______ ____
ROOT
ATOM      1  S   UNL     1     -34.955  24.417   4.757  0.00  0.00    -0.129 S 
ATOM      2  O   UNL     1     -35.322  29.195  -0.581  0.00  0.00    -0.273 OA
ATOM      3  O   UNL     1     -34.556  29.739   3.375  0.00  0.00    -0.273 OA
ATOM      4  O   UNL     1     -36.344  27.370   2.218  0.00  0.00    -0.273 OA
ATOM      5  O   UNL     1     -32.708  26.156   3.750  0.00  0.00    -0.274 OA
ATOM      6  N   UNL     1     -36.421  25.085   1.917  0.00  0.00    -0.279 N 
ATOM      7  N   UNL     1     -32.758  29.469   1.958  0.00  0.00    -0.272 N 
ATOM      8  N   UNL     1     -34.191  27.586   0.641  0.00  0.00    -0.295 N 
ATOM      9  N   UNL     1     -33.309  27.953   5.087  0.00  0.00    -0.297 N 
ATOM     10  C   UNL     1     -37.229  24.796   3.108  0.00  0.00    +0.086 C 
ATOM     11  C   UNL     1     -33.469  29.929   0.766  0.00  0.00    +0.152 C 
ATOM     12  C   UNL     1     -37.557  23.299   3.000  0.00  0.00    +0.022 C 
ATOM     13  C   UNL     1     -32.364  30.242  -0.241  0.00  0.00    +0.031 C 
ATOM     14  C   UNL     1     -37.476  23.029   1.503  0.00  0.00    +0.023 C 
ATOM     15  C   UNL     1     -36.317  23.908   1.062  0.00  0.00    +0.093 C 
ATOM     16  C   UNL     1     -31.246  29.282   0.145  0.00  0.00    +0.024 C 
ATOM     17  C   UNL     1     -31.350  29.210   1.661  0.00  0.00    +0.094 C 
ATOM     18  C   UNL     1     -36.573  25.209   4.437  0.00  0.00    +0.078 C 
ATOM     19  C   UNL     1     -34.441  28.880   0.220  0.00  0.00    +0.241 C 
ATOM     20  C   UNL     1     -33.376  29.423   3.200  0.00  0.00    +0.244 C 
ATOM     21  C   UNL     1     -35.997  26.364   1.591  0.00  0.00    +0.246 C 
ATOM     22  C   UNL     1     -32.523  28.953   4.374  0.00  0.00    +0.153 C 
ATOM     23  C   UNL     1     -35.080  26.470   0.385  0.00  0.00    +0.176 C 
ATOM     24  C   UNL     1     -34.125  25.753   5.664  0.00  0.00    +0.142 C 
ATOM     25  C   UNL     1     -33.319  26.615   4.714  0.00  0.00    +0.234 C 
ATOM     26  H   UNL     1     -33.362  27.413   1.143  0.00  0.00    +0.150 HD
ATOM     27  H   UNL     1     -33.852  28.236   5.858  0.00  0.00    +0.150 HD
ENDROOT
BRANCH  22  28
ATOM     28  C   UNL     1     -32.187  30.135   5.273  0.00  0.00    +0.055 C 
BRANCH  28  29
ATOM     29  C   UNL     1     -30.744  30.117   5.704  0.00  0.00    -0.020 C 
ATOM     30  C   UNL     1     -29.834  30.954   5.073  0.00  0.00    -0.004 C 
ATOM     31  C   UNL     1     -30.346  29.266   6.724  0.00  0.00    -0.004 C 
ATOM     32  C   UNL     1     -28.497  30.937   5.472  0.00  0.00    -0.000 C 
ATOM     33  C   UNL     1     -29.010  29.250   7.123  0.00  0.00    -0.000 C 
ATOM     34  C   UNL     1     -28.085  30.085   6.497  0.00  0.00    -0.000 C 
ENDBRANCH  28  29
ENDBRANCH  22  28
TORSDOF 2
ENDMDL
MODEL 7
REMARK VINA RESULT:      -6.4      2.536      6.613
REMARK  Name = 192255
REMARK  2 active torsions:
REMARK  status: ('A' for Active; 'I' for Inactive)
REMARK    1  A    between atoms: C_22  and  C_28
REMARK    2  A    between atoms: C_28  and  C_29
REMARK                            x       y       z     vdW  Elec       q    Type
REMARK                         _______ _______ _______ _____ _____    ______ ____
ROOT
ATOM      1  S   UNL     1     -35.791  28.628   0.401  0.00  0.00    -0.129 S 
ATOM      2  O   UNL     1     -34.152  23.990   5.622  0.00  0.00    -0.273 OA
ATOM      3  O   UNL     1     -37.774  25.105   4.149  0.00  0.00    -0.273 OA
ATOM      4  O   UNL     1     -35.198  26.979   4.146  0.00  0.00    -0.273 OA
ATOM      5  O   UNL     1     -36.341  25.664   0.404  0.00  0.00    -0.274 OA
ATOM      6  N   UNL     1     -33.642  27.986   2.774  0.00  0.00    -0.279 N 
ATOM      7  N   UNL     1     -36.775  23.232   3.248  0.00  0.00    -0.272 N 
ATOM      8  N   UNL     1     -34.406  24.537   3.387  0.00  0.00    -0.295 N 
ATOM      9  N   UNL     1     -38.341  25.892   1.554  0.00  0.00    -0.297 N 
ATOM     10  C   UNL     1     -34.304  29.295   2.720  0.00  0.00    +0.086 C 
ATOM     11  C   UNL     1     -35.960  22.946   4.427  0.00  0.00    +0.152 C 
ATOM     12  C   UNL     1     -33.310  30.201   1.975  0.00  0.00    +0.022 C 
ATOM     13  C   UNL     1     -35.510  21.499   4.239  0.00  0.00    +0.031 C 
ATOM     14  C   UNL     1     -31.964  29.540   2.244  0.00  0.00    +0.023 C 
ATOM     15  C   UNL     1     -32.300  28.058   2.207  0.00  0.00    +0.093 C 
ATOM     16  C   UNL     1     -35.458  21.336   2.725  0.00  0.00    +0.024 C 
ATOM     17  C   UNL     1     -36.621  22.187   2.238  0.00  0.00    +0.094 C 
ATOM     18  C   UNL     1     -35.717  29.269   2.113  0.00  0.00    +0.078 C 
ATOM     19  C   UNL     1     -34.762  23.892   4.557  0.00  0.00    +0.241 C 
ATOM     20  C   UNL     1     -37.647  24.312   3.211  0.00  0.00    +0.244 C 
ATOM     21  C   UNL     1     -34.178  26.904   3.455  0.00  0.00    +0.246 C 
ATOM     22  C   UNL     1     -38.466  24.491   1.937  0.00  0.00    +0.153 C 
ATOM     23  C   UNL     1     -33.418  25.595   3.320  0.00  0.00    +0.176 C 
ATOM     24  C   UNL     1     -37.419  27.825   0.435  0.00  0.00    +0.142 C 
ATOM     25  C   UNL     1     -37.277  26.360   0.793  0.00  0.00    +0.234 C 
ATOM     26  H   UNL     1     -34.848  24.262   2.551  0.00  0.00    +0.150 HD
ATOM     27  H   UNL     1     -39.034  26.528   1.846  0.00  0.00    +0.150 HD
ENDROOT
BRANCH  22  28
ATOM     28  C   UNL     1     -39.918  24.118   2.201  0.00  0.00    +0.055 C 
BRANCH  28  29
ATOM     29  C   UNL     1     -40.812  25.330   2.224  0.00  0.00    -0.020 C 
ATOM     30  C   UNL     1     -41.033  25.991   3.424  0.00  0.00    -0.004 C 
ATOM     31  C   UNL     1     -41.402  25.767   1.047  0.00  0.00    -0.004 C 
ATOM     32  C   UNL     1     -41.861  27.113   3.447  0.00  0.00    -0.000 C 
ATOM     33  C   UNL     1     -42.229  26.890   1.070  0.00  0.00    -0.000 C 
ATOM     34  C   UNL     1     -42.459  27.563   2.270  0.00  0.00    -0.000 C 
ENDBRANCH  28  29
ENDBRANCH  22  28
TORSDOF 2
ENDMDL
MODEL 8
REMARK VINA RESULT:      -6.4      2.322      7.050
REMARK  Name = 192255
REMARK  2 active torsions:
REMARK  status: ('A' for Active; 'I' for Inactive)
REMARK    1  A    between atoms: C_22  and  C_28
REMARK    2  A    between atoms: C_28  and  C_29
REMARK                            x       y       z     vdW  Elec       q    Type
REMARK                         _______ _______ _______ _____ _____    ______ ____
ROOT
ATOM      1  S   UNL     1     -35.135  27.337  -0.846  0.00  0.00    -0.129 S 
ATOM      2  O   UNL     1     -34.174  25.840   6.104  0.00  0.00    -0.273 OA
ATOM      3  O   UNL     1     -37.583  25.932   3.890  0.00  0.00    -0.273 OA
ATOM      4  O   UNL     1     -35.011  27.706   3.270  0.00  0.00    -0.273 OA
ATOM      5  O   UNL     1     -35.705  24.710   0.518  0.00  0.00    -0.274 OA
ATOM      6  N   UNL     1     -33.293  28.014   1.763  0.00  0.00    -0.279 N 
ATOM      7  N   UNL     1     -36.498  23.910   4.113  0.00  0.00    -0.272 N 
ATOM      8  N   UNL     1     -34.153  25.241   3.867  0.00  0.00    -0.295 N 
ATOM      9  N   UNL     1     -37.828  25.357   1.191  0.00  0.00    -0.297 N 
ATOM     10  C   UNL     1     -33.933  29.104   1.016  0.00  0.00    +0.086 C 
ATOM     11  C   UNL     1     -35.833  24.263   5.366  0.00  0.00    +0.152 C 
ATOM     12  C   UNL     1     -32.849  29.594   0.042  0.00  0.00    +0.022 C 
ATOM     13  C   UNL     1     -35.375  22.925   5.945  0.00  0.00    +0.031 C 
ATOM     14  C   UNL     1     -31.551  29.210   0.740  0.00  0.00    +0.023 C 
ATOM     15  C   UNL     1     -31.892  27.874   1.382  0.00  0.00    +0.093 C 
ATOM     16  C   UNL     1     -35.143  22.063   4.711  0.00  0.00    +0.024 C 
ATOM     17  C   UNL     1     -36.232  22.519   3.751  0.00  0.00    +0.094 C 
ATOM     18  C   UNL     1     -35.263  28.720   0.345  0.00  0.00    +0.078 C 
ATOM     19  C   UNL     1     -34.653  25.215   5.156  0.00  0.00    +0.241 C 
ATOM     20  C   UNL     1     -37.351  24.795   3.468  0.00  0.00    +0.244 C 
ATOM     21  C   UNL     1     -33.916  27.362   2.816  0.00  0.00    +0.246 C 
ATOM     22  C   UNL     1     -38.009  24.303   2.183  0.00  0.00    +0.153 C 
ATOM     23  C   UNL     1     -33.155  26.188   3.409  0.00  0.00    +0.176 C 
ATOM     24  C   UNL     1     -36.762  26.566  -0.609  0.00  0.00    +0.142 C 
ATOM     25  C   UNL     1     -36.676  25.458   0.420  0.00  0.00    +0.234 C 
ATOM     26  H   UNL     1     -34.493  24.579   3.223  0.00  0.00    +0.150 HD
ATOM     27  H   UNL     1     -38.545  26.019   1.064  0.00  0.00    +0.150 HD
ENDROOT
BRANCH  22  28
ATOM     28  C   UNL     1     -39.486  24.028   2.432  0.00  0.00    +0.055 C 
BRANCH  28  29
ATOM     29  C   UNL     1     -40.105  23.238   1.309  0.00  0.00    -0.020 C 
ATOM     30  C   UNL     1     -41.042  23.845   0.484  0.00  0.00    -0.004 C 
ATOM     31  C   UNL     1     -39.730  21.916   1.115  0.00  0.00    -0.004 C 
ATOM     32  C   UNL     1     -41.616  23.113  -0.556  0.00  0.00    -0.000 C 
ATOM     33  C   UNL     1     -40.304  21.186   0.075  0.00  0.00    -0.000 C 
ATOM     34  C   UNL     1     -41.247  21.784  -0.760  0.00  0.00    -0.000 C 
ENDBRANCH  28  29
ENDBRANCH  22  28
TORSDOF 2
ENDMDL
MODEL 9
REMARK VINA RESULT:      -6.4      3.528      5.580
REMARK  Name = 192255
REMARK  2 active torsions:
REMARK  status: ('A' for Active; 'I' for Inactive)
REMARK    1  A    between atoms: C_22  and  C_28
REMARK    2  A    between atoms: C_28  and  C_29
REMARK                            x       y       z     vdW  Elec       q    Type
REMARK                         _______ _______ _______ _____ _____    ______ ____
ROOT
ATOM      1  S   UNL     1     -35.972  18.801  -0.988  0.00  0.00    -0.129 S 
ATOM      2  O   UNL     1     -41.623  23.116  -0.033  0.00  0.00    -0.273 OA
ATOM      3  O   UNL     1     -38.851  21.799   2.634  0.00  0.00    -0.273 OA
ATOM      4  O   UNL     1     -39.733  20.177   0.038  0.00  0.00    -0.273 OA
ATOM      5  O   UNL     1     -35.897  21.690  -0.133  0.00  0.00    -0.274 OA
ATOM      6  N   UNL     1     -39.003  19.437  -2.020  0.00  0.00    -0.279 N 
ATOM      7  N   UNL     1     -38.473  23.824   1.600  0.00  0.00    -0.272 N 
ATOM      8  N   UNL     1     -39.434  22.737  -0.686  0.00  0.00    -0.295 N 
ATOM      9  N   UNL     1     -36.201  21.183   2.109  0.00  0.00    -0.297 N 
ATOM     10  C   UNL     1     -38.648  18.081  -1.583  0.00  0.00    +0.086 C 
ATOM     11  C   UNL     1     -39.883  24.084   1.316  0.00  0.00    +0.152 C 
ATOM     12  C   UNL     1     -38.292  17.336  -2.880  0.00  0.00    +0.022 C 
ATOM     13  C   UNL     1     -39.940  25.578   1.001  0.00  0.00    +0.031 C 
ATOM     14  C   UNL     1     -39.075  18.094  -3.945  0.00  0.00    +0.023 C 
ATOM     15  C   UNL     1     -38.978  19.537  -3.475  0.00  0.00    +0.093 C 
ATOM     16  C   UNL     1     -38.566  25.871   0.415  0.00  0.00    +0.024 C 
ATOM     17  C   UNL     1     -37.641  24.960   1.208  0.00  0.00    +0.094 C 
ATOM     18  C   UNL     1     -37.557  18.027  -0.500  0.00  0.00    +0.078 C 
ATOM     19  C   UNL     1     -40.412  23.246   0.149  0.00  0.00    +0.241 C 
ATOM     20  C   UNL     1     -38.064  22.676   2.265  0.00  0.00    +0.244 C 
ATOM     21  C   UNL     1     -39.479  20.404  -1.148  0.00  0.00    +0.246 C 
ATOM     22  C   UNL     1     -36.570  22.530   2.530  0.00  0.00    +0.153 C 
ATOM     23  C   UNL     1     -39.697  21.784  -1.746  0.00  0.00    +0.176 C 
ATOM     24  C   UNL     1     -35.427  19.444   0.620  0.00  0.00    +0.142 C 
ATOM     25  C   UNL     1     -35.875  20.881   0.793  0.00  0.00    +0.234 C 
ATOM     26  H   UNL     1     -38.506  23.039  -0.554  0.00  0.00    +0.150 HD
ATOM     27  H   UNL     1     -36.183  20.464   2.781  0.00  0.00    +0.150 HD
ENDROOT
BRANCH  22  28
ATOM     28  C   UNL     1     -36.284  22.744   4.010  0.00  0.00    +0.055 C 
BRANCH  28  29
ATOM     29  C   UNL     1     -35.466  23.986   4.248  0.00  0.00    -0.020 C 
ATOM     30  C   UNL     1     -34.562  24.403   3.280  0.00  0.00    -0.004 C 
ATOM     31  C   UNL     1     -35.626  24.694   5.430  0.00  0.00    -0.004 C 
ATOM     32  C   UNL     1     -33.803  25.552   3.501  0.00  0.00    -0.000 C 
ATOM     33  C   UNL     1     -34.868  25.843   5.650  0.00  0.00    -0.000 C 
ATOM     34  C   UNL     1     -33.956  26.273   4.685  0.00  0.00    -0.000 C 
ENDBRANCH  28  29
ENDBRANCH  22  28
TORSDOF 2
ENDMDL
