MODEL 1
REMARK VINA RESULT:      -6.4      0.000      0.000
REMARK  Name = 5311431
REMARK  6 active torsions:
REMARK  status: ('A' for Active; 'I' for Inactive)
REMARK    1  A    between atoms: N_1  and  C1*_11
REMARK    2  A    between atoms: C2*_12  and  O2*_15
REMARK    3  A    between atoms: C3*_13  and  O3*_17
REMARK    4  A    between atoms: C4*_14  and  C5*_19
REMARK    5  A    between atoms: C5*_19  and  O5*_20
REMARK    6  A    between atoms: N_22  and  C_27
REMARK                            x       y       z     vdW  Elec       q    Type
REMARK                         _______ _______ _______ _____ _____    ______ ____
ROOT
ATOM      1  N   UNL     1     -34.597  25.790   4.681  0.00  0.00    -0.247 N 
ATOM      2  N   UNL     1     -32.840  28.679   2.506  0.00  0.00    -0.228 NA
ATOM      3  N   UNL     1     -33.095  27.005   5.794  0.00  0.00    -0.242 NA
ATOM      4  N   UNL     1     -34.466  26.858   2.503  0.00  0.00    -0.228 NA
ATOM      5  C   UNL     1     -32.523  28.478   3.818  0.00  0.00    +0.146 C 
ATOM      6  C   UNL     1     -33.186  27.449   4.499  0.00  0.00    +0.140 C 
ATOM      7  C   UNL     1     -34.116  26.706   3.790  0.00  0.00    +0.152 C 
ATOM      8  C   UNL     1     -33.954  26.009   5.872  0.00  0.00    +0.223 C 
ATOM      9  C   UNL     1     -33.773  27.872   1.942  0.00  0.00    +0.253 C 
ATOM     10  N   UNL     1     -31.576  29.270   4.450  0.00  0.00    -0.319 N 
ATOM     11  H   UNL     1     -31.379  29.090   5.398  0.00  0.00    +0.148 HD
ENDROOT
BRANCH  10  15
ATOM     12  C   UNL     1     -29.396  29.984   3.493  0.00  0.00    +0.018 C 
ATOM     13  C   UNL     1     -29.212  31.828   4.728  0.00  0.00    +0.002 C 
ATOM     14  C   UNL     1     -28.788  31.379   3.328  0.00  0.00    +0.002 C 
ATOM     15  C   UNL     1     -30.865  30.342   3.801  0.00  0.00    +0.070 C 
ATOM     16  C   UNL     1     -30.734  31.584   4.700  0.00  0.00    +0.020 C 
ATOM     17  C   UNL     1     -28.662  29.490   4.756  0.00  0.00    +0.002 C 
ATOM     18  C   UNL     1     -28.557  30.758   5.615  0.00  0.00    +0.000 C 
ENDBRANCH  10  15
BRANCH   1  20
ATOM     19  O4* UNL     1     -35.979  24.131   5.667  0.00  0.00    -0.333 OA
ATOM     20  C1* UNL     1     -35.607  24.764   4.427  0.00  0.00    +0.225 C 
ATOM     21  C2* UNL     1     -35.139  23.650   3.505  0.00  0.00    +0.187 C 
ATOM     22  C3* UNL     1     -36.049  22.511   3.923  0.00  0.00    +0.171 C 
ATOM     23  C4* UNL     1     -36.151  22.714   5.432  0.00  0.00    +0.175 C 
BRANCH  21  24
ATOM     24  O2* UNL     1     -35.280  23.998   2.143  0.00  0.00    -0.378 OA
ATOM     25  H2* UNL     1     -36.132  23.672   1.812  0.00  0.00    +0.211 HD
ENDBRANCH  21  24
BRANCH  22  26
ATOM     26  O3* UNL     1     -37.341  22.697   3.345  0.00  0.00    -0.379 OA
ATOM     27  H3* UNL     1     -37.388  23.575   2.934  0.00  0.00    +0.211 HD
ENDBRANCH  22  26
BRANCH  23  28
ATOM     28  C5* UNL     1     -35.075  21.966   6.206  0.00  0.00    +0.169 C 
BRANCH  28  29
ATOM     29  O5* UNL     1     -35.104  20.603   5.820  0.00  0.00    -0.379 OA
ATOM     30  H5* UNL     1     -34.870  20.047   6.579  0.00  0.00    +0.211 HD
ENDBRANCH  28  29
ENDBRANCH  23  28
ENDBRANCH   1  20
TORSDOF 6
ENDMDL
MODEL 2
REMARK VINA RESULT:      -6.3      1.857      2.350
REMARK  Name = 5311431
REMARK  6 active torsions:
REMARK  status: ('A' for Active; 'I' for Inactive)
REMARK    1  A    between atoms: N_1  and  C1*_11
REMARK    2  A    between atoms: C2*_12  and  O2*_15
REMARK    3  A    between atoms: C3*_13  and  O3*_17
REMARK    4  A    between atoms: C4*_14  and  C5*_19
REMARK    5  A    between atoms: C5*_19  and  O5*_20
REMARK    6  A    between atoms: N_22  and  C_27
REMARK                            x       y       z     vdW  Elec       q    Type
REMARK                         _______ _______ _______ _____ _____    ______ ____
ROOT
ATOM      1  N   UNL     1     -35.530  24.965   3.559  0.00  0.00    -0.247 N 
ATOM      2  N   UNL     1     -34.013  28.688   3.608  0.00  0.00    -0.228 NA
ATOM      3  N   UNL     1     -33.843  25.259   4.986  0.00  0.00    -0.242 NA
ATOM      4  N   UNL     1     -35.680  27.202   2.624  0.00  0.00    -0.228 NA
ATOM      5  C   UNL     1     -33.516  27.702   4.410  0.00  0.00    +0.146 C 
ATOM      6  C   UNL     1     -34.106  26.434   4.327  0.00  0.00    +0.140 C 
ATOM      7  C   UNL     1     -35.153  26.272   3.435  0.00  0.00    +0.152 C 
ATOM      8  C   UNL     1     -34.715  24.398   4.503  0.00  0.00    +0.223 C 
ATOM      9  C   UNL     1     -35.043  28.383   2.782  0.00  0.00    +0.253 C 
ATOM     10  N   UNL     1     -32.461  27.953   5.276  0.00  0.00    -0.319 N 
ATOM     11  H   UNL     1     -32.135  27.211   5.835  0.00  0.00    +0.148 HD
ENDROOT
BRANCH  10  15
ATOM     12  C   UNL     1     -30.503  29.326   4.599  0.00  0.00    +0.018 C 
ATOM     13  C   UNL     1     -29.853  29.811   6.673  0.00  0.00    +0.002 C 
ATOM     14  C   UNL     1     -29.814  30.496   5.306  0.00  0.00    +0.002 C 
ATOM     15  C   UNL     1     -31.817  29.235   5.404  0.00  0.00    +0.070 C 
ATOM     16  C   UNL     1     -31.356  29.516   6.844  0.00  0.00    +0.020 C 
ATOM     17  C   UNL     1     -29.549  28.167   4.948  0.00  0.00    +0.002 C 
ATOM     18  C   UNL     1     -29.120  28.491   6.386  0.00  0.00    +0.000 C 
ENDBRANCH  10  15
BRANCH   1  20
ATOM     19  O4* UNL     1     -36.943  23.059   3.500  0.00  0.00    -0.333 OA
ATOM     20  C1* UNL     1     -36.599  24.287   2.829  0.00  0.00    +0.225 C 
ATOM     21  C2* UNL     1     -36.231  23.904   1.404  0.00  0.00    +0.187 C 
ATOM     22  C3* UNL     1     -37.173  22.744   1.151  0.00  0.00    +0.171 C 
ATOM     23  C4* UNL     1     -37.194  22.040   2.505  0.00  0.00    +0.175 C 
BRANCH  21  24
ATOM     24  O2* UNL     1     -36.419  24.975   0.504  0.00  0.00    -0.378 OA
ATOM     25  H2* UNL     1     -37.368  25.146   0.398  0.00  0.00    +0.211 HD
ENDBRANCH  21  24
BRANCH  22  26
ATOM     26  O3* UNL     1     -38.481  23.245   0.873  0.00  0.00    -0.379 OA
ATOM     27  H3* UNL     1     -38.601  24.100   1.316  0.00  0.00    +0.211 HD
ENDBRANCH  22  26
BRANCH  23  28
ATOM     28  C5* UNL     1     -36.120  20.969   2.633  0.00  0.00    +0.169 C 
BRANCH  28  29
ATOM     29  O5* UNL     1     -36.741  19.697   2.592  0.00  0.00    -0.379 OA
ATOM     30  H5* UNL     1     -36.476  19.181   3.370  0.00  0.00    +0.211 HD
ENDBRANCH  28  29
ENDBRANCH  23  28
ENDBRANCH   1  20
TORSDOF 6
ENDMDL
MODEL 3
REMARK VINA RESULT:      -6.1      3.055      4.479
REMARK  Name = 5311431
REMARK  6 active torsions:
REMARK  status: ('A' for Active; 'I' for Inactive)
REMARK    1  A    between atoms: N_1  and  C1*_11
REMARK    2  A    between atoms: C2*_12  and  O2*_15
REMARK    3  A    between atoms: C3*_13  and  O3*_17
REMARK    4  A    between atoms: C4*_14  and  C5*_19
REMARK    5  A    between atoms: C5*_19  and  O5*_20
REMARK    6  A    between atoms: N_22  and  C_27
REMARK                            x       y       z     vdW  Elec       q    Type
REMARK                         _______ _______ _______ _____ _____    ______ ____
ROOT
ATOM      1  N   UNL     1     -36.476  26.359   2.488  0.00  0.00    -0.247 N 
ATOM      2  N   UNL     1     -33.560  26.063   5.239  0.00  0.00    -0.228 NA
ATOM      3  N   UNL     1     -35.065  28.084   2.532  0.00  0.00    -0.242 NA
ATOM      4  N   UNL     1     -35.523  24.996   4.258  0.00  0.00    -0.228 NA
ATOM      5  C   UNL     1     -33.656  27.144   4.413  0.00  0.00    +0.146 C 
ATOM      6  C   UNL     1     -34.704  27.163   3.483  0.00  0.00    +0.140 C 
ATOM      7  C   UNL     1     -35.569  26.081   3.470  0.00  0.00    +0.152 C 
ATOM      8  C   UNL     1     -36.131  27.572   1.952  0.00  0.00    +0.223 C 
ATOM      9  C   UNL     1     -34.480  25.076   5.113  0.00  0.00    +0.253 C 
ATOM     10  N   UNL     1     -32.745  28.187   4.494  0.00  0.00    -0.319 N 
ATOM     11  H   UNL     1     -32.853  28.947   3.878  0.00  0.00    +0.148 HD
ENDROOT
BRANCH  10  15
ATOM     12  C   UNL     1     -31.786  29.350   6.471  0.00  0.00    +0.018 C 
ATOM     13  C   UNL     1     -29.810  29.774   5.534  0.00  0.00    +0.002 C 
ATOM     14  C   UNL     1     -30.336  29.486   6.942  0.00  0.00    +0.002 C 
ATOM     15  C   UNL     1     -31.648  28.220   5.429  0.00  0.00    +0.070 C 
ATOM     16  C   UNL     1     -30.309  28.547   4.746  0.00  0.00    +0.020 C 
ATOM     17  C   UNL     1     -32.005  30.717   5.792  0.00  0.00    +0.002 C 
ATOM     18  C   UNL     1     -30.649  30.996   5.128  0.00  0.00    +0.000 C 
ENDBRANCH  10  15
BRANCH   1  20
ATOM     19  O4* UNL     1     -37.999  25.876   0.733  0.00  0.00    -0.333 OA
ATOM     20  C1* UNL     1     -37.605  25.528   2.074  0.00  0.00    +0.225 C 
ATOM     21  C2* UNL     1     -38.845  25.693   2.938  0.00  0.00    +0.187 C 
ATOM     22  C3* UNL     1     -39.940  25.277   1.976  0.00  0.00    +0.171 C 
ATOM     23  C4* UNL     1     -39.443  25.849   0.651  0.00  0.00    +0.175 C 
BRANCH  21  24
ATOM     24  O2* UNL     1     -38.792  24.886   4.097  0.00  0.00    -0.378 OA
ATOM     25  H2* UNL     1     -37.869  24.787   4.380  0.00  0.00    +0.211 HD
ENDBRANCH  21  24
BRANCH  22  26
ATOM     26  O3* UNL     1     -39.973  23.853   1.878  0.00  0.00    -0.379 OA
ATOM     27  H3* UNL     1     -40.717  23.585   1.316  0.00  0.00    +0.211 HD
ENDBRANCH  22  26
BRANCH  23  28
ATOM     28  C5* UNL     1     -39.936  27.266   0.395  0.00  0.00    +0.169 C 
BRANCH  28  29
ATOM     29  O5* UNL     1     -41.060  27.512   1.222  0.00  0.00    -0.379 OA
ATOM     30  H5* UNL     1     -40.760  27.812   2.095  0.00  0.00    +0.211 HD
ENDBRANCH  28  29
ENDBRANCH  23  28
ENDBRANCH   1  20
TORSDOF 6
ENDMDL
MODEL 4
REMARK VINA RESULT:      -6.1      2.067      2.830
REMARK  Name = 5311431
REMARK  6 active torsions:
REMARK  status: ('A' for Active; 'I' for Inactive)
REMARK    1  A    between atoms: N_1  and  C1*_11
REMARK    2  A    between atoms: C2*_12  and  O2*_15
REMARK    3  A    between atoms: C3*_13  and  O3*_17
REMARK    4  A    between atoms: C4*_14  and  C5*_19
REMARK    5  A    between atoms: C5*_19  and  O5*_20
REMARK    6  A    between atoms: N_22  and  C_27
REMARK                            x       y       z     vdW  Elec       q    Type
REMARK                         _______ _______ _______ _____ _____    ______ ____
ROOT
ATOM      1  N   UNL     1     -36.039  24.189   3.952  0.00  0.00    -0.247 N 
ATOM      2  N   UNL     1     -33.030  26.468   2.569  0.00  0.00    -0.228 NA
ATOM      3  N   UNL     1     -35.524  25.929   5.247  0.00  0.00    -0.242 NA
ATOM      4  N   UNL     1     -34.419  24.501   2.170  0.00  0.00    -0.228 NA
ATOM      5  C   UNL     1     -33.667  26.758   3.740  0.00  0.00    +0.146 C 
ATOM      6  C   UNL     1     -34.705  25.909   4.146  0.00  0.00    +0.140 C 
ATOM      7  C   UNL     1     -35.011  24.834   3.327  0.00  0.00    +0.152 C 
ATOM      8  C   UNL     1     -36.312  24.884   5.101  0.00  0.00    +0.223 C 
ATOM      9  C   UNL     1     -33.438  25.380   1.871  0.00  0.00    +0.253 C 
ATOM     10  N   UNL     1     -33.294  27.857   4.500  0.00  0.00    -0.319 N 
ATOM     11  H   UNL     1     -33.782  28.028   5.338  0.00  0.00    +0.148 HD
ENDROOT
BRANCH  10  15
ATOM     12  C   UNL     1     -31.008  28.656   5.061  0.00  0.00    +0.018 C 
ATOM     13  C   UNL     1     -31.564  30.807   5.216  0.00  0.00    +0.002 C 
ATOM     14  C   UNL     1     -30.331  30.003   4.799  0.00  0.00    +0.002 C 
ATOM     15  C   UNL     1     -32.236  28.764   4.132  0.00  0.00    +0.070 C 
ATOM     16  C   UNL     1     -32.651  30.238   4.284  0.00  0.00    +0.020 C 
ATOM     17  C   UNL     1     -31.408  28.810   6.542  0.00  0.00    +0.002 C 
ATOM     18  C   UNL     1     -31.812  30.288   6.640  0.00  0.00    +0.000 C 
ENDBRANCH  10  15
BRANCH   1  20
ATOM     19  O4* UNL     1     -35.824  21.862   3.538  0.00  0.00    -0.333 OA
ATOM     20  C1* UNL     1     -36.727  22.983   3.494  0.00  0.00    +0.225 C 
ATOM     21  C2* UNL     1     -37.233  23.065   2.063  0.00  0.00    +0.187 C 
ATOM     22  C3* UNL     1     -37.287  21.600   1.679  0.00  0.00    +0.171 C 
ATOM     23  C4* UNL     1     -36.051  21.035   2.373  0.00  0.00    +0.175 C 
BRANCH  21  24
ATOM     24  O2* UNL     1     -38.490  23.704   1.984  0.00  0.00    -0.378 OA
ATOM     25  H2* UNL     1     -39.190  23.035   1.920  0.00  0.00    +0.211 HD
ENDBRANCH  21  24
BRANCH  22  26
ATOM     26  O3* UNL     1     -38.450  21.000   2.250  0.00  0.00    -0.379 OA
ATOM     27  H3* UNL     1     -39.153  20.958   1.583  0.00  0.00    +0.211 HD
ENDBRANCH  22  26
BRANCH  23  28
ATOM     28  C5* UNL     1     -34.806  21.084   1.500  0.00  0.00    +0.169 C 
BRANCH  28  29
ATOM     29  O5* UNL     1     -34.134  19.840   1.599  0.00  0.00    -0.379 OA
ATOM     30  H5* UNL     1     -33.177  19.991   1.630  0.00  0.00    +0.211 HD
ENDBRANCH  28  29
ENDBRANCH  23  28
ENDBRANCH   1  20
TORSDOF 6
ENDMDL
MODEL 5
REMARK VINA RESULT:      -6.0      5.911      8.654
REMARK  Name = 5311431
REMARK  6 active torsions:
REMARK  status: ('A' for Active; 'I' for Inactive)
REMARK    1  A    between atoms: N_1  and  C1*_11
REMARK    2  A    between atoms: C2*_12  and  O2*_15
REMARK    3  A    between atoms: C3*_13  and  O3*_17
REMARK    4  A    between atoms: C4*_14  and  C5*_19
REMARK    5  A    between atoms: C5*_19  and  O5*_20
REMARK    6  A    between atoms: N_22  and  C_27
REMARK                            x       y       z     vdW  Elec       q    Type
REMARK                         _______ _______ _______ _____ _____    ______ ____
ROOT
ATOM      1  N   UNL     1     -35.663  18.992  -0.027  0.00  0.00    -0.247 N 
ATOM      2  N   UNL     1     -37.543  21.762   2.199  0.00  0.00    -0.228 NA
ATOM      3  N   UNL     1     -34.466  19.773   1.683  0.00  0.00    -0.242 NA
ATOM      4  N   UNL     1     -37.704  20.274   0.271  0.00  0.00    -0.228 NA
ATOM      5  C   UNL     1     -36.274  21.352   2.488  0.00  0.00    +0.146 C 
ATOM      6  C   UNL     1     -35.697  20.381   1.659  0.00  0.00    +0.140 C 
ATOM      7  C   UNL     1     -36.456  19.908   0.602  0.00  0.00    +0.152 C 
ATOM      8  C   UNL     1     -34.478  18.945   0.659  0.00  0.00    +0.223 C 
ATOM      9  C   UNL     1     -38.166  21.208   1.130  0.00  0.00    +0.253 C 
ATOM     10  N   UNL     1     -35.583  21.882   3.568  0.00  0.00    -0.319 N 
ATOM     11  H   UNL     1     -34.670  21.557   3.740  0.00  0.00    +0.148 HD
ENDROOT
BRANCH  10  15
ATOM     12  C   UNL     1     -36.142  24.290   3.828  0.00  0.00    +0.018 C 
ATOM     13  C   UNL     1     -34.960  24.586   5.692  0.00  0.00    +0.002 C 
ATOM     14  C   UNL     1     -36.240  25.161   5.083  0.00  0.00    +0.002 C 
ATOM     15  C   UNL     1     -36.126  22.880   4.455  0.00  0.00    +0.070 C 
ATOM     16  C   UNL     1     -35.263  23.075   5.714  0.00  0.00    +0.020 C 
ATOM     17  C   UNL     1     -34.749  24.687   3.302  0.00  0.00    +0.002 C 
ATOM     18  C   UNL     1     -33.930  24.868   4.587  0.00  0.00    +0.000 C 
ENDBRANCH  10  15
BRANCH   1  20
ATOM     19  O4* UNL     1     -36.674  16.992  -0.811  0.00  0.00    -0.333 OA
ATOM     20  C1* UNL     1     -36.001  18.202  -1.210  0.00  0.00    +0.225 C 
ATOM     21  C2* UNL     1     -34.797  17.768  -2.030  0.00  0.00    +0.187 C 
ATOM     22  C3* UNL     1     -35.337  16.533  -2.726  0.00  0.00    +0.171 C 
ATOM     23  C4* UNL     1     -36.210  15.905  -1.644  0.00  0.00    +0.175 C 
BRANCH  21  24
ATOM     24  O2* UNL     1     -34.382  18.773  -2.931  0.00  0.00    -0.378 OA
ATOM     25  H2* UNL     1     -34.122  18.366  -3.773  0.00  0.00    +0.211 HD
ENDBRANCH  21  24
BRANCH  22  26
ATOM     26  O3* UNL     1     -36.168  16.927  -3.817  0.00  0.00    -0.379 OA
ATOM     27  H3* UNL     1     -37.031  16.490  -3.740  0.00  0.00    +0.211 HD
ENDBRANCH  22  26
BRANCH  23  28
ATOM     28  C5* UNL     1     -35.451  14.919  -0.767  0.00  0.00    +0.169 C 
BRANCH  28  29
ATOM     29  O5* UNL     1     -35.721  15.218   0.591  0.00  0.00    -0.379 OA
ATOM     30  H5* UNL     1     -35.969  16.152   0.674  0.00  0.00    +0.211 HD
ENDBRANCH  28  29
ENDBRANCH  23  28
ENDBRANCH   1  20
TORSDOF 6
ENDMDL
MODEL 6
REMARK VINA RESULT:      -5.9      2.081      2.960
REMARK  Name = 5311431
REMARK  6 active torsions:
REMARK  status: ('A' for Active; 'I' for Inactive)
REMARK    1  A    between atoms: N_1  and  C1*_11
REMARK    2  A    between atoms: C2*_12  and  O2*_15
REMARK    3  A    between atoms: C3*_13  and  O3*_17
REMARK    4  A    between atoms: C4*_14  and  C5*_19
REMARK    5  A    between atoms: C5*_19  and  O5*_20
REMARK    6  A    between atoms: N_22  and  C_27
REMARK                            x       y       z     vdW  Elec       q    Type
REMARK                         _______ _______ _______ _____ _____    ______ ____
ROOT
ATOM      1  N   UNL     1     -35.354  24.767   3.268  0.00  0.00    -0.247 N 
ATOM      2  N   UNL     1     -34.061  28.568   3.488  0.00  0.00    -0.228 NA
ATOM      3  N   UNL     1     -33.737  25.111   4.764  0.00  0.00    -0.242 NA
ATOM      4  N   UNL     1     -35.604  27.021   2.399  0.00  0.00    -0.228 NA
ATOM      5  C   UNL     1     -33.535  27.586   4.276  0.00  0.00    +0.146 C 
ATOM      6  C   UNL     1     -34.046  26.290   4.132  0.00  0.00    +0.140 C 
ATOM      7  C   UNL     1     -35.051  26.097   3.199  0.00  0.00    +0.152 C 
ATOM      8  C   UNL     1     -34.538  24.217   4.223  0.00  0.00    +0.223 C 
ATOM      9  C   UNL     1     -35.043  28.231   2.617  0.00  0.00    +0.253 C 
ATOM     10  N   UNL     1     -32.526  27.868   5.186  0.00  0.00    -0.319 N 
ATOM     11  H   UNL     1     -32.176  27.129   5.734  0.00  0.00    +0.148 HD
ENDROOT
BRANCH  10  15
ATOM     12  C   UNL     1     -30.667  29.398   4.570  0.00  0.00    +0.018 C 
ATOM     13  C   UNL     1     -30.027  29.814   6.662  0.00  0.00    +0.002 C 
ATOM     14  C   UNL     1     -30.046  30.571   5.333  0.00  0.00    +0.002 C 
ATOM     15  C   UNL     1     -31.964  29.181   5.378  0.00  0.00    +0.070 C 
ATOM     16  C   UNL     1     -31.507  29.415   6.828  0.00  0.00    +0.020 C 
ATOM     17  C   UNL     1     -29.637  28.285   4.851  0.00  0.00    +0.002 C 
ATOM     18  C   UNL     1     -29.216  28.561   6.301  0.00  0.00    +0.000 C 
ENDBRANCH  10  15
BRANCH   1  20
ATOM     19  O4* UNL     1     -37.372  24.972   2.037  0.00  0.00    -0.333 OA
ATOM     20  C1* UNL     1     -36.355  24.052   2.480  0.00  0.00    +0.225 C 
ATOM     21  C2* UNL     1     -37.078  22.955   3.244  0.00  0.00    +0.187 C 
ATOM     22  C3* UNL     1     -38.381  22.860   2.474  0.00  0.00    +0.171 C 
ATOM     23  C4* UNL     1     -38.660  24.319   2.126  0.00  0.00    +0.175 C 
BRANCH  21  24
ATOM     24  O2* UNL     1     -36.349  21.745   3.247  0.00  0.00    -0.378 OA
ATOM     25  H2* UNL     1     -36.965  20.996   3.261  0.00  0.00    +0.211 HD
ENDBRANCH  21  24
BRANCH  22  26
ATOM     26  O3* UNL     1     -38.168  22.131   1.265  0.00  0.00    -0.379 OA
ATOM     27  H3* UNL     1     -37.995  22.752   0.540  0.00  0.00    +0.211 HD
ENDBRANCH  22  26
BRANCH  23  28
ATOM     28  C5* UNL     1     -39.488  25.034   3.184  0.00  0.00    +0.169 C 
BRANCH  28  29
ATOM     29  O5* UNL     1     -38.947  26.327   3.387  0.00  0.00    -0.379 OA
ATOM     30  H5* UNL     1     -39.071  26.589   4.313  0.00  0.00    +0.211 HD
ENDBRANCH  28  29
ENDBRANCH  23  28
ENDBRANCH   1  20
TORSDOF 6
ENDMDL
MODEL 7
REMARK VINA RESULT:      -5.9      6.000     10.988
REMARK  Name = 5311431
REMARK  6 active torsions:
REMARK  status: ('A' for Active; 'I' for Inactive)
REMARK    1  A    between atoms: N_1  and  C1*_11
REMARK    2  A    between atoms: C2*_12  and  O2*_15
REMARK    3  A    between atoms: C3*_13  and  O3*_17
REMARK    4  A    between atoms: C4*_14  and  C5*_19
REMARK    5  A    between atoms: C5*_19  and  O5*_20
REMARK    6  A    between atoms: N_22  and  C_27
REMARK                            x       y       z     vdW  Elec       q    Type
REMARK                         _______ _______ _______ _____ _____    ______ ____
ROOT
ATOM      1  N   UNL     1     -36.626  22.122   2.411  0.00  0.00    -0.247 N 
ATOM      2  N   UNL     1     -35.517  18.853   0.351  0.00  0.00    -0.228 NA
ATOM      3  N   UNL     1     -38.306  21.026   1.439  0.00  0.00    -0.242 NA
ATOM      4  N   UNL     1     -34.762  20.726   1.722  0.00  0.00    -0.228 NA
ATOM      5  C   UNL     1     -36.823  19.239   0.431  0.00  0.00    +0.146 C 
ATOM      6  C   UNL     1     -37.119  20.391   1.172  0.00  0.00    +0.140 C 
ATOM      7  C   UNL     1     -36.061  21.058   1.769  0.00  0.00    +0.152 C 
ATOM      8  C   UNL     1     -37.976  22.060   2.185  0.00  0.00    +0.223 C 
ATOM      9  C   UNL     1     -34.587  19.606   0.988  0.00  0.00    +0.253 C 
ATOM     10  N   UNL     1     -37.821  18.511  -0.201  0.00  0.00    -0.319 N 
ATOM     11  H   UNL     1     -38.750  18.827  -0.116  0.00  0.00    +0.148 HD
ENDROOT
BRANCH  10  15
ATOM     12  C   UNL     1     -38.491  17.213  -2.212  0.00  0.00    +0.018 C 
ATOM     13  C   UNL     1     -38.912  15.320  -1.116  0.00  0.00    +0.002 C 
ATOM     14  C   UNL     1     -38.404  15.713  -2.505  0.00  0.00    +0.002 C 
ATOM     15  C   UNL     1     -37.576  17.320  -0.973  0.00  0.00    +0.070 C 
ATOM     16  C   UNL     1     -37.909  16.038  -0.191  0.00  0.00    +0.020 C 
ATOM     17  C   UNL     1     -39.977  17.353  -1.827  0.00  0.00    +0.002 C 
ATOM     18  C   UNL     1     -40.258  16.058  -1.052  0.00  0.00    +0.000 C 
ENDBRANCH  10  15
BRANCH   1  20
ATOM     19  O4* UNL     1     -34.968  22.516   4.063  0.00  0.00    -0.333 OA
ATOM     20  C1* UNL     1     -35.934  23.142   3.196  0.00  0.00    +0.225 C 
ATOM     21  C2* UNL     1     -36.848  23.958   4.097  0.00  0.00    +0.187 C 
ATOM     22  C3* UNL     1     -35.881  24.415   5.171  0.00  0.00    +0.171 C 
ATOM     23  C4* UNL     1     -34.981  23.196   5.340  0.00  0.00    +0.175 C 
BRANCH  21  24
ATOM     24  O2* UNL     1     -37.452  25.030   3.404  0.00  0.00    -0.378 OA
ATOM     25  H2* UNL     1     -36.803  25.739   3.276  0.00  0.00    +0.211 HD
ENDBRANCH  21  24
BRANCH  22  26
ATOM     26  O3* UNL     1     -35.097  25.501   4.676  0.00  0.00    -0.379 OA
ATOM     27  H3* UNL     1     -34.234  25.505   5.119  0.00  0.00    +0.211 HD
ENDBRANCH  22  26
BRANCH  23  28
ATOM     28  C5* UNL     1     -35.489  22.224   6.395  0.00  0.00    +0.169 C 
BRANCH  28  29
ATOM     29  O5* UNL     1     -35.399  20.907   5.881  0.00  0.00    -0.379 OA
ATOM     30  H5* UNL     1     -34.500  20.748   5.554  0.00  0.00    +0.211 HD
ENDBRANCH  28  29
ENDBRANCH  23  28
ENDBRANCH   1  20
TORSDOF 6
ENDMDL
MODEL 8
REMARK VINA RESULT:      -5.9      7.016      9.135
REMARK  Name = 5311431
REMARK  6 active torsions:
REMARK  status: ('A' for Active; 'I' for Inactive)
REMARK    1  A    between atoms: N_1  and  C1*_11
REMARK    2  A    between atoms: C2*_12  and  O2*_15
REMARK    3  A    between atoms: C3*_13  and  O3*_17
REMARK    4  A    between atoms: C4*_14  and  C5*_19
REMARK    5  A    between atoms: C5*_19  and  O5*_20
REMARK    6  A    between atoms: N_22  and  C_27
REMARK                            x       y       z     vdW  Elec       q    Type
REMARK                         _______ _______ _______ _____ _____    ______ ____
ROOT
ATOM      1  N   UNL     1     -38.567  22.630   2.080  0.00  0.00    -0.247 N 
ATOM      2  N   UNL     1     -35.012  21.067   3.119  0.00  0.00    -0.228 NA
ATOM      3  N   UNL     1     -37.728  21.181   0.610  0.00  0.00    -0.242 NA
ATOM      4  N   UNL     1     -36.810  22.590   3.757  0.00  0.00    -0.228 NA
ATOM      5  C   UNL     1     -35.632  20.722   1.954  0.00  0.00    +0.146 C 
ATOM      6  C   UNL     1     -36.870  21.316   1.673  0.00  0.00    +0.140 C 
ATOM      7  C   UNL     1     -37.375  22.213   2.599  0.00  0.00    +0.152 C 
ATOM      8  C   UNL     1     -38.736  21.982   0.885  0.00  0.00    +0.223 C 
ATOM      9  C   UNL     1     -35.627  21.961   3.931  0.00  0.00    +0.253 C 
ATOM     10  N   UNL     1     -35.052  19.813   1.080  0.00  0.00    -0.319 N 
ATOM     11  H   UNL     1     -35.536  19.594   0.251  0.00  0.00    +0.148 HD
ENDROOT
BRANCH  10  15
ATOM     12  C   UNL     1     -32.604  19.920   0.664  0.00  0.00    +0.018 C 
ATOM     13  C   UNL     1     -32.445  17.878  -0.210  0.00  0.00    +0.002 C 
ATOM     14  C   UNL     1     -31.552  18.810   0.612  0.00  0.00    +0.002 C 
ATOM     15  C   UNL     1     -33.784  19.171   1.318  0.00  0.00    +0.070 C 
ATOM     16  C   UNL     1     -33.705  17.777   0.671  0.00  0.00    +0.020 C 
ATOM     17  C   UNL     1     -32.854  20.160  -0.838  0.00  0.00    +0.002 C 
ATOM     18  C   UNL     1     -32.767  18.748  -1.435  0.00  0.00    +0.000 C 
ENDBRANCH  10  15
BRANCH   1  20
ATOM     19  O4* UNL     1     -40.634  23.765   1.809  0.00  0.00    -0.333 OA
ATOM     20  C1* UNL     1     -39.498  23.587   2.677  0.00  0.00    +0.225 C 
ATOM     21  C2* UNL     1     -38.908  24.971   2.895  0.00  0.00    +0.187 C 
ATOM     22  C3* UNL     1     -40.155  25.834   2.886  0.00  0.00    +0.171 C 
ATOM     23  C4* UNL     1     -41.007  25.163   1.813  0.00  0.00    +0.175 C 
BRANCH  21  24
ATOM     24  O2* UNL     1     -38.188  25.053   4.107  0.00  0.00    -0.378 OA
ATOM     25  H2* UNL     1     -37.487  25.719   4.023  0.00  0.00    +0.211 HD
ENDBRANCH  21  24
BRANCH  22  26
ATOM     26  O3* UNL     1     -40.822  25.720   4.142  0.00  0.00    -0.379 OA
ATOM     27  H3* UNL     1     -41.499  25.026   4.087  0.00  0.00    +0.211 HD
ENDBRANCH  22  26
BRANCH  23  28
ATOM     28  C5* UNL     1     -40.764  25.728   0.421  0.00  0.00    +0.169 C 
BRANCH  28  29
ATOM     29  O5* UNL     1     -40.431  27.100   0.541  0.00  0.00    -0.379 OA
ATOM     30  H5* UNL     1     -40.128  27.282   1.444  0.00  0.00    +0.211 HD
ENDBRANCH  28  29
ENDBRANCH  23  28
ENDBRANCH   1  20
TORSDOF 6
ENDMDL
MODEL 9
REMARK VINA RESULT:      -5.9      1.502      2.658
REMARK  Name = 5311431
REMARK  6 active torsions:
REMARK  status: ('A' for Active; 'I' for Inactive)
REMARK    1  A    between atoms: N_1  and  C1*_11
REMARK    2  A    between atoms: C2*_12  and  O2*_15
REMARK    3  A    between atoms: C3*_13  and  O3*_17
REMARK    4  A    between atoms: C4*_14  and  C5*_19
REMARK    5  A    between atoms: C5*_19  and  O5*_20
REMARK    6  A    between atoms: N_22  and  C_27
REMARK                            x       y       z     vdW  Elec       q    Type
REMARK                         _______ _______ _______ _____ _____    ______ ____
ROOT
ATOM      1  N   UNL     1     -34.644  26.659   3.959  0.00  0.00    -0.247 N 
ATOM      2  N   UNL     1     -31.566  27.863   6.248  0.00  0.00    -0.228 NA
ATOM      3  N   UNL     1     -33.056  27.775   2.864  0.00  0.00    -0.242 NA
ATOM      4  N   UNL     1     -33.706  26.690   6.200  0.00  0.00    -0.228 NA
ATOM      5  C   UNL     1     -31.611  28.130   4.911  0.00  0.00    +0.146 C 
ATOM      6  C   UNL     1     -32.722  27.672   4.191  0.00  0.00    +0.140 C 
ATOM      7  C   UNL     1     -33.698  26.980   4.890  0.00  0.00    +0.152 C 
ATOM      8  C   UNL     1     -34.214  27.157   2.758  0.00  0.00    +0.223 C 
ATOM      9  C   UNL     1     -32.596  27.173   6.798  0.00  0.00    +0.253 C 
ATOM     10  N   UNL     1     -30.588  28.833   4.291  0.00  0.00    -0.319 N 
ATOM     11  H   UNL     1     -30.663  29.004   3.324  0.00  0.00    +0.148 HD
ENDROOT
BRANCH  10  15
ATOM     12  C   UNL     1     -29.593  30.778   5.476  0.00  0.00    +0.018 C 
ATOM     13  C   UNL     1     -27.770  30.897   4.204  0.00  0.00    +0.002 C 
ATOM     14  C   UNL     1     -28.132  31.193   5.660  0.00  0.00    +0.002 C 
ATOM     15  C   UNL     1     -29.423  29.327   4.981  0.00  0.00    +0.070 C 
ATOM     16  C   UNL     1     -28.196  29.423   4.058  0.00  0.00    +0.020 C 
ATOM     17  C   UNL     1     -30.024  31.717   4.332  0.00  0.00    +0.002 C 
ATOM     18  C   UNL     1     -28.773  31.778   3.444  0.00  0.00    +0.000 C 
ENDBRANCH  10  15
BRANCH   1  20
ATOM     19  O4* UNL     1     -35.586  24.610   4.699  0.00  0.00    -0.333 OA
ATOM     20  C1* UNL     1     -35.886  25.923   4.189  0.00  0.00    +0.225 C 
ATOM     21  C2* UNL     1     -36.721  25.711   2.936  0.00  0.00    +0.187 C 
ATOM     22  C3* UNL     1     -37.513  24.473   3.308  0.00  0.00    +0.171 C 
ATOM     23  C4* UNL     1     -36.491  23.657   4.094  0.00  0.00    +0.175 C 
BRANCH  21  24
ATOM     24  O2* UNL     1     -37.540  26.827   2.653  0.00  0.00    -0.378 OA
ATOM     25  H2* UNL     1     -37.420  27.090   1.726  0.00  0.00    +0.211 HD
ENDBRANCH  21  24
BRANCH  22  26
ATOM     26  O3* UNL     1     -38.583  24.836   4.181  0.00  0.00    -0.379 OA
ATOM     27  H3* UNL     1     -39.237  25.359   3.691  0.00  0.00    +0.211 HD
ENDBRANCH  22  26
BRANCH  23  28
ATOM     28  C5* UNL     1     -35.681  22.716   3.215  0.00  0.00    +0.169 C 
BRANCH  28  29
ATOM     29  O5* UNL     1     -36.339  21.462   3.166  0.00  0.00    -0.379 OA
ATOM     30  H5* UNL     1     -36.600  21.270   2.252  0.00  0.00    +0.211 HD
ENDBRANCH  28  29
ENDBRANCH  23  28
ENDBRANCH   1  20
TORSDOF 6
ENDMDL
