MODEL 1
REMARK VINA RESULT:      -5.9      0.000      0.000
REMARK  Name = 51406
REMARK  8 active torsions:
REMARK  status: ('A' for Active; 'I' for Inactive)
REMARK    1  A    between atoms: C_2  and  C_7
REMARK    2  A    between atoms: C_3  and  C_15
REMARK    3  A    between atoms: C_7  and  O_8
REMARK    4  A    between atoms: O_8  and  C_11
REMARK    5  A    between atoms: N_10  and  N_14
REMARK    6  A    between atoms: C_15  and  O_16
REMARK    7  A    between atoms: O_16  and  C_19
REMARK    8  A    between atoms: N_18  and  N_22
REMARK                            x       y       z     vdW  Elec       q    Type
REMARK                         _______ _______ _______ _____ _____    ______ ____
ROOT
ATOM      1  N   UNL     1     -36.167  23.250   3.704  0.00  0.00    -0.407 NA
ATOM      2  C   UNL     1     -35.747  21.965   3.735  0.00  0.00    +0.135 C 
ATOM      3  C   UNL     1     -35.969  23.974   4.828  0.00  0.00    +0.152 C 
ATOM      4  C   UNL     1     -35.142  21.374   4.833  0.00  0.00    +0.084 C 
ATOM      5  C   UNL     1     -35.374  23.477   5.976  0.00  0.00    +0.027 C 
ATOM      6  C   UNL     1     -34.956  22.150   5.970  0.00  0.00    -0.016 C 
ENDROOT
BRANCH   2   7
ATOM      7  C   UNL     1     -35.965  21.156   2.490  0.00  0.00    +0.264 C 
BRANCH   7   8
ATOM      8  O   UNL     1     -34.818  20.329   2.263  0.00  0.00    -0.426 OA
BRANCH   8  11
ATOM      9  O   UNL     1     -34.065  21.806   0.684  0.00  0.00    -0.225 OA
ATOM     10  N   UNL     1     -33.106  19.700   0.856  0.00  0.00    -0.144 N 
ATOM     11  C   UNL     1     -34.003  20.703   1.224  0.00  0.00    +0.422 C 
ATOM     12  C   UNL     1     -32.146  19.878  -0.223  0.00  0.00    +0.142 C 
BRANCH  10  14
ATOM     13  O   UNL     1     -32.032  17.866   1.686  0.00  0.00    -0.078 OA
ATOM     14  N   UNL     1     -33.138  18.408   1.595  0.00  0.00    +0.056 NA
ENDBRANCH  10  14
ENDBRANCH   8  11
ENDBRANCH   7   8
ENDBRANCH   2   7
BRANCH   3  15
ATOM     15  C   UNL     1     -36.430  25.393   4.798  0.00  0.00    +0.268 C 
BRANCH  15  16
ATOM     16  O   UNL     1     -35.360  26.244   5.192  0.00  0.00    -0.426 OA
BRANCH  16  19
ATOM     17  O   UNL     1     -34.971  26.839   3.016  0.00  0.00    -0.225 OA
ATOM     18  N   UNL     1     -33.321  27.171   4.614  0.00  0.00    -0.144 N 
ATOM     19  C   UNL     1     -34.581  26.758   4.180  0.00  0.00    +0.422 C 
ATOM     20  C   UNL     1     -32.340  27.746   3.707  0.00  0.00    +0.142 C 
BRANCH  18  22
ATOM     21  O   UNL     1     -32.472  28.028   6.551  0.00  0.00    -0.078 OA
ATOM     22  N   UNL     1     -32.978  27.016   6.054  0.00  0.00    +0.056 NA
ENDBRANCH  18  22
ENDBRANCH  16  19
ENDBRANCH  15  16
ENDBRANCH   3  15
TORSDOF 8
ENDMDL
MODEL 2
REMARK VINA RESULT:      -5.8      2.648      3.554
REMARK  Name = 51406
REMARK  8 active torsions:
REMARK  status: ('A' for Active; 'I' for Inactive)
REMARK    1  A    between atoms: C_2  and  C_7
REMARK    2  A    between atoms: C_3  and  C_15
REMARK    3  A    between atoms: C_7  and  O_8
REMARK    4  A    between atoms: O_8  and  C_11
REMARK    5  A    between atoms: N_10  and  N_14
REMARK    6  A    between atoms: C_15  and  O_16
REMARK    7  A    between atoms: O_16  and  C_19
REMARK    8  A    between atoms: N_18  and  N_22
REMARK                            x       y       z     vdW  Elec       q    Type
REMARK                         _______ _______ _______ _____ _____    ______ ____
ROOT
ATOM      1  N   UNL     1     -36.222  23.413   3.666  0.00  0.00    -0.407 NA
ATOM      2  C   UNL     1     -35.813  22.125   3.719  0.00  0.00    +0.135 C 
ATOM      3  C   UNL     1     -36.021  24.153   4.779  0.00  0.00    +0.152 C 
ATOM      4  C   UNL     1     -35.215  21.547   4.827  0.00  0.00    +0.084 C 
ATOM      5  C   UNL     1     -35.433  23.669   5.937  0.00  0.00    +0.027 C 
ATOM      6  C   UNL     1     -35.026  22.339   5.952  0.00  0.00    -0.016 C 
ENDROOT
BRANCH   2   7
ATOM      7  C   UNL     1     -36.034  21.298   2.486  0.00  0.00    +0.264 C 
BRANCH   7   8
ATOM      8  O   UNL     1     -37.435  21.263   2.192  0.00  0.00    -0.426 OA
BRANCH   8  11
ATOM      9  O   UNL     1     -36.941  20.650   0.042  0.00  0.00    -0.225 OA
ATOM     10  N   UNL     1     -39.150  20.949   0.686  0.00  0.00    -0.144 N 
ATOM     11  C   UNL     1     -37.772  20.931   0.904  0.00  0.00    +0.422 C 
ATOM     12  C   UNL     1     -39.733  20.627  -0.608  0.00  0.00    +0.142 C 
BRANCH  10  14
ATOM     13  O   UNL     1     -40.450  22.474   1.779  0.00  0.00    -0.078 OA
ATOM     14  N   UNL     1     -40.047  21.307   1.819  0.00  0.00    +0.056 NA
ENDBRANCH  10  14
ENDBRANCH   8  11
ENDBRANCH   7   8
ENDBRANCH   2   7
BRANCH   3  15
ATOM     15  C   UNL     1     -36.470  25.575   4.725  0.00  0.00    +0.268 C 
BRANCH  15  16
ATOM     16  O   UNL     1     -35.395  26.423   5.109  0.00  0.00    -0.426 OA
BRANCH  16  19
ATOM     17  O   UNL     1     -34.923  26.934   2.928  0.00  0.00    -0.225 OA
ATOM     18  N   UNL     1     -33.281  27.175   4.549  0.00  0.00    -0.144 N 
ATOM     19  C   UNL     1     -34.561  26.851   4.100  0.00  0.00    +0.422 C 
ATOM     20  C   UNL     1     -32.243  27.650   3.648  0.00  0.00    +0.142 C 
BRANCH  18  22
ATOM     21  O   UNL     1     -31.869  27.477   6.317  0.00  0.00    -0.078 OA
ATOM     22  N   UNL     1     -32.975  27.029   5.999  0.00  0.00    +0.056 NA
ENDBRANCH  18  22
ENDBRANCH  16  19
ENDBRANCH  15  16
ENDBRANCH   3  15
TORSDOF 8
ENDMDL
MODEL 3
REMARK VINA RESULT:      -5.8      0.098      6.916
REMARK  Name = 51406
REMARK  8 active torsions:
REMARK  status: ('A' for Active; 'I' for Inactive)
REMARK    1  A    between atoms: C_2  and  C_7
REMARK    2  A    between atoms: C_3  and  C_15
REMARK    3  A    between atoms: C_7  and  O_8
REMARK    4  A    between atoms: O_8  and  C_11
REMARK    5  A    between atoms: N_10  and  N_14
REMARK    6  A    between atoms: C_15  and  O_16
REMARK    7  A    between atoms: O_16  and  C_19
REMARK    8  A    between atoms: N_18  and  N_22
REMARK                            x       y       z     vdW  Elec       q    Type
REMARK                         _______ _______ _______ _____ _____    ______ ____
ROOT
ATOM      1  N   UNL     1     -36.118  23.192   3.715  0.00  0.00    -0.407 NA
ATOM      2  C   UNL     1     -35.927  23.923   4.837  0.00  0.00    +0.135 C 
ATOM      3  C   UNL     1     -35.712  21.904   3.760  0.00  0.00    +0.152 C 
ATOM      4  C   UNL     1     -35.352  23.426   5.996  0.00  0.00    +0.084 C 
ATOM      5  C   UNL     1     -35.127  21.314   4.869  0.00  0.00    +0.027 C 
ATOM      6  C   UNL     1     -34.947  22.098   6.004  0.00  0.00    -0.016 C 
ENDROOT
BRANCH   2   7
ATOM      7  C   UNL     1     -36.376  25.354   4.792  0.00  0.00    +0.264 C 
BRANCH   7   8
ATOM      8  O   UNL     1     -35.278  26.200   5.153  0.00  0.00    -0.426 OA
BRANCH   8  11
ATOM      9  O   UNL     1     -34.999  26.804   2.962  0.00  0.00    -0.225 OA
ATOM     10  N   UNL     1     -33.308  27.200   4.500  0.00  0.00    -0.144 N 
ATOM     11  C   UNL     1     -34.565  26.739   4.111  0.00  0.00    +0.422 C 
ATOM     12  C   UNL     1     -32.382  27.811   3.559  0.00  0.00    +0.142 C 
BRANCH  10  14
ATOM     13  O   UNL     1     -32.525  28.117   6.438  0.00  0.00    -0.078 OA
ATOM     14  N   UNL     1     -32.906  27.060   5.927  0.00  0.00    +0.056 NA
ENDBRANCH  10  14
ENDBRANCH   8  11
ENDBRANCH   7   8
ENDBRANCH   2   7
BRANCH   3  15
ATOM     15  C   UNL     1     -35.921  21.095   2.525  0.00  0.00    +0.268 C 
BRANCH  15  16
ATOM     16  O   UNL     1     -34.767  20.299   2.282  0.00  0.00    -0.426 OA
BRANCH  16  19
ATOM     17  O   UNL     1     -34.115  21.724   0.612  0.00  0.00    -0.225 OA
ATOM     18  N   UNL     1     -33.114  19.639   0.805  0.00  0.00    -0.144 N 
ATOM     19  C   UNL     1     -34.007  20.641   1.186  0.00  0.00    +0.422 C 
ATOM     20  C   UNL     1     -32.214  19.794  -0.328  0.00  0.00    +0.142 C 
BRANCH  18  22
ATOM     21  O   UNL     1     -31.953  17.891   1.703  0.00  0.00    -0.078 OA
ATOM     22  N   UNL     1     -33.085  18.375   1.590  0.00  0.00    +0.056 NA
ENDBRANCH  18  22
ENDBRANCH  16  19
ENDBRANCH  15  16
ENDBRANCH   3  15
TORSDOF 8
ENDMDL
MODEL 4
REMARK VINA RESULT:      -5.8      2.649      7.158
REMARK  Name = 51406
REMARK  8 active torsions:
REMARK  status: ('A' for Active; 'I' for Inactive)
REMARK    1  A    between atoms: C_2  and  C_7
REMARK    2  A    between atoms: C_3  and  C_15
REMARK    3  A    between atoms: C_7  and  O_8
REMARK    4  A    between atoms: O_8  and  C_11
REMARK    5  A    between atoms: N_10  and  N_14
REMARK    6  A    between atoms: C_15  and  O_16
REMARK    7  A    between atoms: O_16  and  C_19
REMARK    8  A    between atoms: N_18  and  N_22
REMARK                            x       y       z     vdW  Elec       q    Type
REMARK                         _______ _______ _______ _____ _____    ______ ____
ROOT
ATOM      1  N   UNL     1     -36.109  23.478   3.765  0.00  0.00    -0.407 NA
ATOM      2  C   UNL     1     -35.907  24.126   4.935  0.00  0.00    +0.135 C 
ATOM      3  C   UNL     1     -35.759  22.173   3.733  0.00  0.00    +0.152 C 
ATOM      4  C   UNL     1     -35.375  23.532   6.068  0.00  0.00    +0.084 C 
ATOM      5  C   UNL     1     -35.220  21.488   4.810  0.00  0.00    +0.027 C 
ATOM      6  C   UNL     1     -35.027  22.189   5.996  0.00  0.00    -0.016 C 
ENDROOT
BRANCH   2   7
ATOM      7  C   UNL     1     -36.293  25.576   4.976  0.00  0.00    +0.264 C 
BRANCH   7   8
ATOM      8  O   UNL     1     -35.133  26.360   5.273  0.00  0.00    -0.426 OA
BRANCH   8  11
ATOM      9  O   UNL     1     -34.903  26.903   3.061  0.00  0.00    -0.225 OA
ATOM     10  N   UNL     1     -33.121  27.193   4.519  0.00  0.00    -0.144 N 
ATOM     11  C   UNL     1     -34.426  26.824   4.192  0.00  0.00    +0.422 C 
ATOM     12  C   UNL     1     -32.193  27.715   3.528  0.00  0.00    +0.142 C 
BRANCH  10  14
ATOM     13  O   UNL     1     -32.493  28.126   6.506  0.00  0.00    -0.078 OA
ATOM     14  N   UNL     1     -32.671  27.047   5.931  0.00  0.00    +0.056 NA
ENDBRANCH  10  14
ENDBRANCH   8  11
ENDBRANCH   7   8
ENDBRANCH   2   7
BRANCH   3  15
ATOM     15  C   UNL     1     -35.981  21.454   2.445  0.00  0.00    +0.268 C 
BRANCH  15  16
ATOM     16  O   UNL     1     -37.379  21.330   2.210  0.00  0.00    -0.426 OA
BRANCH  16  19
ATOM     17  O   UNL     1     -36.946  20.724   0.045  0.00  0.00    -0.225 OA
ATOM     18  N   UNL     1     -39.141  20.988   0.751  0.00  0.00    -0.144 N 
ATOM     19  C   UNL     1     -37.757  20.992   0.930  0.00  0.00    +0.422 C 
ATOM     20  C   UNL     1     -39.755  20.657  -0.525  0.00  0.00    +0.142 C 
BRANCH  18  22
ATOM     21  O   UNL     1     -40.433  22.492   1.881  0.00  0.00    -0.078 OA
ATOM     22  N   UNL     1     -40.010  21.331   1.910  0.00  0.00    +0.056 NA
ENDBRANCH  18  22
ENDBRANCH  16  19
ENDBRANCH  15  16
ENDBRANCH   3  15
TORSDOF 8
ENDMDL
MODEL 5
REMARK VINA RESULT:      -5.6      3.894      6.749
REMARK  Name = 51406
REMARK  8 active torsions:
REMARK  status: ('A' for Active; 'I' for Inactive)
REMARK    1  A    between atoms: C_2  and  C_7
REMARK    2  A    between atoms: C_3  and  C_15
REMARK    3  A    between atoms: C_7  and  O_8
REMARK    4  A    between atoms: O_8  and  C_11
REMARK    5  A    between atoms: N_10  and  N_14
REMARK    6  A    between atoms: C_15  and  O_16
REMARK    7  A    between atoms: O_16  and  C_19
REMARK    8  A    between atoms: N_18  and  N_22
REMARK                            x       y       z     vdW  Elec       q    Type
REMARK                         _______ _______ _______ _____ _____    ______ ____
ROOT
ATOM      1  N   UNL     1     -36.717  24.367   4.240  0.00  0.00    -0.407 NA
ATOM      2  C   UNL     1     -35.746  24.455   5.177  0.00  0.00    +0.135 C 
ATOM      3  C   UNL     1     -36.914  23.147   3.692  0.00  0.00    +0.152 C 
ATOM      4  C   UNL     1     -34.968  23.386   5.590  0.00  0.00    +0.084 C 
ATOM      5  C   UNL     1     -36.190  22.016   4.036  0.00  0.00    +0.027 C 
ATOM      6  C   UNL     1     -35.200  22.148   5.005  0.00  0.00    -0.016 C 
ENDROOT
BRANCH   2   7
ATOM      7  C   UNL     1     -35.523  25.808   5.788  0.00  0.00    +0.264 C 
BRANCH   7   8
ATOM      8  O   UNL     1     -35.198  26.741   4.752  0.00  0.00    -0.426 OA
BRANCH   8  11
ATOM      9  O   UNL     1     -32.974  26.320   5.089  0.00  0.00    -0.225 OA
ATOM     10  N   UNL     1     -33.629  28.041   3.678  0.00  0.00    -0.144 N 
ATOM     11  C   UNL     1     -33.862  26.979   4.551  0.00  0.00    +0.422 C 
ATOM     12  C   UNL     1     -32.284  28.468   3.320  0.00  0.00    +0.142 C 
BRANCH  10  14
ATOM     13  O   UNL     1     -34.853  29.949   3.410  0.00  0.00    -0.078 OA
ATOM     14  N   UNL     1     -34.797  28.755   3.096  0.00  0.00    +0.056 NA
ENDBRANCH  10  14
ENDBRANCH   8  11
ENDBRANCH   7   8
ENDBRANCH   2   7
BRANCH   3  15
ATOM     15  C   UNL     1     -37.984  23.045   2.658  0.00  0.00    +0.268 C 
BRANCH  15  16
ATOM     16  O   UNL     1     -39.120  23.790   3.081  0.00  0.00    -0.426 OA
BRANCH  16  19
ATOM     17  O   UNL     1     -40.717  23.321   1.509  0.00  0.00    -0.225 OA
ATOM     18  N   UNL     1     -40.052  25.517   1.857  0.00  0.00    -0.144 N 
ATOM     19  C   UNL     1     -40.020  24.144   2.100  0.00  0.00    +0.422 C 
ATOM     20  C   UNL     1     -40.934  26.106   0.862  0.00  0.00    +0.142 C 
BRANCH  18  22
ATOM     21  O   UNL     1     -38.292  26.966   1.965  0.00  0.00    -0.078 OA
ATOM     22  N   UNL     1     -39.154  26.402   2.648  0.00  0.00    +0.056 NA
ENDBRANCH  18  22
ENDBRANCH  16  19
ENDBRANCH  15  16
ENDBRANCH   3  15
TORSDOF 8
ENDMDL
MODEL 6
REMARK VINA RESULT:      -5.6      3.594      5.064
REMARK  Name = 51406
REMARK  8 active torsions:
REMARK  status: ('A' for Active; 'I' for Inactive)
REMARK    1  A    between atoms: C_2  and  C_7
REMARK    2  A    between atoms: C_3  and  C_15
REMARK    3  A    between atoms: C_7  and  O_8
REMARK    4  A    between atoms: O_8  and  C_11
REMARK    5  A    between atoms: N_10  and  N_14
REMARK    6  A    between atoms: C_15  and  O_16
REMARK    7  A    between atoms: O_16  and  C_19
REMARK    8  A    between atoms: N_18  and  N_22
REMARK                            x       y       z     vdW  Elec       q    Type
REMARK                         _______ _______ _______ _____ _____    ______ ____
ROOT
ATOM      1  N   UNL     1     -36.757  24.227   4.074  0.00  0.00    -0.407 NA
ATOM      2  C   UNL     1     -36.783  22.952   3.625  0.00  0.00    +0.135 C 
ATOM      3  C   UNL     1     -35.905  24.490   5.090  0.00  0.00    +0.152 C 
ATOM      4  C   UNL     1     -36.000  21.933   4.142  0.00  0.00    +0.084 C 
ATOM      5  C   UNL     1     -35.081  23.542   5.675  0.00  0.00    +0.027 C 
ATOM      6  C   UNL     1     -35.136  22.241   5.186  0.00  0.00    -0.016 C 
ENDROOT
BRANCH   2   7
ATOM      7  C   UNL     1     -37.728  22.655   2.497  0.00  0.00    +0.264 C 
BRANCH   7   8
ATOM      8  O   UNL     1     -38.225  23.888   1.966  0.00  0.00    -0.426 OA
BRANCH   8  11
ATOM      9  O   UNL     1     -40.396  23.163   1.971  0.00  0.00    -0.225 OA
ATOM     10  N   UNL     1     -39.924  25.417   2.251  0.00  0.00    -0.144 N 
ATOM     11  C   UNL     1     -39.580  24.080   2.056  0.00  0.00    +0.422 C 
ATOM     12  C   UNL     1     -41.307  25.851   2.375  0.00  0.00    +0.142 C 
BRANCH  10  14
ATOM     13  O   UNL     1     -38.746  27.143   1.332  0.00  0.00    -0.078 OA
ATOM     14  N   UNL     1     -38.835  26.428   2.336  0.00  0.00    +0.056 NA
ENDBRANCH  10  14
ENDBRANCH   8  11
ENDBRANCH   7   8
ENDBRANCH   2   7
BRANCH   3  15
ATOM     15  C   UNL     1     -35.873  25.896   5.588  0.00  0.00    +0.268 C 
BRANCH  15  16
ATOM     16  O   UNL     1     -34.522  26.329   5.688  0.00  0.00    -0.426 OA
BRANCH  16  19
ATOM     17  O   UNL     1     -34.517  26.855   3.459  0.00  0.00    -0.225 OA
ATOM     18  N   UNL     1     -32.781  27.580   4.818  0.00  0.00    -0.144 N 
ATOM     19  C   UNL     1     -33.982  26.917   4.565  0.00  0.00    +0.422 C 
ATOM     20  C   UNL     1     -32.044  28.270   3.772  0.00  0.00    +0.142 C 
BRANCH  18  22
ATOM     21  O   UNL     1     -32.190  28.702   6.716  0.00  0.00    -0.078 OA
ATOM     22  N   UNL     1     -32.245  27.578   6.207  0.00  0.00    +0.056 NA
ENDBRANCH  18  22
ENDBRANCH  16  19
ENDBRANCH  15  16
ENDBRANCH   3  15
TORSDOF 8
ENDMDL
MODEL 7
REMARK VINA RESULT:      -5.5      4.279      7.230
REMARK  Name = 51406
REMARK  8 active torsions:
REMARK  status: ('A' for Active; 'I' for Inactive)
REMARK    1  A    between atoms: C_2  and  C_7
REMARK    2  A    between atoms: C_3  and  C_15
REMARK    3  A    between atoms: C_7  and  O_8
REMARK    4  A    between atoms: O_8  and  C_11
REMARK    5  A    between atoms: N_10  and  N_14
REMARK    6  A    between atoms: C_15  and  O_16
REMARK    7  A    between atoms: O_16  and  C_19
REMARK    8  A    between atoms: N_18  and  N_22
REMARK                            x       y       z     vdW  Elec       q    Type
REMARK                         _______ _______ _______ _____ _____    ______ ____
ROOT
ATOM      1  N   UNL     1     -37.536  25.688   3.722  0.00  0.00    -0.407 NA
ATOM      2  C   UNL     1     -36.631  24.927   4.377  0.00  0.00    +0.135 C 
ATOM      3  C   UNL     1     -38.163  25.108   2.675  0.00  0.00    +0.152 C 
ATOM      4  C   UNL     1     -36.325  23.620   4.035  0.00  0.00    +0.084 C 
ATOM      5  C   UNL     1     -37.929  23.809   2.253  0.00  0.00    +0.027 C 
ATOM      6  C   UNL     1     -36.990  23.058   2.952  0.00  0.00    -0.016 C 
ENDROOT
BRANCH   2   7
ATOM      7  C   UNL     1     -35.931  25.566   5.541  0.00  0.00    +0.264 C 
BRANCH   7   8
ATOM      8  O   UNL     1     -35.253  26.744   5.089  0.00  0.00    -0.426 OA
BRANCH   8  11
ATOM      9  O   UNL     1     -33.277  25.612   4.852  0.00  0.00    -0.225 OA
ATOM     10  N   UNL     1     -33.675  27.528   3.605  0.00  0.00    -0.144 N 
ATOM     11  C   UNL     1     -34.010  26.550   4.542  0.00  0.00    +0.422 C 
ATOM     12  C   UNL     1     -32.403  27.520   2.898  0.00  0.00    +0.142 C 
BRANCH  10  14
ATOM     13  O   UNL     1     -34.256  29.735   3.642  0.00  0.00    -0.078 OA
ATOM     14  N   UNL     1     -34.657  28.611   3.322  0.00  0.00    +0.056 NA
ENDBRANCH  10  14
ENDBRANCH   8  11
ENDBRANCH   7   8
ENDBRANCH   2   7
BRANCH   3  15
ATOM     15  C   UNL     1     -39.164  25.943   1.949  0.00  0.00    +0.268 C 
BRANCH  15  16
ATOM     16  O   UNL     1     -40.050  26.539   2.890  0.00  0.00    -0.426 OA
BRANCH  16  19
ATOM     17  O   UNL     1     -41.815  25.474   1.893  0.00  0.00    -0.225 OA
ATOM     18  N   UNL     1     -42.208  27.062   3.539  0.00  0.00    -0.144 N 
ATOM     19  C   UNL     1     -41.393  26.293   2.708  0.00  0.00    +0.422 C 
ATOM     20  C   UNL     1     -43.658  26.959   3.511  0.00  0.00    +0.142 C 
BRANCH  18  22
ATOM     21  O   UNL     1     -42.207  29.059   4.645  0.00  0.00    -0.078 OA
ATOM     22  N   UNL     1     -41.564  28.016   4.483  0.00  0.00    +0.056 NA
ENDBRANCH  18  22
ENDBRANCH  16  19
ENDBRANCH  15  16
ENDBRANCH   3  15
TORSDOF 8
ENDMDL
MODEL 8
REMARK VINA RESULT:      -5.5      3.423      4.559
REMARK  Name = 51406
REMARK  8 active torsions:
REMARK  status: ('A' for Active; 'I' for Inactive)
REMARK    1  A    between atoms: C_2  and  C_7
REMARK    2  A    between atoms: C_3  and  C_15
REMARK    3  A    between atoms: C_7  and  O_8
REMARK    4  A    between atoms: O_8  and  C_11
REMARK    5  A    between atoms: N_10  and  N_14
REMARK    6  A    between atoms: C_15  and  O_16
REMARK    7  A    between atoms: O_16  and  C_19
REMARK    8  A    between atoms: N_18  and  N_22
REMARK                            x       y       z     vdW  Elec       q    Type
REMARK                         _______ _______ _______ _____ _____    ______ ____
ROOT
ATOM      1  N   UNL     1     -36.351  24.051   4.041  0.00  0.00    -0.407 NA
ATOM      2  C   UNL     1     -36.271  22.759   3.649  0.00  0.00    +0.135 C 
ATOM      3  C   UNL     1     -35.769  24.358   5.222  0.00  0.00    +0.152 C 
ATOM      4  C   UNL     1     -35.640  21.766   4.381  0.00  0.00    +0.084 C 
ATOM      5  C   UNL     1     -35.115  23.439   6.026  0.00  0.00    +0.027 C 
ATOM      6  C   UNL     1     -35.054  22.120   5.589  0.00  0.00    -0.016 C 
ENDROOT
BRANCH   2   7
ATOM      7  C   UNL     1     -36.916  22.412   2.339  0.00  0.00    +0.264 C 
BRANCH   7   8
ATOM      8  O   UNL     1     -38.339  22.451   2.494  0.00  0.00    -0.426 OA
BRANCH   8  11
ATOM      9  O   UNL     1     -38.697  24.481   1.499  0.00  0.00    -0.225 OA
ATOM     10  N   UNL     1     -40.085  22.687   1.010  0.00  0.00    -0.144 N 
ATOM     11  C   UNL     1     -39.013  23.303   1.656  0.00  0.00    +0.422 C 
ATOM     12  C   UNL     1     -40.939  23.402   0.073  0.00  0.00    +0.142 C 
BRANCH  10  14
ATOM     13  O   UNL     1     -41.097  20.717   0.458  0.00  0.00    -0.078 OA
ATOM     14  N   UNL     1     -40.357  21.251   1.291  0.00  0.00    +0.056 NA
ENDBRANCH  10  14
ENDBRANCH   8  11
ENDBRANCH   7   8
ENDBRANCH   2   7
BRANCH   3  15
ATOM     15  C   UNL     1     -35.855  25.782   5.657  0.00  0.00    +0.268 C 
BRANCH  15  16
ATOM     16  O   UNL     1     -35.359  26.622   4.621  0.00  0.00    -0.426 OA
BRANCH  16  19
ATOM     17  O   UNL     1     -33.185  26.638   5.339  0.00  0.00    -0.225 OA
ATOM     18  N   UNL     1     -33.648  26.543   3.067  0.00  0.00    -0.144 N 
ATOM     19  C   UNL     1     -33.998  26.604   4.416  0.00  0.00    +0.422 C 
ATOM     20  C   UNL     1     -32.262  26.513   2.627  0.00  0.00    +0.142 C 
BRANCH  18  22
ATOM     21  O   UNL     1     -34.770  25.453   1.405  0.00  0.00    -0.078 OA
ATOM     22  N   UNL     1     -34.734  26.506   2.050  0.00  0.00    +0.056 NA
ENDBRANCH  18  22
ENDBRANCH  16  19
ENDBRANCH  15  16
ENDBRANCH   3  15
TORSDOF 8
ENDMDL
MODEL 9
REMARK VINA RESULT:      -5.5      3.568      6.661
REMARK  Name = 51406
REMARK  8 active torsions:
REMARK  status: ('A' for Active; 'I' for Inactive)
REMARK    1  A    between atoms: C_2  and  C_7
REMARK    2  A    between atoms: C_3  and  C_15
REMARK    3  A    between atoms: C_7  and  O_8
REMARK    4  A    between atoms: O_8  and  C_11
REMARK    5  A    between atoms: N_10  and  N_14
REMARK    6  A    between atoms: C_15  and  O_16
REMARK    7  A    between atoms: O_16  and  C_19
REMARK    8  A    between atoms: N_18  and  N_22
REMARK                            x       y       z     vdW  Elec       q    Type
REMARK                         _______ _______ _______ _____ _____    ______ ____
ROOT
ATOM      1  N   UNL     1     -36.593  24.204   4.105  0.00  0.00    -0.407 NA
ATOM      2  C   UNL     1     -35.792  24.460   5.164  0.00  0.00    +0.135 C 
ATOM      3  C   UNL     1     -36.646  22.919   3.688  0.00  0.00    +0.152 C 
ATOM      4  C   UNL     1     -35.046  23.496   5.822  0.00  0.00    +0.084 C 
ATOM      5  C   UNL     1     -35.939  21.883   4.277  0.00  0.00    +0.027 C 
ATOM      6  C   UNL     1     -35.126  22.186   5.364  0.00  0.00    -0.016 C 
ENDROOT
BRANCH   2   7
ATOM      7  C   UNL     1     -35.730  25.885   5.631  0.00  0.00    +0.264 C 
BRANCH   7   8
ATOM      8  O   UNL     1     -34.360  26.293   5.706  0.00  0.00    -0.426 OA
BRANCH   8  11
ATOM      9  O   UNL     1     -34.273  26.655   3.447  0.00  0.00    -0.225 OA
ATOM     10  N   UNL     1     -32.786  27.744   4.856  0.00  0.00    -0.144 N 
ATOM     11  C   UNL     1     -33.843  26.878   4.578  0.00  0.00    +0.422 C 
ATOM     12  C   UNL     1     -32.087  28.475   3.809  0.00  0.00    +0.142 C 
BRANCH  10  14
ATOM     13  O   UNL     1     -32.155  29.102   6.579  0.00  0.00    -0.078 OA
ATOM     14  N   UNL     1     -32.364  27.924   6.272  0.00  0.00    +0.056 NA
ENDBRANCH  10  14
ENDBRANCH   8  11
ENDBRANCH   7   8
ENDBRANCH   2   7
BRANCH   3  15
ATOM     15  C   UNL     1     -37.529  22.632   2.520  0.00  0.00    +0.268 C 
BRANCH  15  16
ATOM     16  O   UNL     1     -38.052  23.855   2.014  0.00  0.00    -0.426 OA
BRANCH  16  19
ATOM     17  O   UNL     1     -40.221  23.131   2.137  0.00  0.00    -0.225 OA
ATOM     18  N   UNL     1     -39.746  25.391   2.361  0.00  0.00    -0.144 N 
ATOM     19  C   UNL     1     -39.406  24.052   2.169  0.00  0.00    +0.422 C 
ATOM     20  C   UNL     1     -41.123  25.821   2.547  0.00  0.00    +0.142 C 
BRANCH  18  22
ATOM     21  O   UNL     1     -38.692  27.183   1.417  0.00  0.00    -0.078 OA
ATOM     22  N   UNL     1     -38.657  26.407   2.378  0.00  0.00    +0.056 NA
ENDBRANCH  18  22
ENDBRANCH  16  19
ENDBRANCH  15  16
ENDBRANCH   3  15
TORSDOF 8
ENDMDL
