MODEL 1
REMARK VINA RESULT:      -5.5      0.000      0.000
REMARK  Name = 197660
REMARK  6 active torsions:
REMARK  status: ('A' for Active; 'I' for Inactive)
REMARK    1  A    between atoms: N_4  and  C1*_12
REMARK    2  A    between atoms: C_6  and  O_21
REMARK    3  A    between atoms: C_7  and  C_23
REMARK    4  A    between atoms: C3*_14  and  O3*_16
REMARK    5  A    between atoms: C4*_15  and  C5*_18
REMARK    6  A    between atoms: C5*_18  and  O5*_19
REMARK                            x       y       z     vdW  Elec       q    Type
REMARK                         _______ _______ _______ _____ _____    ______ ____
ROOT
ATOM      1 CL   UNL     1     -34.778  22.796   1.098  0.00  0.00    -0.103 Cl
ATOM      2  O   UNL     1     -34.916  21.607   5.544  0.00  0.00    -0.252 OA
ATOM      3  O   UNL     1     -36.705  20.116   1.595  0.00  0.00    -0.273 OA
ATOM      4  N   UNL     1     -35.792  23.215   4.107  0.00  0.00    -0.217 N 
ATOM      5  N   UNL     1     -35.917  20.916   3.602  0.00  0.00    -0.238 N 
ATOM      6  C   UNL     1     -36.653  23.488   2.961  0.00  0.00    +0.220 C 
ATOM      7  C   UNL     1     -36.413  22.512   1.804  0.00  0.00    +0.178 C 
ATOM      8  C   UNL     1     -35.502  21.906   4.501  0.00  0.00    +0.313 C 
ATOM      9  C   UNL     1     -36.390  21.073   2.302  0.00  0.00    +0.247 C 
ATOM     10  H   UNL     1     -35.867  19.990   3.930  0.00  0.00    +0.159 HD
ENDROOT
BRANCH   4  12
ATOM     11  O4* UNL     1     -36.209  25.470   4.575  0.00  0.00    -0.335 OA
ATOM     12  C1* UNL     1     -35.415  24.328   4.929  0.00  0.00    +0.200 C 
ATOM     13  C2* UNL     1     -33.956  24.719   4.758  0.00  0.00    +0.083 C 
ATOM     14  C3* UNL     1     -33.992  26.215   4.969  0.00  0.00    +0.144 C 
ATOM     15  C4* UNL     1     -35.347  26.611   4.398  0.00  0.00    +0.173 C 
BRANCH  14  16
ATOM     16  O3* UNL     1     -33.950  26.506   6.365  0.00  0.00    -0.382 OA
ATOM     17  H3* UNL     1     -34.122  27.450   6.503  0.00  0.00    +0.210 HD
ENDBRANCH  14  16
BRANCH  15  18
ATOM     18  C5* UNL     1     -35.293  26.930   2.910  0.00  0.00    +0.169 C 
BRANCH  18  19
ATOM     19  O5* UNL     1     -36.570  27.386   2.493  0.00  0.00    -0.379 OA
ATOM     20  H5* UNL     1     -36.761  28.239   2.912  0.00  0.00    +0.211 HD
ENDBRANCH  18  19
ENDBRANCH  15  18
ENDBRANCH   4  12
BRANCH   6  21
ATOM     21  O   UNL     1     -38.011  23.436   3.395  0.00  0.00    -0.333 OA
ATOM     22  C   UNL     1     -38.710  24.619   3.041  0.00  0.00    +0.176 C 
ENDBRANCH   6  21
BRANCH   7  23
ATOM     23  C   UNL     1     -37.447  22.682   0.687  0.00  0.00    +0.028 C 
ATOM     24  C   UNL     1     -37.054  23.798  -0.260  0.00  0.00    +0.002 C 
ENDBRANCH   7  23
TORSDOF 6
ENDMDL
MODEL 2
REMARK VINA RESULT:      -5.4      1.971      2.369
REMARK  Name = 197660
REMARK  6 active torsions:
REMARK  status: ('A' for Active; 'I' for Inactive)
REMARK    1  A    between atoms: N_4  and  C1*_12
REMARK    2  A    between atoms: C_6  and  O_21
REMARK    3  A    between atoms: C_7  and  C_23
REMARK    4  A    between atoms: C3*_14  and  O3*_16
REMARK    5  A    between atoms: C4*_15  and  C5*_18
REMARK    6  A    between atoms: C5*_18  and  O5*_19
REMARK                            x       y       z     vdW  Elec       q    Type
REMARK                         _______ _______ _______ _____ _____    ______ ____
ROOT
ATOM      1 CL   UNL     1     -37.524  22.789  -0.442  0.00  0.00    -0.103 Cl
ATOM      2  O   UNL     1     -35.529  20.635   3.105  0.00  0.00    -0.252 OA
ATOM      3  O   UNL     1     -39.698  20.871   1.212  0.00  0.00    -0.273 OA
ATOM      4  N   UNL     1     -36.306  22.750   2.520  0.00  0.00    -0.217 N 
ATOM      5  N   UNL     1     -37.646  20.830   2.250  0.00  0.00    -0.238 N 
ATOM      6  C   UNL     1     -37.460  23.573   2.175  0.00  0.00    +0.220 C 
ATOM      7  C   UNL     1     -38.373  22.898   1.145  0.00  0.00    +0.178 C 
ATOM      8  C   UNL     1     -36.421  21.364   2.664  0.00  0.00    +0.313 C 
ATOM      9  C   UNL     1     -38.668  21.457   1.542  0.00  0.00    +0.247 C 
ATOM     10  H   UNL     1     -37.807  19.889   2.489  0.00  0.00    +0.159 HD
ENDROOT
BRANCH   4  12
ATOM     11  O4* UNL     1     -34.991  23.442   4.327  0.00  0.00    -0.335 OA
ATOM     12  C1* UNL     1     -35.100  23.428   2.897  0.00  0.00    +0.200 C 
ATOM     13  C2* UNL     1     -35.065  24.873   2.425  0.00  0.00    +0.083 C 
ATOM     14  C3* UNL     1     -34.278  25.555   3.520  0.00  0.00    +0.144 C 
ATOM     15  C4* UNL     1     -34.678  24.778   4.766  0.00  0.00    +0.173 C 
BRANCH  14  16
ATOM     16  O3* UNL     1     -32.881  25.398   3.277  0.00  0.00    -0.382 OA
ATOM     17  H3* UNL     1     -32.681  24.459   3.139  0.00  0.00    +0.210 HD
ENDBRANCH  14  16
BRANCH  15  18
ATOM     18  C5* UNL     1     -35.915  25.348   5.449  0.00  0.00    +0.169 C 
BRANCH  18  19
ATOM     19  O5* UNL     1     -35.965  26.746   5.216  0.00  0.00    -0.379 OA
ATOM     20  H5* UNL     1     -36.779  27.108   5.598  0.00  0.00    +0.211 HD
ENDBRANCH  18  19
ENDBRANCH  15  18
ENDBRANCH   4  12
BRANCH   6  21
ATOM     21  O   UNL     1     -38.177  23.869   3.372  0.00  0.00    -0.333 OA
ATOM     22  C   UNL     1     -38.608  25.221   3.393  0.00  0.00    +0.176 C 
ENDBRANCH   6  21
BRANCH   7  23
ATOM     23  C   UNL     1     -39.674  23.678   0.934  0.00  0.00    +0.028 C 
ATOM     24  C   UNL     1     -39.550  24.648  -0.223  0.00  0.00    +0.002 C 
ENDBRANCH   7  23
TORSDOF 6
ENDMDL
MODEL 3
REMARK VINA RESULT:      -5.4      1.890      5.662
REMARK  Name = 197660
REMARK  6 active torsions:
REMARK  status: ('A' for Active; 'I' for Inactive)
REMARK    1  A    between atoms: N_4  and  C1*_12
REMARK    2  A    between atoms: C_6  and  O_21
REMARK    3  A    between atoms: C_7  and  C_23
REMARK    4  A    between atoms: C3*_14  and  O3*_16
REMARK    5  A    between atoms: C4*_15  and  C5*_18
REMARK    6  A    between atoms: C5*_18  and  O5*_19
REMARK                            x       y       z     vdW  Elec       q    Type
REMARK                         _______ _______ _______ _____ _____    ______ ____
ROOT
ATOM      1 CL   UNL     1     -34.841  24.519   2.075  0.00  0.00    -0.103 Cl
ATOM      2  O   UNL     1     -38.976  22.498   2.203  0.00  0.00    -0.252 OA
ATOM      3  O   UNL     1     -36.893  26.053   4.214  0.00  0.00    -0.273 OA
ATOM      4  N   UNL     1     -36.806  22.155   2.972  0.00  0.00    -0.217 N 
ATOM      5  N   UNL     1     -37.919  24.205   3.309  0.00  0.00    -0.238 N 
ATOM      6  C   UNL     1     -35.728  22.627   3.835  0.00  0.00    +0.220 C 
ATOM      7  C   UNL     1     -35.499  24.137   3.710  0.00  0.00    +0.178 C 
ATOM      8  C   UNL     1     -37.970  22.907   2.787  0.00  0.00    +0.313 C 
ATOM      9  C   UNL     1     -36.816  24.897   3.800  0.00  0.00    +0.247 C 
ATOM     10  H   UNL     1     -38.774  24.691   3.331  0.00  0.00    +0.159 HD
ENDROOT
BRANCH   4  12
ATOM     11  O4* UNL     1     -35.376  20.331   2.654  0.00  0.00    -0.335 OA
ATOM     12  C1* UNL     1     -36.716  20.811   2.480  0.00  0.00    +0.200 C 
ATOM     13  C2* UNL     1     -37.048  20.702   1.001  0.00  0.00    +0.083 C 
ATOM     14  C3* UNL     1     -36.155  19.570   0.547  0.00  0.00    +0.144 C 
ATOM     15  C4* UNL     1     -34.921  19.733   1.424  0.00  0.00    +0.173 C 
BRANCH  14  16
ATOM     16  O3* UNL     1     -36.785  18.321   0.824  0.00  0.00    -0.382 OA
ATOM     17  H3* UNL     1     -37.505  18.175   0.191  0.00  0.00    +0.210 HD
ENDBRANCH  14  16
BRANCH  15  18
ATOM     18  C5* UNL     1     -33.877  20.658   0.812  0.00  0.00    +0.169 C 
BRANCH  18  19
ATOM     19  O5* UNL     1     -32.634  19.977   0.762  0.00  0.00    -0.379 OA
ATOM     20  H5* UNL     1     -32.474  19.663  -0.141  0.00  0.00    +0.211 HD
ENDBRANCH  18  19
ENDBRANCH  15  18
ENDBRANCH   4  12
BRANCH   6  21
ATOM     21  O   UNL     1     -36.039  22.272   5.181  0.00  0.00    -0.333 OA
ATOM     22  C   UNL     1     -35.010  21.481   5.756  0.00  0.00    +0.176 C 
ENDBRANCH   6  21
BRANCH   7  23
ATOM     23  C   UNL     1     -34.504  24.654   4.753  0.00  0.00    +0.028 C 
ATOM     24  C   UNL     1     -33.590  25.710   4.164  0.00  0.00    +0.002 C 
ENDBRANCH   7  23
TORSDOF 6
ENDMDL
MODEL 4
REMARK VINA RESULT:      -5.0      1.441      2.489
REMARK  Name = 197660
REMARK  6 active torsions:
REMARK  status: ('A' for Active; 'I' for Inactive)
REMARK    1  A    between atoms: N_4  and  C1*_12
REMARK    2  A    between atoms: C_6  and  O_21
REMARK    3  A    between atoms: C_7  and  C_23
REMARK    4  A    between atoms: C3*_14  and  O3*_16
REMARK    5  A    between atoms: C4*_15  and  C5*_18
REMARK    6  A    between atoms: C5*_18  and  O5*_19
REMARK                            x       y       z     vdW  Elec       q    Type
REMARK                         _______ _______ _______ _____ _____    ______ ____
ROOT
ATOM      1 CL   UNL     1     -34.701  23.007   1.736  0.00  0.00    -0.103 Cl
ATOM      2  O   UNL     1     -34.333  25.232   5.750  0.00  0.00    -0.252 OA
ATOM      3  O   UNL     1     -35.408  21.012   4.316  0.00  0.00    -0.273 OA
ATOM      4  N   UNL     1     -35.781  25.069   3.935  0.00  0.00    -0.217 N 
ATOM      5  N   UNL     1     -34.989  23.150   5.051  0.00  0.00    -0.238 N 
ATOM      6  C   UNL     1     -36.686  24.219   3.168  0.00  0.00    +0.220 C 
ATOM      7  C   UNL     1     -36.086  22.840   2.877  0.00  0.00    +0.178 C 
ATOM      8  C   UNL     1     -34.995  24.547   4.966  0.00  0.00    +0.313 C 
ATOM      9  C   UNL     1     -35.493  22.227   4.139  0.00  0.00    +0.247 C 
ATOM     10  H   UNL     1     -34.575  22.772   5.860  0.00  0.00    +0.159 HD
ENDROOT
BRANCH   4  12
ATOM     11  O4* UNL     1     -36.642  26.743   2.545  0.00  0.00    -0.335 OA
ATOM     12  C1* UNL     1     -35.871  26.485   3.726  0.00  0.00    +0.200 C 
ATOM     13  C2* UNL     1     -34.512  27.139   3.533  0.00  0.00    +0.083 C 
ATOM     14  C3* UNL     1     -34.826  28.267   2.577  0.00  0.00    +0.144 C 
ATOM     15  C4* UNL     1     -35.940  27.689   1.716  0.00  0.00    +0.173 C 
BRANCH  14  16
ATOM     16  O3* UNL     1     -35.312  29.394   3.306  0.00  0.00    -0.382 OA
ATOM     17  H3* UNL     1     -34.794  29.499   4.119  0.00  0.00    +0.210 HD
ENDBRANCH  14  16
BRANCH  15  18
ATOM     18  C5* UNL     1     -35.418  26.943   0.494  0.00  0.00    +0.169 C 
BRANCH  18  19
ATOM     19  O5* UNL     1     -36.315  25.890   0.182  0.00  0.00    -0.379 OA
ATOM     20  H5* UNL     1     -36.374  25.791  -0.781  0.00  0.00    +0.211 HD
ENDBRANCH  18  19
ENDBRANCH  15  18
ENDBRANCH   4  12
BRANCH   6  21
ATOM     21  O   UNL     1     -37.910  24.098   3.890  0.00  0.00    -0.333 OA
ATOM     22  C   UNL     1     -39.000  24.622   3.148  0.00  0.00    +0.176 C 
ENDBRANCH   6  21
BRANCH   7  23
ATOM     23  C   UNL     1     -37.109  21.891   2.245  0.00  0.00    +0.028 C 
ATOM     24  C   UNL     1     -37.314  22.206   0.777  0.00  0.00    +0.002 C 
ENDBRANCH   7  23
TORSDOF 6
ENDMDL
MODEL 5
REMARK VINA RESULT:      -4.9      1.884      5.527
REMARK  Name = 197660
REMARK  6 active torsions:
REMARK  status: ('A' for Active; 'I' for Inactive)
REMARK    1  A    between atoms: N_4  and  C1*_12
REMARK    2  A    between atoms: C_6  and  O_21
REMARK    3  A    between atoms: C_7  and  C_23
REMARK    4  A    between atoms: C3*_14  and  O3*_16
REMARK    5  A    between atoms: C4*_15  and  C5*_18
REMARK    6  A    between atoms: C5*_18  and  O5*_19
REMARK                            x       y       z     vdW  Elec       q    Type
REMARK                         _______ _______ _______ _____ _____    ______ ____
ROOT
ATOM      1 CL   UNL     1     -35.312  25.394   1.781  0.00  0.00    -0.103 Cl
ATOM      2  O   UNL     1     -39.621  24.797   3.290  0.00  0.00    -0.252 OA
ATOM      3  O   UNL     1     -35.828  26.964   4.681  0.00  0.00    -0.273 OA
ATOM      4  N   UNL     1     -37.616  23.626   3.130  0.00  0.00    -0.217 N 
ATOM      5  N   UNL     1     -37.705  25.788   4.064  0.00  0.00    -0.238 N 
ATOM      6  C   UNL     1     -36.224  23.527   3.555  0.00  0.00    +0.220 C 
ATOM      7  C   UNL     1     -35.498  24.876   3.498  0.00  0.00    +0.178 C 
ATOM      8  C   UNL     1     -38.405  24.726   3.479  0.00  0.00    +0.313 C 
ATOM      9  C   UNL     1     -36.328  25.968   4.159  0.00  0.00    +0.247 C 
ATOM     10  H   UNL     1     -38.258  26.499   4.460  0.00  0.00    +0.159 HD
ENDROOT
BRANCH   4  12
ATOM     11  O4* UNL     1     -37.182  21.489   2.281  0.00  0.00    -0.335 OA
ATOM     12  C1* UNL     1     -38.201  22.471   2.514  0.00  0.00    +0.200 C 
ATOM     13  C2* UNL     1     -38.846  22.782   1.173  0.00  0.00    +0.083 C 
ATOM     14  C3* UNL     1     -38.624  21.503   0.399  0.00  0.00    +0.144 C 
ATOM     15  C4* UNL     1     -37.284  21.010   0.926  0.00  0.00    +0.173 C 
BRANCH  14  16
ATOM     16  O3* UNL     1     -39.648  20.563   0.721  0.00  0.00    -0.382 OA
ATOM     17  H3* UNL     1     -40.503  20.899   0.412  0.00  0.00    +0.210 HD
ENDBRANCH  14  16
BRANCH  15  18
ATOM     18  C5* UNL     1     -36.100  21.561   0.143  0.00  0.00    +0.169 C 
BRANCH  18  19
ATOM     19  O5* UNL     1     -34.974  21.630   1.004  0.00  0.00    -0.379 OA
ATOM     20  H5* UNL     1     -35.193  22.170   1.779  0.00  0.00    +0.211 HD
ENDBRANCH  18  19
ENDBRANCH  15  18
ENDBRANCH   4  12
BRANCH   6  21
ATOM     21  O   UNL     1     -36.192  22.990   4.876  0.00  0.00    -0.333 OA
ATOM     22  C   UNL     1     -35.377  21.830   4.942  0.00  0.00    +0.176 C 
ENDBRANCH   6  21
BRANCH   7  23
ATOM     23  C   UNL     1     -34.103  24.803   4.124  0.00  0.00    +0.028 C 
ATOM     24  C   UNL     1     -33.088  25.561   3.293  0.00  0.00    +0.002 C 
ENDBRANCH   7  23
TORSDOF 6
ENDMDL
MODEL 6
REMARK VINA RESULT:      -4.9      1.605      2.005
REMARK  Name = 197660
REMARK  6 active torsions:
REMARK  status: ('A' for Active; 'I' for Inactive)
REMARK    1  A    between atoms: N_4  and  C1*_12
REMARK    2  A    between atoms: C_6  and  O_21
REMARK    3  A    between atoms: C_7  and  C_23
REMARK    4  A    between atoms: C3*_14  and  O3*_16
REMARK    5  A    between atoms: C4*_15  and  C5*_18
REMARK    6  A    between atoms: C5*_18  and  O5*_19
REMARK                            x       y       z     vdW  Elec       q    Type
REMARK                         _______ _______ _______ _____ _____    ______ ____
ROOT
ATOM      1 CL   UNL     1     -35.472  22.477  -0.157  0.00  0.00    -0.103 Cl
ATOM      2  O   UNL     1     -35.067  20.614   4.033  0.00  0.00    -0.252 OA
ATOM      3  O   UNL     1     -36.423  19.278  -0.138  0.00  0.00    -0.273 OA
ATOM      4  N   UNL     1     -36.459  22.064   2.860  0.00  0.00    -0.217 N 
ATOM      5  N   UNL     1     -35.862  19.958   1.986  0.00  0.00    -0.238 N 
ATOM      6  C   UNL     1     -37.402  22.225   1.759  0.00  0.00    +0.220 C 
ATOM      7  C   UNL     1     -36.904  21.576   0.463  0.00  0.00    +0.178 C 
ATOM      8  C   UNL     1     -35.753  20.871   3.042  0.00  0.00    +0.313 C 
ATOM      9  C   UNL     1     -36.406  20.160   0.721  0.00  0.00    +0.247 C 
ATOM     10  H   UNL     1     -35.507  19.057   2.161  0.00  0.00    +0.159 HD
ENDROOT
BRANCH   4  12
ATOM     11  O4* UNL     1     -37.644  23.852   3.795  0.00  0.00    -0.335 OA
ATOM     12  C1* UNL     1     -36.429  23.092   3.859  0.00  0.00    +0.200 C 
ATOM     13  C2* UNL     1     -35.276  24.064   3.669  0.00  0.00    +0.083 C 
ATOM     14  C3* UNL     1     -35.858  25.364   4.174  0.00  0.00    +0.144 C 
ATOM     15  C4* UNL     1     -37.326  25.257   3.789  0.00  0.00    +0.173 C 
BRANCH  14  16
ATOM     16  O3* UNL     1     -35.732  25.427   5.594  0.00  0.00    -0.382 OA
ATOM     17  H3* UNL     1     -34.819  25.220   5.846  0.00  0.00    +0.210 HD
ENDBRANCH  14  16
BRANCH  15  18
ATOM     18  C5* UNL     1     -37.615  25.796   2.394  0.00  0.00    +0.169 C 
BRANCH  18  19
ATOM     19  O5* UNL     1     -37.312  27.181   2.366  0.00  0.00    -0.379 OA
ATOM     20  H5* UNL     1     -37.150  27.458   1.450  0.00  0.00    +0.211 HD
ENDBRANCH  18  19
ENDBRANCH  15  18
ENDBRANCH   4  12
BRANCH   6  21
ATOM     21  O   UNL     1     -38.656  21.672   2.153  0.00  0.00    -0.333 OA
ATOM     22  C   UNL     1     -39.712  22.601   1.964  0.00  0.00    +0.176 C 
ENDBRANCH   6  21
BRANCH   7  23
ATOM     23  C   UNL     1     -37.977  21.581  -0.630  0.00  0.00    +0.028 C 
ATOM     24  C   UNL     1     -37.506  22.335  -1.857  0.00  0.00    +0.002 C 
ENDBRANCH   7  23
TORSDOF 6
ENDMDL
MODEL 7
REMARK VINA RESULT:      -4.9      2.510      4.378
REMARK  Name = 197660
REMARK  6 active torsions:
REMARK  status: ('A' for Active; 'I' for Inactive)
REMARK    1  A    between atoms: N_4  and  C1*_12
REMARK    2  A    between atoms: C_6  and  O_21
REMARK    3  A    between atoms: C_7  and  C_23
REMARK    4  A    between atoms: C3*_14  and  O3*_16
REMARK    5  A    between atoms: C4*_15  and  C5*_18
REMARK    6  A    between atoms: C5*_18  and  O5*_19
REMARK                            x       y       z     vdW  Elec       q    Type
REMARK                         _______ _______ _______ _____ _____    ______ ____
ROOT
ATOM      1 CL   UNL     1     -38.190  24.637  -0.583  0.00  0.00    -0.103 Cl
ATOM      2  O   UNL     1     -39.924  24.631   3.682  0.00  0.00    -0.252 OA
ATOM      3  O   UNL     1     -39.877  27.443   0.061  0.00  0.00    -0.273 OA
ATOM      4  N   UNL     1     -37.887  24.917   2.592  0.00  0.00    -0.217 N 
ATOM      5  N   UNL     1     -39.813  26.103   1.929  0.00  0.00    -0.238 N 
ATOM      6  C   UNL     1     -37.099  25.730   1.670  0.00  0.00    +0.220 C 
ATOM      7  C   UNL     1     -37.885  26.110   0.410  0.00  0.00    +0.178 C 
ATOM      8  C   UNL     1     -39.244  25.173   2.807  0.00  0.00    +0.313 C 
ATOM      9  C   UNL     1     -39.265  26.644   0.769  0.00  0.00    +0.247 C 
ATOM     10  H   UNL     1     -40.717  26.415   2.161  0.00  0.00    +0.159 HD
ENDROOT
BRANCH   4  12
ATOM     11  O4* UNL     1     -37.167  24.448   4.769  0.00  0.00    -0.335 OA
ATOM     12  C1* UNL     1     -37.179  23.978   3.413  0.00  0.00    +0.200 C 
ATOM     13  C2* UNL     1     -35.733  23.793   2.984  0.00  0.00    +0.083 C 
ATOM     14  C3* UNL     1     -35.034  23.525   4.297  0.00  0.00    +0.144 C 
ATOM     15  C4* UNL     1     -35.825  24.369   5.287  0.00  0.00    +0.173 C 
BRANCH  14  16
ATOM     16  O3* UNL     1     -35.156  22.143   4.632  0.00  0.00    -0.382 OA
ATOM     17  H3* UNL     1     -35.691  22.052   5.435  0.00  0.00    +0.210 HD
ENDBRANCH  14  16
BRANCH  15  18
ATOM     18  C5* UNL     1     -35.289  25.789   5.416  0.00  0.00    +0.169 C 
BRANCH  18  19
ATOM     19  O5* UNL     1     -36.378  26.696   5.368  0.00  0.00    -0.379 OA
ATOM     20  H5* UNL     1     -37.197  26.207   5.194  0.00  0.00    +0.211 HD
ENDBRANCH  18  19
ENDBRANCH  15  18
ENDBRANCH   4  12
BRANCH   6  21
ATOM     21  O   UNL     1     -36.657  26.896   2.363  0.00  0.00    -0.333 OA
ATOM     22  C   UNL     1     -35.284  27.153   2.112  0.00  0.00    +0.176 C 
ENDBRANCH   6  21
BRANCH   7  23
ATOM     23  C   UNL     1     -37.123  27.117  -0.457  0.00  0.00    +0.028 C 
ATOM     24  C   UNL     1     -36.269  26.414  -1.492  0.00  0.00    +0.002 C 
ENDBRANCH   7  23
TORSDOF 6
ENDMDL
MODEL 8
REMARK VINA RESULT:      -4.8      2.637      5.948
REMARK  Name = 197660
REMARK  6 active torsions:
REMARK  status: ('A' for Active; 'I' for Inactive)
REMARK    1  A    between atoms: N_4  and  C1*_12
REMARK    2  A    between atoms: C_6  and  O_21
REMARK    3  A    between atoms: C_7  and  C_23
REMARK    4  A    between atoms: C3*_14  and  O3*_16
REMARK    5  A    between atoms: C4*_15  and  C5*_18
REMARK    6  A    between atoms: C5*_18  and  O5*_19
REMARK                            x       y       z     vdW  Elec       q    Type
REMARK                         _______ _______ _______ _____ _____    ______ ____
ROOT
ATOM      1 CL   UNL     1     -32.382  27.189   1.835  0.00  0.00    -0.103 Cl
ATOM      2  O   UNL     1     -36.534  26.235   3.582  0.00  0.00    -0.252 OA
ATOM      3  O   UNL     1     -34.100  29.970   2.511  0.00  0.00    -0.273 OA
ATOM      4  N   UNL     1     -34.298  26.260   4.227  0.00  0.00    -0.217 N 
ATOM      5  N   UNL     1     -35.292  28.116   3.167  0.00  0.00    -0.238 N 
ATOM      6  C   UNL     1     -33.106  27.067   4.467  0.00  0.00    +0.220 C 
ATOM      7  C   UNL     1     -32.844  28.070   3.338  0.00  0.00    +0.178 C 
ATOM      8  C   UNL     1     -35.450  26.817   3.664  0.00  0.00    +0.313 C 
ATOM      9  C   UNL     1     -34.113  28.833   2.983  0.00  0.00    +0.247 C 
ATOM     10  H   UNL     1     -36.121  28.582   2.914  0.00  0.00    +0.159 HD
ENDROOT
BRANCH   4  12
ATOM     11  O4* UNL     1     -34.310  23.982   3.692  0.00  0.00    -0.335 OA
ATOM     12  C1* UNL     1     -34.315  24.932   4.767  0.00  0.00    +0.200 C 
ATOM     13  C2* UNL     1     -35.548  24.655   5.611  0.00  0.00    +0.083 C 
ATOM     14  C3* UNL     1     -35.790  23.183   5.364  0.00  0.00    +0.144 C 
ATOM     15  C4* UNL     1     -35.337  22.998   3.923  0.00  0.00    +0.173 C 
BRANCH  14  16
ATOM     16  O3* UNL     1     -34.968  22.408   6.235  0.00  0.00    -0.382 OA
ATOM     17  H3* UNL     1     -35.474  21.651   6.567  0.00  0.00    +0.210 HD
ENDBRANCH  14  16
BRANCH  15  18
ATOM     18  C5* UNL     1     -36.453  23.240   2.914  0.00  0.00    +0.169 C 
BRANCH  18  19
ATOM     19  O5* UNL     1     -37.669  23.438   3.615  0.00  0.00    -0.379 OA
ATOM     20  H5* UNL     1     -38.012  22.581   3.915  0.00  0.00    +0.211 HD
ENDBRANCH  18  19
ENDBRANCH  15  18
ENDBRANCH   4  12
BRANCH   6  21
ATOM     21  O   UNL     1     -33.259  27.737   5.716  0.00  0.00    -0.333 OA
ATOM     22  C   UNL     1     -32.483  27.119   6.731  0.00  0.00    +0.176 C 
ENDBRANCH   6  21
BRANCH   7  23
ATOM     23  C   UNL     1     -31.710  29.040   3.686  0.00  0.00    +0.028 C 
ATOM     24  C   UNL     1     -30.370  28.332   3.706  0.00  0.00    +0.002 C 
ENDBRANCH   7  23
TORSDOF 6
ENDMDL
MODEL 9
REMARK VINA RESULT:      -4.8     10.350     12.654
REMARK  Name = 197660
REMARK  6 active torsions:
REMARK  status: ('A' for Active; 'I' for Inactive)
REMARK    1  A    between atoms: N_4  and  C1*_12
REMARK    2  A    between atoms: C_6  and  O_21
REMARK    3  A    between atoms: C_7  and  C_23
REMARK    4  A    between atoms: C3*_14  and  O3*_16
REMARK    5  A    between atoms: C4*_15  and  C5*_18
REMARK    6  A    between atoms: C5*_18  and  O5*_19
REMARK                            x       y       z     vdW  Elec       q    Type
REMARK                         _______ _______ _______ _____ _____    ______ ____
ROOT
ATOM      1 CL   UNL     1     -46.651  29.291   7.119  0.00  0.00    -0.103 Cl
ATOM      2  O   UNL     1     -42.542  29.430   5.046  0.00  0.00    -0.252 OA
ATOM      3  O   UNL     1     -44.378  30.852   8.999  0.00  0.00    -0.273 OA
ATOM      4  N   UNL     1     -44.625  30.463   4.933  0.00  0.00    -0.217 N 
ATOM      5  N   UNL     1     -43.466  30.255   6.975  0.00  0.00    -0.238 N 
ATOM      6  C   UNL     1     -45.605  31.310   5.605  0.00  0.00    +0.220 C 
ATOM      7  C   UNL     1     -45.833  30.897   7.063  0.00  0.00    +0.178 C 
ATOM      8  C   UNL     1     -43.480  30.012   5.596  0.00  0.00    +0.313 C 
ATOM      9  C   UNL     1     -44.507  30.697   7.786  0.00  0.00    +0.247 C 
ATOM     10  H   UNL     1     -42.608  30.091   7.430  0.00  0.00    +0.159 HD
ENDROOT
BRANCH   4  12
ATOM     11  O4* UNL     1     -43.845  31.112   2.825  0.00  0.00    -0.335 OA
ATOM     12  C1* UNL     1     -44.777  30.272   3.520  0.00  0.00    +0.200 C 
ATOM     13  C2* UNL     1     -46.168  30.630   3.023  0.00  0.00    +0.083 C 
ATOM     14  C3* UNL     1     -45.894  31.153   1.632  0.00  0.00    +0.144 C 
ATOM     15  C4* UNL     1     -44.535  31.822   1.778  0.00  0.00    +0.173 C 
BRANCH  14  16
ATOM     16  O3* UNL     1     -45.802  30.062   0.718  0.00  0.00    -0.382 OA
ATOM     17  H3* UNL     1     -44.874  29.801   0.619  0.00  0.00    +0.210 HD
ENDBRANCH  14  16
BRANCH  15  18
ATOM     18  C5* UNL     1     -44.635  33.285   2.191  0.00  0.00    +0.169 C 
BRANCH  18  19
ATOM     19  O5* UNL     1     -43.547  33.595   3.045  0.00  0.00    -0.379 OA
ATOM     20  H5* UNL     1     -43.644  33.112   3.880  0.00  0.00    +0.211 HD
ENDBRANCH  18  19
ENDBRANCH  15  18
ENDBRANCH   4  12
BRANCH   6  21
ATOM     21  O   UNL     1     -45.161  32.664   5.525  0.00  0.00    -0.333 OA
ATOM     22  C   UNL     1     -46.237  33.543   5.237  0.00  0.00    +0.176 C 
ENDBRANCH   6  21
BRANCH   7  23
ATOM     23  C   UNL     1     -46.711  31.902   7.813  0.00  0.00    +0.028 C 
ATOM     24  C   UNL     1     -47.861  31.209   8.516  0.00  0.00    +0.002 C 
ENDBRANCH   7  23
TORSDOF 6
ENDMDL
