MODEL 1
REMARK VINA RESULT:      -7.9      0.000      0.000
REMARK  Name = 21576272
REMARK  7 active torsions:
REMARK  status: ('A' for Active; 'I' for Inactive)
REMARK    1  A    between atoms: C_3  and  O_19
REMARK    2  A    between atoms: O_19  and  C_25
REMARK    3  A    between atoms: C_21  and  O_26
REMARK    4  A    between atoms: C_22  and  O_28
REMARK    5  A    between atoms: C_23  and  O_30
REMARK    6  A    between atoms: C_24  and  C_32
REMARK    7  A    between atoms: C_32  and  O_33
REMARK                            x       y       z     vdW  Elec       q    Type
REMARK                         _______ _______ _______ _____ _____    ______ ____
ROOT
ATOM      1  N   UNL     1     -34.427  24.825   2.826  0.00  0.00    -0.349 N 
ATOM      2  N   UNL     1     -33.376  26.131   5.921  0.00  0.00    -0.404 NA
ATOM      3  C   UNL     1     -35.430  22.561   3.283  0.00  0.00    +0.157 C 
ATOM      4  C   UNL     1     -34.812  23.770   3.624  0.00  0.00    +0.094 A 
ATOM      5  C   UNL     1     -34.473  24.098   4.939  0.00  0.00    +0.050 A 
ATOM      6  C   UNL     1     -33.870  25.387   4.902  0.00  0.00    +0.148 A 
ATOM      7  C   UNL     1     -33.853  25.815   3.582  0.00  0.00    +0.083 A 
ATOM      8  C   UNL     1     -35.709  21.662   4.317  0.00  0.00    +0.038 C 
ATOM      9  C   UNL     1     -34.764  23.176   5.964  0.00  0.00    +0.004 C 
ATOM     10  C   UNL     1     -35.382  21.963   5.637  0.00  0.00    +0.003 C 
ATOM     11  C   UNL     1     -33.319  27.052   3.236  0.00  0.00    +0.005 C 
ATOM     12  C   UNL     1     -32.807  27.828   4.282  0.00  0.00    +0.098 C 
ATOM     13  C   UNL     1     -32.858  27.325   5.603  0.00  0.00    +0.117 C 
ATOM     14  C   UNL     1     -32.247  29.091   4.027  0.00  0.00    -0.015 C 
ATOM     15  C   UNL     1     -32.341  28.119   6.620  0.00  0.00    +0.028 C 
ATOM     16  C   UNL     1     -31.737  29.862   5.066  0.00  0.00    -0.004 C 
ATOM     17  C   UNL     1     -31.785  29.375   6.365  0.00  0.00    +0.002 C 
ATOM     18  H   UNL     1     -34.546  24.862   1.849  0.00  0.00    +0.166 HD
ENDROOT
BRANCH   3  19
ATOM     19  O   UNL     1     -35.758  22.251   1.993  0.00  0.00    -0.449 OA
BRANCH  19  25
ATOM     20  O   UNL     1     -37.431  23.866   2.184  0.00  0.00    -0.316 OA
ATOM     21  C   UNL     1     -39.476  21.942   1.577  0.00  0.00    +0.173 C 
ATOM     22  C   UNL     1     -39.794  23.324   2.146  0.00  0.00    +0.169 C 
ATOM     23  C   UNL     1     -38.036  21.533   1.889  0.00  0.00    +0.210 C 
ATOM     24  C   UNL     1     -38.712  24.335   1.757  0.00  0.00    +0.177 C 
ATOM     25  C   UNL     1     -37.053  22.651   1.543  0.00  0.00    +0.318 C 
BRANCH  21  26
ATOM     26  O   UNL     1     -40.376  21.003   2.167  0.00  0.00    -0.379 OA
ATOM     27  H   UNL     1     -41.286  21.327   2.075  0.00  0.00    +0.211 HD
ENDBRANCH  21  26
BRANCH  22  28
ATOM     28  O   UNL     1     -41.052  23.765   1.642  0.00  0.00    -0.379 OA
ATOM     29  H   UNL     1     -41.637  23.989   2.384  0.00  0.00    +0.211 HD
ENDBRANCH  22  28
BRANCH  23  30
ATOM     30  O   UNL     1     -37.693  20.381   1.119  0.00  0.00    -0.377 OA
ATOM     31  H   UNL     1     -37.902  19.581   1.625  0.00  0.00    +0.211 HD
ENDBRANCH  23  30
BRANCH  24  32
ATOM     32  C   UNL     1     -38.947  25.693   2.411  0.00  0.00    +0.169 C 
BRANCH  32  33
ATOM     33  O   UNL     1     -39.575  25.487   3.664  0.00  0.00    -0.379 OA
ATOM     34  H   UNL     1     -39.265  24.652   4.047  0.00  0.00    +0.211 HD
ENDBRANCH  32  33
ENDBRANCH  24  32
ENDBRANCH  19  25
ENDBRANCH   3  19
TORSDOF 7
ENDMDL
MODEL 2
REMARK VINA RESULT:      -7.7      3.881      7.765
REMARK  Name = 21576272
REMARK  7 active torsions:
REMARK  status: ('A' for Active; 'I' for Inactive)
REMARK    1  A    between atoms: C_3  and  O_19
REMARK    2  A    between atoms: O_19  and  C_25
REMARK    3  A    between atoms: C_21  and  O_26
REMARK    4  A    between atoms: C_22  and  O_28
REMARK    5  A    between atoms: C_23  and  O_30
REMARK    6  A    between atoms: C_24  and  C_32
REMARK    7  A    between atoms: C_32  and  O_33
REMARK                            x       y       z     vdW  Elec       q    Type
REMARK                         _______ _______ _______ _____ _____    ______ ____
ROOT
ATOM      1  N   UNL     1     -36.139  20.996   2.276  0.00  0.00    -0.349 N 
ATOM      2  N   UNL     1     -35.584  18.685  -0.322  0.00  0.00    -0.404 NA
ATOM      3  C   UNL     1     -38.436  21.964   1.923  0.00  0.00    +0.157 C 
ATOM      4  C   UNL     1     -37.343  21.142   1.624  0.00  0.00    +0.094 A 
ATOM      5  C   UNL     1     -37.327  20.281   0.524  0.00  0.00    +0.050 A 
ATOM      6  C   UNL     1     -36.071  19.614   0.538  0.00  0.00    +0.148 A 
ATOM      7  C   UNL     1     -35.353  20.074   1.632  0.00  0.00    +0.083 A 
ATOM      8  C   UNL     1     -39.544  21.904   1.073  0.00  0.00    +0.038 C 
ATOM      9  C   UNL     1     -38.456  20.238  -0.319  0.00  0.00    +0.004 C 
ATOM     10  C   UNL     1     -39.556  21.055  -0.031  0.00  0.00    +0.003 C 
ATOM     11  C   UNL     1     -34.076  19.595   1.905  0.00  0.00    +0.005 C 
ATOM     12  C   UNL     1     -33.564  18.636   1.023  0.00  0.00    +0.098 C 
ATOM     13  C   UNL     1     -34.354  18.216  -0.072  0.00  0.00    +0.117 C 
ATOM     14  C   UNL     1     -32.283  18.096   1.220  0.00  0.00    -0.015 C 
ATOM     15  C   UNL     1     -33.819  17.261  -0.930  0.00  0.00    +0.028 C 
ATOM     16  C   UNL     1     -31.774  17.143   0.343  0.00  0.00    -0.004 C 
ATOM     17  C   UNL     1     -32.545  16.725  -0.733  0.00  0.00    +0.002 C 
ATOM     18  H   UNL     1     -35.878  21.486   3.089  0.00  0.00    +0.166 HD
ENDROOT
BRANCH   3  19
ATOM     19  O   UNL     1     -38.440  22.802   3.003  0.00  0.00    -0.449 OA
BRANCH  19  25
ATOM     20  O   UNL     1     -36.663  22.616   4.505  0.00  0.00    -0.316 OA
ATOM     21  C   UNL     1     -36.138  25.436   4.363  0.00  0.00    +0.173 C 
ATOM     22  C   UNL     1     -35.522  24.540   5.437  0.00  0.00    +0.169 C 
ATOM     23  C   UNL     1     -37.407  24.812   3.784  0.00  0.00    +0.210 C 
ATOM     24  C   UNL     1     -35.390  23.101   4.934  0.00  0.00    +0.177 C 
ATOM     25  C   UNL     1     -37.183  23.350   3.399  0.00  0.00    +0.318 C 
BRANCH  21  26
ATOM     26  O   UNL     1     -36.457  26.692   4.965  0.00  0.00    -0.379 OA
ATOM     27  H   UNL     1     -36.205  26.674   5.902  0.00  0.00    +0.211 HD
ENDBRANCH  21  26
BRANCH  22  28
ATOM     28  O   UNL     1     -34.231  25.038   5.784  0.00  0.00    -0.379 OA
ATOM     29  H   UNL     1     -33.803  25.403   4.993  0.00  0.00    +0.211 HD
ENDBRANCH  22  28
BRANCH  23  30
ATOM     30  O   UNL     1     -37.795  25.528   2.612  0.00  0.00    -0.377 OA
ATOM     31  H   UNL     1     -37.777  26.481   2.794  0.00  0.00    +0.211 HD
ENDBRANCH  23  30
BRANCH  24  32
ATOM     32  C   UNL     1     -34.886  22.165   6.028  0.00  0.00    +0.169 C 
BRANCH  32  33
ATOM     33  O   UNL     1     -35.265  20.840   5.697  0.00  0.00    -0.379 OA
ATOM     34  H   UNL     1     -35.380  20.768   4.737  0.00  0.00    +0.211 HD
ENDBRANCH  32  33
ENDBRANCH  24  32
ENDBRANCH  19  25
ENDBRANCH   3  19
TORSDOF 7
ENDMDL
MODEL 3
REMARK VINA RESULT:      -7.2      1.151      2.475
REMARK  Name = 21576272
REMARK  7 active torsions:
REMARK  status: ('A' for Active; 'I' for Inactive)
REMARK    1  A    between atoms: C_3  and  O_19
REMARK    2  A    between atoms: O_19  and  C_25
REMARK    3  A    between atoms: C_21  and  O_26
REMARK    4  A    between atoms: C_22  and  O_28
REMARK    5  A    between atoms: C_23  and  O_30
REMARK    6  A    between atoms: C_24  and  C_32
REMARK    7  A    between atoms: C_32  and  O_33
REMARK                            x       y       z     vdW  Elec       q    Type
REMARK                         _______ _______ _______ _____ _____    ______ ____
ROOT
ATOM      1  N   UNL     1     -34.728  25.788   3.081  0.00  0.00    -0.349 N 
ATOM      2  N   UNL     1     -33.089  26.625   6.082  0.00  0.00    -0.404 NA
ATOM      3  C   UNL     1     -35.780  23.526   3.423  0.00  0.00    +0.157 C 
ATOM      4  C   UNL     1     -35.038  24.653   3.797  0.00  0.00    +0.094 A 
ATOM      5  C   UNL     1     -34.462  24.788   5.062  0.00  0.00    +0.050 A 
ATOM      6  C   UNL     1     -33.794  26.045   5.081  0.00  0.00    +0.148 A 
ATOM      7  C   UNL     1     -33.973  26.644   3.842  0.00  0.00    +0.083 A 
ATOM      8  C   UNL     1     -35.938  22.510   4.369  0.00  0.00    +0.038 C 
ATOM      9  C   UNL     1     -34.634  23.750   6.000  0.00  0.00    +0.004 C 
ATOM     10  C   UNL     1     -35.374  22.618   5.638  0.00  0.00    +0.003 C 
ATOM     11  C   UNL     1     -33.427  27.892   3.564  0.00  0.00    +0.005 C 
ATOM     12  C   UNL     1     -32.697  28.500   4.593  0.00  0.00    +0.098 C 
ATOM     13  C   UNL     1     -32.556  27.828   5.829  0.00  0.00    +0.117 C 
ATOM     14  C   UNL     1     -32.110  29.762   4.402  0.00  0.00    -0.015 C 
ATOM     15  C   UNL     1     -31.826  28.458   6.830  0.00  0.00    +0.028 C 
ATOM     16  C   UNL     1     -31.384  30.366   5.423  0.00  0.00    -0.004 C 
ATOM     17  C   UNL     1     -31.242  29.712   6.640  0.00  0.00    +0.002 C 
ATOM     18  H   UNL     1     -35.007  25.959   2.153  0.00  0.00    +0.166 HD
ENDROOT
BRANCH   3  19
ATOM     19  O   UNL     1     -36.341  23.405   2.182  0.00  0.00    -0.449 OA
BRANCH  19  25
ATOM     20  O   UNL     1     -37.480  21.826   0.895  0.00  0.00    -0.316 OA
ATOM     21  C   UNL     1     -40.026  22.801   1.800  0.00  0.00    +0.173 C 
ATOM     22  C   UNL     1     -39.887  21.848   0.613  0.00  0.00    +0.169 C 
ATOM     23  C   UNL     1     -38.724  23.559   2.055  0.00  0.00    +0.210 C 
ATOM     24  C   UNL     1     -38.628  20.989   0.750  0.00  0.00    +0.177 C 
ATOM     25  C   UNL     1     -37.524  22.613   2.083  0.00  0.00    +0.318 C 
BRANCH  21  26
ATOM     26  O   UNL     1     -41.067  23.731   1.500  0.00  0.00    -0.379 OA
ATOM     27  H   UNL     1     -41.828  23.255   1.131  0.00  0.00    +0.211 HD
ENDBRANCH  21  26
BRANCH  22  28
ATOM     28  O   UNL     1     -41.031  21.000   0.552  0.00  0.00    -0.379 OA
ATOM     29  H   UNL     1     -41.818  21.498   0.826  0.00  0.00    +0.211 HD
ENDBRANCH  22  28
BRANCH  23  30
ATOM     30  O   UNL     1     -38.800  24.222   3.317  0.00  0.00    -0.377 OA
ATOM     31  H   UNL     1     -37.905  24.418   3.634  0.00  0.00    +0.211 HD
ENDBRANCH  23  30
BRANCH  24  32
ATOM     32  C   UNL     1     -38.406  20.113  -0.479  0.00  0.00    +0.169 C 
BRANCH  32  33
ATOM     33  O   UNL     1     -39.239  18.971  -0.375  0.00  0.00    -0.379 OA
ATOM     34  H   UNL     1     -39.258  18.669   0.547  0.00  0.00    +0.211 HD
ENDBRANCH  32  33
ENDBRANCH  24  32
ENDBRANCH  19  25
ENDBRANCH   3  19
TORSDOF 7
ENDMDL
MODEL 4
REMARK VINA RESULT:      -7.2      2.165      3.885
REMARK  Name = 21576272
REMARK  7 active torsions:
REMARK  status: ('A' for Active; 'I' for Inactive)
REMARK    1  A    between atoms: C_3  and  O_19
REMARK    2  A    between atoms: O_19  and  C_25
REMARK    3  A    between atoms: C_21  and  O_26
REMARK    4  A    between atoms: C_22  and  O_28
REMARK    5  A    between atoms: C_23  and  O_30
REMARK    6  A    between atoms: C_24  and  C_32
REMARK    7  A    between atoms: C_32  and  O_33
REMARK                            x       y       z     vdW  Elec       q    Type
REMARK                         _______ _______ _______ _____ _____    ______ ____
ROOT
ATOM      1  N   UNL     1     -34.249  25.051   2.976  0.00  0.00    -0.349 N 
ATOM      2  N   UNL     1     -33.246  26.667   5.939  0.00  0.00    -0.404 NA
ATOM      3  C   UNL     1     -35.417  22.927   3.655  0.00  0.00    +0.157 C 
ATOM      4  C   UNL     1     -34.735  24.129   3.877  0.00  0.00    +0.094 A 
ATOM      5  C   UNL     1     -34.431  24.597   5.157  0.00  0.00    +0.050 A 
ATOM      6  C   UNL     1     -33.744  25.833   4.994  0.00  0.00    +0.148 A 
ATOM      7  C   UNL     1     -33.644  26.091   3.634  0.00  0.00    +0.083 A 
ATOM      8  C   UNL     1     -35.798  22.182   4.775  0.00  0.00    +0.038 C 
ATOM      9  C   UNL     1     -34.826  23.828   6.271  0.00  0.00    +0.004 C 
ATOM     10  C   UNL     1     -35.508  22.624   6.063  0.00  0.00    +0.003 C 
ATOM     11  C   UNL     1     -33.015  27.241   3.168  0.00  0.00    +0.005 C 
ATOM     12  C   UNL     1     -32.497  28.109   4.137  0.00  0.00    +0.098 C 
ATOM     13  C   UNL     1     -32.637  27.778   5.504  0.00  0.00    +0.117 C 
ATOM     14  C   UNL     1     -31.845  29.294   3.758  0.00  0.00    -0.015 C 
ATOM     15  C   UNL     1     -32.112  28.660   6.442  0.00  0.00    +0.028 C 
ATOM     16  C   UNL     1     -31.330  30.157   4.720  0.00  0.00    -0.004 C 
ATOM     17  C   UNL     1     -31.464  29.839   6.065  0.00  0.00    +0.002 C 
ATOM     18  H   UNL     1     -34.324  24.973   1.998  0.00  0.00    +0.166 HD
ENDROOT
BRANCH   3  19
ATOM     19  O   UNL     1     -35.710  22.479   2.397  0.00  0.00    -0.449 OA
BRANCH  19  25
ATOM     20  O   UNL     1     -34.308  20.807   1.569  0.00  0.00    -0.316 OA
ATOM     21  C   UNL     1     -36.551  19.182   0.811  0.00  0.00    +0.173 C 
ATOM     22  C   UNL     1     -35.130  18.895   0.328  0.00  0.00    +0.169 C 
ATOM     23  C   UNL     1     -36.707  20.643   1.233  0.00  0.00    +0.210 C 
ATOM     24  C   UNL     1     -34.099  19.414   1.332  0.00  0.00    +0.177 C 
ATOM     25  C   UNL     1     -35.575  21.077   2.164  0.00  0.00    +0.318 C 
BRANCH  21  26
ATOM     26  O   UNL     1     -37.449  18.900  -0.264  0.00  0.00    -0.379 OA
ATOM     27  H   UNL     1     -36.952  18.526  -1.009  0.00  0.00    +0.211 HD
ENDBRANCH  21  26
BRANCH  22  28
ATOM     28  O   UNL     1     -34.962  17.489   0.165  0.00  0.00    -0.379 OA
ATOM     29  H   UNL     1     -35.308  17.220  -0.701  0.00  0.00    +0.211 HD
ENDBRANCH  22  28
BRANCH  23  30
ATOM     30  O   UNL     1     -37.943  20.807   1.927  0.00  0.00    -0.377 OA
ATOM     31  H   UNL     1     -37.928  21.641   2.422  0.00  0.00    +0.211 HD
ENDBRANCH  23  30
BRANCH  24  32
ATOM     32  C   UNL     1     -32.673  19.243   0.818  0.00  0.00    +0.169 C 
BRANCH  32  33
ATOM     33  O   UNL     1     -32.122  18.073   1.397  0.00  0.00    -0.379 OA
ATOM     34  H   UNL     1     -32.098  18.172   2.361  0.00  0.00    +0.211 HD
ENDBRANCH  32  33
ENDBRANCH  24  32
ENDBRANCH  19  25
ENDBRANCH   3  19
TORSDOF 7
ENDMDL
MODEL 5
REMARK VINA RESULT:      -6.7      2.418      4.925
REMARK  Name = 21576272
REMARK  7 active torsions:
REMARK  status: ('A' for Active; 'I' for Inactive)
REMARK    1  A    between atoms: C_3  and  O_19
REMARK    2  A    between atoms: O_19  and  C_25
REMARK    3  A    between atoms: C_21  and  O_26
REMARK    4  A    between atoms: C_22  and  O_28
REMARK    5  A    between atoms: C_23  and  O_30
REMARK    6  A    between atoms: C_24  and  C_32
REMARK    7  A    between atoms: C_32  and  O_33
REMARK                            x       y       z     vdW  Elec       q    Type
REMARK                         _______ _______ _______ _____ _____    ______ ____
ROOT
ATOM      1  N   UNL     1     -33.335  27.449   4.945  0.00  0.00    -0.349 N 
ATOM      2  N   UNL     1     -30.921  29.765   3.850  0.00  0.00    -0.404 NA
ATOM      3  C   UNL     1     -34.998  27.178   3.074  0.00  0.00    +0.157 C 
ATOM      4  C   UNL     1     -33.857  27.699   3.695  0.00  0.00    +0.094 A 
ATOM      5  C   UNL     1     -33.017  28.626   3.072  0.00  0.00    +0.050 A 
ATOM      6  C   UNL     1     -31.974  28.924   3.992  0.00  0.00    +0.148 A 
ATOM      7  C   UNL     1     -32.194  28.183   5.145  0.00  0.00    +0.083 A 
ATOM      8  C   UNL     1     -35.289  27.617   1.779  0.00  0.00    +0.038 C 
ATOM      9  C   UNL     1     -33.332  29.054   1.766  0.00  0.00    +0.004 C 
ATOM     10  C   UNL     1     -34.470  28.540   1.133  0.00  0.00    +0.003 C 
ATOM     11  C   UNL     1     -31.327  28.269   6.229  0.00  0.00    +0.005 C 
ATOM     12  C   UNL     1     -30.236  29.136   6.091  0.00  0.00    +0.098 C 
ATOM     13  C   UNL     1     -30.078  29.860   4.887  0.00  0.00    +0.117 C 
ATOM     14  C   UNL     1     -29.309  29.287   7.136  0.00  0.00    -0.015 C 
ATOM     15  C   UNL     1     -28.984  30.712   4.781  0.00  0.00    +0.028 C 
ATOM     16  C   UNL     1     -28.225  30.148   6.999  0.00  0.00    -0.004 C 
ATOM     17  C   UNL     1     -28.062  30.861   5.820  0.00  0.00    +0.002 C 
ATOM     18  H   UNL     1     -33.728  26.831   5.603  0.00  0.00    +0.166 HD
ENDROOT
BRANCH   3  19
ATOM     19  O   UNL     1     -35.811  26.270   3.693  0.00  0.00    -0.449 OA
BRANCH  19  25
ATOM     20  O   UNL     1     -36.115  24.240   2.582  0.00  0.00    -0.316 OA
ATOM     21  C   UNL     1     -35.477  22.750   4.953  0.00  0.00    +0.173 C 
ATOM     22  C   UNL     1     -36.114  22.102   3.724  0.00  0.00    +0.169 C 
ATOM     23  C   UNL     1     -35.735  24.257   4.980  0.00  0.00    +0.210 C 
ATOM     24  C   UNL     1     -35.742  22.867   2.452  0.00  0.00    +0.177 C 
ATOM     25  C   UNL     1     -35.413  24.900   3.632  0.00  0.00    +0.318 C 
BRANCH  21  26
ATOM     26  O   UNL     1     -36.049  22.149   6.116  0.00  0.00    -0.379 OA
ATOM     27  H   UNL     1     -35.891  22.719   6.885  0.00  0.00    +0.211 HD
ENDBRANCH  21  26
BRANCH  22  28
ATOM     28  O   UNL     1     -35.661  20.755   3.613  0.00  0.00    -0.379 OA
ATOM     29  H   UNL     1     -35.566  20.523   2.675  0.00  0.00    +0.211 HD
ENDBRANCH  22  28
BRANCH  23  30
ATOM     30  O   UNL     1     -34.907  24.862   5.974  0.00  0.00    -0.377 OA
ATOM     31  H   UNL     1     -35.383  24.889   6.818  0.00  0.00    +0.211 HD
ENDBRANCH  23  30
BRANCH  24  32
ATOM     32  C   UNL     1     -36.460  22.309   1.227  0.00  0.00    +0.169 C 
BRANCH  32  33
ATOM     33  O   UNL     1     -35.763  21.158   0.783  0.00  0.00    -0.379 OA
ATOM     34  H   UNL     1     -35.099  20.907   1.444  0.00  0.00    +0.211 HD
ENDBRANCH  32  33
ENDBRANCH  24  32
ENDBRANCH  19  25
ENDBRANCH   3  19
TORSDOF 7
ENDMDL
MODEL 6
REMARK VINA RESULT:      -6.7      1.950      3.575
REMARK  Name = 21576272
REMARK  7 active torsions:
REMARK  status: ('A' for Active; 'I' for Inactive)
REMARK    1  A    between atoms: C_3  and  O_19
REMARK    2  A    between atoms: O_19  and  C_25
REMARK    3  A    between atoms: C_21  and  O_26
REMARK    4  A    between atoms: C_22  and  O_28
REMARK    5  A    between atoms: C_23  and  O_30
REMARK    6  A    between atoms: C_24  and  C_32
REMARK    7  A    between atoms: C_32  and  O_33
REMARK                            x       y       z     vdW  Elec       q    Type
REMARK                         _______ _______ _______ _____ _____    ______ ____
ROOT
ATOM      1  N   UNL     1     -35.167  28.148   2.803  0.00  0.00    -0.349 N 
ATOM      2  N   UNL     1     -32.370  29.254   4.632  0.00  0.00    -0.404 NA
ATOM      3  C   UNL     1     -35.837  25.917   3.760  0.00  0.00    +0.157 C 
ATOM      4  C   UNL     1     -35.059  27.077   3.663  0.00  0.00    +0.094 A 
ATOM      5  C   UNL     1     -33.972  27.326   4.504  0.00  0.00    +0.050 A 
ATOM      6  C   UNL     1     -33.430  28.584   4.117  0.00  0.00    +0.148 A 
ATOM      7  C   UNL     1     -34.187  29.072   3.062  0.00  0.00    +0.083 A 
ATOM      8  C   UNL     1     -35.493  24.986   4.743  0.00  0.00    +0.038 C 
ATOM      9  C   UNL     1     -33.644  26.372   5.488  0.00  0.00    +0.004 C 
ATOM     10  C   UNL     1     -34.414  25.208   5.595  0.00  0.00    +0.003 C 
ATOM     11  C   UNL     1     -33.890  30.295   2.472  0.00  0.00    +0.005 C 
ATOM     12  C   UNL     1     -32.797  30.996   2.997  0.00  0.00    +0.098 C 
ATOM     13  C   UNL     1     -32.071  30.435   4.073  0.00  0.00    +0.117 C 
ATOM     14  C   UNL     1     -32.423  32.240   2.463  0.00  0.00    -0.015 C 
ATOM     15  C   UNL     1     -30.991  31.154   4.572  0.00  0.00    +0.028 C 
ATOM     16  C   UNL     1     -31.337  32.936   2.984  0.00  0.00    -0.004 C 
ATOM     17  C   UNL     1     -30.620  32.391   4.041  0.00  0.00    +0.002 C 
ATOM     18  H   UNL     1     -35.851  28.236   2.100  0.00  0.00    +0.166 HD
ENDROOT
BRANCH   3  19
ATOM     19  O   UNL     1     -36.900  25.685   2.932  0.00  0.00    -0.449 OA
BRANCH  19  25
ATOM     20  O   UNL     1     -36.849  23.403   2.444  0.00  0.00    -0.316 OA
ATOM     21  C   UNL     1     -39.717  23.247   2.468  0.00  0.00    +0.173 C 
ATOM     22  C   UNL     1     -38.840  22.127   1.911  0.00  0.00    +0.169 C 
ATOM     23  C   UNL     1     -38.972  24.582   2.474  0.00  0.00    +0.210 C 
ATOM     24  C   UNL     1     -37.468  22.124   2.589  0.00  0.00    +0.177 C 
ATOM     25  C   UNL     1     -37.582  24.440   3.092  0.00  0.00    +0.318 C 
BRANCH  21  26
ATOM     26  O   UNL     1     -40.876  23.353   1.640  0.00  0.00    -0.379 OA
ATOM     27  H   UNL     1     -40.884  24.221   1.205  0.00  0.00    +0.211 HD
ENDBRANCH  21  26
BRANCH  22  28
ATOM     28  O   UNL     1     -39.478  20.872   2.135  0.00  0.00    -0.379 OA
ATOM     29  H   UNL     1     -39.910  20.579   1.317  0.00  0.00    +0.211 HD
ENDBRANCH  22  28
BRANCH  23  30
ATOM     30  O   UNL     1     -39.708  25.533   3.242  0.00  0.00    -0.377 OA
ATOM     31  H   UNL     1     -40.646  25.491   2.997  0.00  0.00    +0.211 HD
ENDBRANCH  23  30
BRANCH  24  32
ATOM     32  C   UNL     1     -36.534  21.089   1.968  0.00  0.00    +0.169 C 
BRANCH  32  33
ATOM     33  O   UNL     1     -36.762  19.841   2.599  0.00  0.00    -0.379 OA
ATOM     34  H   UNL     1     -36.093  19.700   3.287  0.00  0.00    +0.211 HD
ENDBRANCH  32  33
ENDBRANCH  24  32
ENDBRANCH  19  25
ENDBRANCH   3  19
TORSDOF 7
ENDMDL
MODEL 7
REMARK VINA RESULT:      -6.7      1.309      1.738
REMARK  Name = 21576272
REMARK  7 active torsions:
REMARK  status: ('A' for Active; 'I' for Inactive)
REMARK    1  A    between atoms: C_3  and  O_19
REMARK    2  A    between atoms: O_19  and  C_25
REMARK    3  A    between atoms: C_21  and  O_26
REMARK    4  A    between atoms: C_22  and  O_28
REMARK    5  A    between atoms: C_23  and  O_30
REMARK    6  A    between atoms: C_24  and  C_32
REMARK    7  A    between atoms: C_32  and  O_33
REMARK                            x       y       z     vdW  Elec       q    Type
REMARK                         _______ _______ _______ _____ _____    ______ ____
ROOT
ATOM      1  N   UNL     1     -34.766  25.372   1.916  0.00  0.00    -0.349 N 
ATOM      2  N   UNL     1     -33.616  27.779   4.213  0.00  0.00    -0.404 NA
ATOM      3  C   UNL     1     -35.392  23.327   3.243  0.00  0.00    +0.157 C 
ATOM      4  C   UNL     1     -34.920  24.633   3.068  0.00  0.00    +0.094 A 
ATOM      5  C   UNL     1     -34.505  25.434   4.135  0.00  0.00    +0.050 A 
ATOM      6  C   UNL     1     -34.096  26.680   3.583  0.00  0.00    +0.148 A 
ATOM      7  C   UNL     1     -34.266  26.616   2.207  0.00  0.00    +0.083 A 
ATOM      8  C   UNL     1     -35.441  22.825   4.547  0.00  0.00    +0.038 C 
ATOM      9  C   UNL     1     -34.564  24.906   5.440  0.00  0.00    +0.004 C 
ATOM     10  C   UNL     1     -35.034  23.601   5.630  0.00  0.00    +0.003 C 
ATOM     11  C   UNL     1     -33.947  27.699   1.395  0.00  0.00    +0.005 C 
ATOM     12  C   UNL     1     -33.450  28.839   2.037  0.00  0.00    +0.098 C 
ATOM     13  C   UNL     1     -33.303  28.830   3.443  0.00  0.00    +0.117 C 
ATOM     14  C   UNL     1     -33.101  29.980   1.296  0.00  0.00    -0.015 C 
ATOM     15  C   UNL     1     -32.807  29.978   4.051  0.00  0.00    +0.028 C 
ATOM     16  C   UNL     1     -32.607  31.114   1.934  0.00  0.00    -0.004 C 
ATOM     17  C   UNL     1     -32.460  31.112   3.314  0.00  0.00    +0.002 C 
ATOM     18  H   UNL     1     -34.982  25.052   1.010  0.00  0.00    +0.166 HD
ENDROOT
BRANCH   3  19
ATOM     19  O   UNL     1     -35.796  22.553   2.191  0.00  0.00    -0.449 OA
BRANCH  19  25
ATOM     20  O   UNL     1     -37.572  24.066   2.161  0.00  0.00    -0.316 OA
ATOM     21  C   UNL     1     -39.460  21.970   1.619  0.00  0.00    +0.173 C 
ATOM     22  C   UNL     1     -39.892  23.371   2.052  0.00  0.00    +0.169 C 
ATOM     23  C   UNL     1     -38.018  21.682   2.036  0.00  0.00    +0.210 C 
ATOM     24  C   UNL     1     -38.853  24.414   1.633  0.00  0.00    +0.177 C 
ATOM     25  C   UNL     1     -37.086  22.829   1.645  0.00  0.00    +0.318 C 
BRANCH  21  26
ATOM     26  O   UNL     1     -40.333  21.027   2.242  0.00  0.00    -0.379 OA
ATOM     27  H   UNL     1     -40.973  21.498   2.798  0.00  0.00    +0.211 HD
ENDBRANCH  21  26
BRANCH  22  28
ATOM     28  O   UNL     1     -41.145  23.686   1.450  0.00  0.00    -0.379 OA
ATOM     29  H   UNL     1     -41.209  24.646   1.321  0.00  0.00    +0.211 HD
ENDBRANCH  22  28
BRANCH  23  30
ATOM     30  O   UNL     1     -37.563  20.496   1.385  0.00  0.00    -0.377 OA
ATOM     31  H   UNL     1     -36.712  20.226   1.763  0.00  0.00    +0.211 HD
ENDBRANCH  23  30
BRANCH  24  32
ATOM     32  C   UNL     1     -39.205  25.803   2.156  0.00  0.00    +0.169 C 
BRANCH  32  33
ATOM     33  O   UNL     1     -39.883  25.660   3.392  0.00  0.00    -0.379 OA
ATOM     34  H   UNL     1     -39.643  24.812   3.796  0.00  0.00    +0.211 HD
ENDBRANCH  32  33
ENDBRANCH  24  32
ENDBRANCH  19  25
ENDBRANCH   3  19
TORSDOF 7
ENDMDL
MODEL 8
REMARK VINA RESULT:      -6.6      4.245      7.285
REMARK  Name = 21576272
REMARK  7 active torsions:
REMARK  status: ('A' for Active; 'I' for Inactive)
REMARK    1  A    between atoms: C_3  and  O_19
REMARK    2  A    between atoms: O_19  and  C_25
REMARK    3  A    between atoms: C_21  and  O_26
REMARK    4  A    between atoms: C_22  and  O_28
REMARK    5  A    between atoms: C_23  and  O_30
REMARK    6  A    between atoms: C_24  and  C_32
REMARK    7  A    between atoms: C_32  and  O_33
REMARK                            x       y       z     vdW  Elec       q    Type
REMARK                         _______ _______ _______ _____ _____    ______ ____
ROOT
ATOM      1  N   UNL     1     -39.205  26.246   3.144  0.00  0.00    -0.349 N 
ATOM      2  N   UNL     1     -37.766  23.037   2.978  0.00  0.00    -0.404 NA
ATOM      3  C   UNL     1     -41.152  26.264   1.548  0.00  0.00    +0.157 C 
ATOM      4  C   UNL     1     -40.057  25.698   2.211  0.00  0.00    +0.094 A 
ATOM      5  C   UNL     1     -39.646  24.380   1.996  0.00  0.00    +0.050 A 
ATOM      6  C   UNL     1     -38.516  24.157   2.832  0.00  0.00    +0.148 A 
ATOM      7  C   UNL     1     -38.263  25.328   3.532  0.00  0.00    +0.083 A 
ATOM      8  C   UNL     1     -41.846  25.461   0.639  0.00  0.00    +0.038 C 
ATOM      9  C   UNL     1     -40.361  23.589   1.074  0.00  0.00    +0.004 C 
ATOM     10  C   UNL     1     -41.458  24.144   0.404  0.00  0.00    +0.003 C 
ATOM     11  C   UNL     1     -37.208  25.409   4.436  0.00  0.00    +0.005 C 
ATOM     12  C   UNL     1     -36.428  24.257   4.593  0.00  0.00    +0.098 C 
ATOM     13  C   UNL     1     -36.746  23.101   3.844  0.00  0.00    +0.117 C 
ATOM     14  C   UNL     1     -35.342  24.247   5.484  0.00  0.00    -0.015 C 
ATOM     15  C   UNL     1     -35.953  21.973   4.023  0.00  0.00    +0.028 C 
ATOM     16  C   UNL     1     -34.566  23.103   5.640  0.00  0.00    -0.004 C 
ATOM     17  C   UNL     1     -34.873  21.964   4.909  0.00  0.00    +0.002 C 
ATOM     18  H   UNL     1     -39.263  27.168   3.484  0.00  0.00    +0.166 HD
ENDROOT
BRANCH   3  19
ATOM     19  O   UNL     1     -41.546  27.555   1.768  0.00  0.00    -0.449 OA
BRANCH  19  25
ATOM     20  O   UNL     1     -43.699  28.450   1.872  0.00  0.00    -0.316 OA
ATOM     21  C   UNL     1     -43.456  28.927   4.694  0.00  0.00    +0.173 C 
ATOM     22  C   UNL     1     -44.579  29.533   3.853  0.00  0.00    +0.169 C 
ATOM     23  C   UNL     1     -42.258  28.547   3.824  0.00  0.00    +0.210 C 
ATOM     24  C   UNL     1     -44.886  28.652   2.640  0.00  0.00    +0.177 C 
ATOM     25  C   UNL     1     -42.693  27.747   2.597  0.00  0.00    +0.318 C 
BRANCH  21  26
ATOM     26  O   UNL     1     -43.054  29.899   5.660  0.00  0.00    -0.379 OA
ATOM     27  H   UNL     1     -42.197  29.643   6.038  0.00  0.00    +0.211 HD
ENDBRANCH  21  26
BRANCH  22  28
ATOM     28  O   UNL     1     -45.753  29.658   4.653  0.00  0.00    -0.379 OA
ATOM     29  H   UNL     1     -45.556  30.201   5.433  0.00  0.00    +0.211 HD
ENDBRANCH  22  28
BRANCH  23  30
ATOM     30  O   UNL     1     -41.355  27.744   4.585  0.00  0.00    -0.377 OA
ATOM     31  H   UNL     1     -41.831  26.982   4.950  0.00  0.00    +0.211 HD
ENDBRANCH  23  30
BRANCH  24  32
ATOM     32  C   UNL     1     -45.923  29.295   1.724  0.00  0.00    +0.169 C 
BRANCH  32  33
ATOM     33  O   UNL     1     -47.214  28.972   2.209  0.00  0.00    -0.379 OA
ATOM     34  H   UNL     1     -47.877  29.509   1.745  0.00  0.00    +0.211 HD
ENDBRANCH  32  33
ENDBRANCH  24  32
ENDBRANCH  19  25
ENDBRANCH   3  19
TORSDOF 7
ENDMDL
MODEL 9
REMARK VINA RESULT:      -6.6      2.362      3.794
REMARK  Name = 21576272
REMARK  7 active torsions:
REMARK  status: ('A' for Active; 'I' for Inactive)
REMARK    1  A    between atoms: C_3  and  O_19
REMARK    2  A    between atoms: O_19  and  C_25
REMARK    3  A    between atoms: C_21  and  O_26
REMARK    4  A    between atoms: C_22  and  O_28
REMARK    5  A    between atoms: C_23  and  O_30
REMARK    6  A    between atoms: C_24  and  C_32
REMARK    7  A    between atoms: C_32  and  O_33
REMARK                            x       y       z     vdW  Elec       q    Type
REMARK                         _______ _______ _______ _____ _____    ______ ____
ROOT
ATOM      1  N   UNL     1     -36.422  26.860   2.418  0.00  0.00    -0.349 N 
ATOM      2  N   UNL     1     -33.851  28.797   3.845  0.00  0.00    -0.404 NA
ATOM      3  C   UNL     1     -36.519  24.700   3.707  0.00  0.00    +0.157 C 
ATOM      4  C   UNL     1     -36.029  25.973   3.396  0.00  0.00    +0.094 A 
ATOM      5  C   UNL     1     -34.982  26.570   4.102  0.00  0.00    +0.050 A 
ATOM      6  C   UNL     1     -34.759  27.846   3.513  0.00  0.00    +0.148 A 
ATOM      7  C   UNL     1     -35.662  28.001   2.471  0.00  0.00    +0.083 A 
ATOM      8  C   UNL     1     -35.921  24.017   4.770  0.00  0.00    +0.038 C 
ATOM      9  C   UNL     1     -34.395  25.862   5.170  0.00  0.00    +0.004 C 
ATOM     10  C   UNL     1     -34.876  24.587   5.492  0.00  0.00    +0.003 C 
ATOM     11  C   UNL     1     -35.681  29.161   1.705  0.00  0.00    +0.005 C 
ATOM     12  C   UNL     1     -34.747  30.149   2.040  0.00  0.00    +0.098 C 
ATOM     13  C   UNL     1     -33.857  29.920   3.115  0.00  0.00    +0.117 C 
ATOM     14  C   UNL     1     -34.693  31.354   1.321  0.00  0.00    -0.015 C 
ATOM     15  C   UNL     1     -32.941  30.920   3.424  0.00  0.00    +0.028 C 
ATOM     16  C   UNL     1     -33.765  32.336   1.654  0.00  0.00    -0.004 C 
ATOM     17  C   UNL     1     -32.888  32.118   2.708  0.00  0.00    +0.002 C 
ATOM     18  H   UNL     1     -37.144  26.696   1.770  0.00  0.00    +0.166 HD
ENDROOT
BRANCH   3  19
ATOM     19  O   UNL     1     -37.545  24.126   3.010  0.00  0.00    -0.449 OA
BRANCH  19  25
ATOM     20  O   UNL     1     -36.244  22.316   2.320  0.00  0.00    -0.316 OA
ATOM     21  C   UNL     1     -38.576  20.816   1.571  0.00  0.00    +0.173 C 
ATOM     22  C   UNL     1     -37.166  20.402   1.152  0.00  0.00    +0.169 C 
ATOM     23  C   UNL     1     -38.638  22.305   1.910  0.00  0.00    +0.210 C 
ATOM     24  C   UNL     1     -36.131  20.900   2.164  0.00  0.00    +0.177 C 
ATOM     25  C   UNL     1     -37.506  22.707   2.855  0.00  0.00    +0.318 C 
BRANCH  21  26
ATOM     26  O   UNL     1     -39.458  20.540   0.481  0.00  0.00    -0.379 OA
ATOM     27  H   UNL     1     -39.018  19.946  -0.148  0.00  0.00    +0.211 HD
ENDBRANCH  21  26
BRANCH  22  28
ATOM     28  O   UNL     1     -37.096  18.980   1.070  0.00  0.00    -0.379 OA
ATOM     29  H   UNL     1     -37.740  18.589   1.682  0.00  0.00    +0.211 HD
ENDBRANCH  22  28
BRANCH  23  30
ATOM     30  O   UNL     1     -39.880  22.594   2.551  0.00  0.00    -0.377 OA
ATOM     31  H   UNL     1     -39.739  23.262   3.240  0.00  0.00    +0.211 HD
ENDBRANCH  23  30
BRANCH  24  32
ATOM     32  C   UNL     1     -34.706  20.600   1.708  0.00  0.00    +0.169 C 
BRANCH  32  33
ATOM     33  O   UNL     1     -34.314  19.351   2.250  0.00  0.00    -0.379 OA
ATOM     34  H   UNL     1     -34.240  19.427   3.215  0.00  0.00    +0.211 HD
ENDBRANCH  32  33
ENDBRANCH  24  32
ENDBRANCH  19  25
ENDBRANCH   3  19
TORSDOF 7
ENDMDL
