MODEL 1
REMARK VINA RESULT:      -6.3      0.000      0.000
REMARK  Name = 21431938
REMARK  5 active torsions:
REMARK  status: ('A' for Active; 'I' for Inactive)
REMARK    1  A    between atoms: C_2  and  C_9
REMARK    2  A    between atoms: C_3  and  O_23
REMARK    3  A    between atoms: C_6  and  N_22
REMARK    4  A    between atoms: C_10  and  O_18
REMARK    5  A    between atoms: C_13  and  N_17
REMARK                            x       y       z     vdW  Elec       q    Type
REMARK                         _______ _______ _______ _____ _____    ______ ____
ROOT
ATOM      1 CL   UNL     1     -35.969  25.987   1.288  0.00  0.00    -0.082 Cl
ATOM      2  C   UNL     1     -36.025  24.388   3.513  0.00  0.00    +0.048 C 
ATOM      3  C   UNL     1     -35.646  24.073   4.818  0.00  0.00    +0.136 C 
ATOM      4  C   UNL     1     -35.534  25.543   2.903  0.00  0.00    +0.062 C 
ATOM      5  C   UNL     1     -34.776  24.912   5.514  0.00  0.00    +0.061 C 
ATOM      6  C   UNL     1     -34.285  26.067   4.904  0.00  0.00    +0.147 C 
ATOM      7  C   UNL     1     -34.663  26.382   3.599  0.00  0.00    +0.036 C 
ENDROOT
BRANCH   2   9
ATOM      8 CL   UNL     1     -34.753  22.204   1.768  0.00  0.00    -0.082 Cl
ATOM      9  C   UNL     1     -36.933  23.498   2.807  0.00  0.00    +0.048 C 
ATOM     10  C   UNL     1     -38.308  23.678   2.957  0.00  0.00    +0.136 C 
ATOM     11  C   UNL     1     -36.447  22.477   1.991  0.00  0.00    +0.062 C 
ATOM     12  C   UNL     1     -39.198  22.836   2.289  0.00  0.00    +0.061 C 
ATOM     13  C   UNL     1     -38.712  21.814   1.473  0.00  0.00    +0.147 C 
ATOM     14  C   UNL     1     -37.337  21.635   1.324  0.00  0.00    +0.036 C 
BRANCH  13  17
ATOM     15  O   UNL     1     -39.165  20.101  -0.003  0.00  0.00    -0.126 OA
ATOM     16  O   UNL     1     -40.849  21.083   1.008  0.00  0.00    -0.126 OA
ATOM     17  N   UNL     1     -39.619  20.959   0.793  0.00  0.00    +0.058 N 
ENDBRANCH  13  17
BRANCH  10  18
ATOM     18  O   UNL     1     -38.814  24.668   3.747  0.00  0.00    -0.505 OA
ATOM     19  H   UNL     1     -38.238  25.294   4.140  0.00  0.00    +0.292 HD
ENDBRANCH  10  18
ENDBRANCH   2   9
BRANCH   6  22
ATOM     20  O   UNL     1     -33.003  26.573   6.752  0.00  0.00    -0.126 OA
ATOM     21  O   UNL     1     -33.033  27.995   5.080  0.00  0.00    -0.126 OA
ATOM     22  N   UNL     1     -33.398  26.919   5.613  0.00  0.00    +0.058 N 
ENDBRANCH   6  22
BRANCH   3  23
ATOM     23  O   UNL     1     -36.108  22.950   5.440  0.00  0.00    -0.505 OA
ATOM     24  H   UNL     1     -36.060  22.879   6.374  0.00  0.00    +0.292 HD
ENDBRANCH   3  23
TORSDOF 5
ENDMDL
MODEL 2
REMARK VINA RESULT:      -6.3      0.038      6.875
REMARK  Name = 21431938
REMARK  5 active torsions:
REMARK  status: ('A' for Active; 'I' for Inactive)
REMARK    1  A    between atoms: C_2  and  C_9
REMARK    2  A    between atoms: C_3  and  O_23
REMARK    3  A    between atoms: C_6  and  N_22
REMARK    4  A    between atoms: C_10  and  O_18
REMARK    5  A    between atoms: C_13  and  N_17
REMARK                            x       y       z     vdW  Elec       q    Type
REMARK                         _______ _______ _______ _____ _____    ______ ____
ROOT
ATOM      1 CL   UNL     1     -34.737  22.197   1.822  0.00  0.00    -0.082 Cl
ATOM      2  C   UNL     1     -36.918  23.517   2.826  0.00  0.00    +0.048 C 
ATOM      3  C   UNL     1     -38.293  23.708   2.960  0.00  0.00    +0.136 C 
ATOM      4  C   UNL     1     -36.431  22.485   2.024  0.00  0.00    +0.062 C 
ATOM      5  C   UNL     1     -39.182  22.866   2.291  0.00  0.00    +0.061 C 
ATOM      6  C   UNL     1     -38.695  21.834   1.489  0.00  0.00    +0.147 C 
ATOM      7  C   UNL     1     -37.320  21.643   1.355  0.00  0.00    +0.036 C 
ENDROOT
BRANCH   2   9
ATOM      8 CL   UNL     1     -35.939  25.997   1.304  0.00  0.00    -0.082 Cl
ATOM      9  C   UNL     1     -36.010  24.406   3.533  0.00  0.00    +0.048 C 
ATOM     10  C   UNL     1     -35.639  24.094   4.841  0.00  0.00    +0.136 C 
ATOM     11  C   UNL     1     -35.513  25.557   2.922  0.00  0.00    +0.062 C 
ATOM     12  C   UNL     1     -34.770  24.933   5.539  0.00  0.00    +0.061 C 
ATOM     13  C   UNL     1     -34.272  26.084   4.927  0.00  0.00    +0.147 C 
ATOM     14  C   UNL     1     -34.643  26.396   3.620  0.00  0.00    +0.036 C 
BRANCH  13  17
ATOM     15  O   UNL     1     -32.996  27.998   5.093  0.00  0.00    -0.126 OA
ATOM     16  O   UNL     1     -33.017  26.605   6.791  0.00  0.00    -0.126 OA
ATOM     17  N   UNL     1     -33.386  26.936   5.638  0.00  0.00    +0.058 N 
ENDBRANCH  13  17
BRANCH  10  18
ATOM     18  O   UNL     1     -36.108  22.975   5.465  0.00  0.00    -0.505 OA
ATOM     19  H   UNL     1     -35.596  22.190   5.468  0.00  0.00    +0.292 HD
ENDBRANCH  10  18
ENDBRANCH   2   9
BRANCH   6  22
ATOM     20  O   UNL     1     -39.152  20.152  -0.021  0.00  0.00    -0.126 OA
ATOM     21  O   UNL     1     -40.829  21.077   1.051  0.00  0.00    -0.126 OA
ATOM     22  N   UNL     1     -39.602  20.980   0.807  0.00  0.00    +0.058 N 
ENDBRANCH   6  22
BRANCH   3  23
ATOM     23  O   UNL     1     -38.800  24.709   3.736  0.00  0.00    -0.505 OA
ATOM     24  H   UNL     1     -39.042  24.536   4.624  0.00  0.00    +0.292 HD
ENDBRANCH   3  23
TORSDOF 5
ENDMDL
MODEL 3
REMARK VINA RESULT:      -6.2      1.355      2.072
REMARK  Name = 21431938
REMARK  5 active torsions:
REMARK  status: ('A' for Active; 'I' for Inactive)
REMARK    1  A    between atoms: C_2  and  C_9
REMARK    2  A    between atoms: C_3  and  O_23
REMARK    3  A    between atoms: C_6  and  N_22
REMARK    4  A    between atoms: C_10  and  O_18
REMARK    5  A    between atoms: C_13  and  N_17
REMARK                            x       y       z     vdW  Elec       q    Type
REMARK                         _______ _______ _______ _____ _____    ______ ____
ROOT
ATOM      1 CL   UNL     1     -35.575  23.001   5.706  0.00  0.00    -0.082 Cl
ATOM      2  C   UNL     1     -35.728  24.823   3.666  0.00  0.00    +0.048 C 
ATOM      3  C   UNL     1     -35.367  26.021   3.049  0.00  0.00    +0.136 C 
ATOM      4  C   UNL     1     -35.169  24.474   4.895  0.00  0.00    +0.062 C 
ATOM      5  C   UNL     1     -34.447  26.871   3.663  0.00  0.00    +0.061 C 
ATOM      6  C   UNL     1     -33.888  26.522   4.892  0.00  0.00    +0.147 C 
ATOM      7  C   UNL     1     -34.248  25.324   5.508  0.00  0.00    +0.036 C 
ENDROOT
BRANCH   2   9
ATOM      8 CL   UNL     1     -34.597  22.711   1.744  0.00  0.00    -0.082 Cl
ATOM      9  C   UNL     1     -36.688  23.952   3.007  0.00  0.00    +0.048 C 
ATOM     10  C   UNL     1     -38.047  24.115   3.278  0.00  0.00    +0.136 C 
ATOM     11  C   UNL     1     -36.268  22.963   2.117  0.00  0.00    +0.062 C 
ATOM     12  C   UNL     1     -38.986  23.291   2.658  0.00  0.00    +0.061 C 
ATOM     13  C   UNL     1     -38.565  22.302   1.768  0.00  0.00    +0.147 C 
ATOM     14  C   UNL     1     -37.207  22.139   1.497  0.00  0.00    +0.036 C 
BRANCH  13  17
ATOM     15  O   UNL     1     -39.353  21.148  -0.067  0.00  0.00    -0.126 OA
ATOM     16  O   UNL     1     -40.510  21.063   1.798  0.00  0.00    -0.126 OA
ATOM     17  N   UNL     1     -39.522  21.464   1.136  0.00  0.00    +0.058 N 
ENDBRANCH  13  17
BRANCH  10  18
ATOM     18  O   UNL     1     -38.489  25.073   4.142  0.00  0.00    -0.505 OA
ATOM     19  H   UNL     1     -38.766  24.834   5.005  0.00  0.00    +0.292 HD
ENDBRANCH  10  18
ENDBRANCH   2   9
BRANCH   6  22
ATOM     20  O   UNL     1     -32.784  28.541   5.046  0.00  0.00    -0.126 OA
ATOM     21  O   UNL     1     -32.322  26.982   6.521  0.00  0.00    -0.126 OA
ATOM     22  N   UNL     1     -32.953  27.390   5.516  0.00  0.00    +0.058 N 
ENDBRANCH   6  22
BRANCH   3  23
ATOM     23  O   UNL     1     -35.898  26.390   1.848  0.00  0.00    -0.505 OA
ATOM     24  H   UNL     1     -35.335  26.550   1.116  0.00  0.00    +0.292 HD
ENDBRANCH   3  23
TORSDOF 5
ENDMDL
MODEL 4
REMARK VINA RESULT:      -6.1      1.304      6.867
REMARK  Name = 21431938
REMARK  5 active torsions:
REMARK  status: ('A' for Active; 'I' for Inactive)
REMARK    1  A    between atoms: C_2  and  C_9
REMARK    2  A    between atoms: C_3  and  O_23
REMARK    3  A    between atoms: C_6  and  N_22
REMARK    4  A    between atoms: C_10  and  O_18
REMARK    5  A    between atoms: C_13  and  N_17
REMARK                            x       y       z     vdW  Elec       q    Type
REMARK                         _______ _______ _______ _____ _____    ______ ____
ROOT
ATOM      1 CL   UNL     1     -34.515  22.723   1.517  0.00  0.00    -0.082 Cl
ATOM      2  C   UNL     1     -36.639  23.852   2.830  0.00  0.00    +0.048 C 
ATOM      3  C   UNL     1     -37.998  23.949   3.126  0.00  0.00    +0.136 C 
ATOM      4  C   UNL     1     -36.189  22.893   1.922  0.00  0.00    +0.062 C 
ATOM      5  C   UNL     1     -38.909  23.088   2.513  0.00  0.00    +0.061 C 
ATOM      6  C   UNL     1     -38.459  22.130   1.605  0.00  0.00    +0.147 C 
ATOM      7  C   UNL     1     -37.100  22.032   1.309  0.00  0.00    +0.036 C 
ENDROOT
BRANCH   2   9
ATOM      8 CL   UNL     1     -35.518  22.973   5.551  0.00  0.00    -0.082 Cl
ATOM      9  C   UNL     1     -35.708  24.759   3.482  0.00  0.00    +0.048 C 
ATOM     10  C   UNL     1     -35.377  25.958   2.850  0.00  0.00    +0.136 C 
ATOM     11  C   UNL     1     -35.148  24.445   4.720  0.00  0.00    +0.062 C 
ATOM     12  C   UNL     1     -34.485  26.843   3.456  0.00  0.00    +0.061 C 
ATOM     13  C   UNL     1     -33.925  26.529   4.695  0.00  0.00    +0.147 C 
ATOM     14  C   UNL     1     -34.256  25.330   5.327  0.00  0.00    +0.036 C 
BRANCH  13  17
ATOM     15  O   UNL     1     -32.895  28.587   4.839  0.00  0.00    -0.126 OA
ATOM     16  O   UNL     1     -32.369  27.049   6.315  0.00  0.00    -0.126 OA
ATOM     17  N   UNL     1     -33.019  27.432   5.312  0.00  0.00    +0.058 N 
ENDBRANCH  13  17
BRANCH  10  18
ATOM     18  O   UNL     1     -35.908  26.293   1.639  0.00  0.00    -0.505 OA
ATOM     19  H   UNL     1     -36.438  27.062   1.557  0.00  0.00    +0.292 HD
ENDBRANCH  10  18
ENDBRANCH   2   9
BRANCH   6  22
ATOM     20  O   UNL     1     -40.524  21.109   1.492  0.00  0.00    -0.126 OA
ATOM     21  O   UNL     1     -39.046  20.654  -0.067  0.00  0.00    -0.126 OA
ATOM     22  N   UNL     1     -39.388  21.256   0.980  0.00  0.00    +0.058 N 
ENDBRANCH   6  22
BRANCH   3  23
ATOM     23  O   UNL     1     -38.469  24.877   4.009  0.00  0.00    -0.505 OA
ATOM     24  H   UNL     1     -39.367  25.143   3.973  0.00  0.00    +0.292 HD
ENDBRANCH   3  23
TORSDOF 5
ENDMDL
MODEL 5
REMARK VINA RESULT:      -6.0      1.214      2.098
REMARK  Name = 21431938
REMARK  5 active torsions:
REMARK  status: ('A' for Active; 'I' for Inactive)
REMARK    1  A    between atoms: C_2  and  C_9
REMARK    2  A    between atoms: C_3  and  O_23
REMARK    3  A    between atoms: C_6  and  N_22
REMARK    4  A    between atoms: C_10  and  O_18
REMARK    5  A    between atoms: C_13  and  N_17
REMARK                            x       y       z     vdW  Elec       q    Type
REMARK                         _______ _______ _______ _____ _____    ______ ____
ROOT
ATOM      1 CL   UNL     1     -35.827  25.614   1.141  0.00  0.00    -0.082 Cl
ATOM      2  C   UNL     1     -36.085  24.093   3.405  0.00  0.00    +0.048 C 
ATOM      3  C   UNL     1     -35.788  23.796   4.735  0.00  0.00    +0.136 C 
ATOM      4  C   UNL     1     -35.495  25.195   2.787  0.00  0.00    +0.062 C 
ATOM      5  C   UNL     1     -34.899  24.602   5.447  0.00  0.00    +0.061 C 
ATOM      6  C   UNL     1     -34.309  25.704   4.829  0.00  0.00    +0.147 C 
ATOM      7  C   UNL     1     -34.606  26.001   3.499  0.00  0.00    +0.036 C 
ENDROOT
BRANCH   2   9
ATOM      8 CL   UNL     1     -39.044  24.914   3.448  0.00  0.00    -0.082 Cl
ATOM      9  C   UNL     1     -37.015  23.239   2.683  0.00  0.00    +0.048 C 
ATOM     10  C   UNL     1     -36.525  22.114   2.020  0.00  0.00    +0.136 C 
ATOM     11  C   UNL     1     -38.378  23.533   2.647  0.00  0.00    +0.062 C 
ATOM     12  C   UNL     1     -37.399  21.281   1.320  0.00  0.00    +0.061 C 
ATOM     13  C   UNL     1     -38.762  21.575   1.284  0.00  0.00    +0.147 C 
ATOM     14  C   UNL     1     -39.252  22.700   1.947  0.00  0.00    +0.036 C 
BRANCH  13  17
ATOM     15  O   UNL     1     -40.888  20.893   0.704  0.00  0.00    -0.126 OA
ATOM     16  O   UNL     1     -39.175  19.831  -0.168  0.00  0.00    -0.126 OA
ATOM     17  N   UNL     1     -39.651  20.725   0.573  0.00  0.00    +0.058 N 
ENDBRANCH  13  17
BRANCH  10  18
ATOM     18  O   UNL     1     -35.198  21.800   2.038  0.00  0.00    -0.505 OA
ATOM     19  H   UNL     1     -34.928  20.903   2.035  0.00  0.00    +0.292 HD
ENDBRANCH  10  18
ENDBRANCH   2   9
BRANCH   6  22
ATOM     20  O   UNL     1     -32.542  27.184   4.926  0.00  0.00    -0.126 OA
ATOM     21  O   UNL     1     -33.487  26.560   6.806  0.00  0.00    -0.126 OA
ATOM     22  N   UNL     1     -33.403  26.522   5.555  0.00  0.00    +0.058 N 
ENDBRANCH   6  22
BRANCH   3  23
ATOM     23  O   UNL     1     -36.347  22.724   5.367  0.00  0.00    -0.505 OA
ATOM     24  H   UNL     1     -35.978  22.408   6.168  0.00  0.00    +0.292 HD
ENDBRANCH   3  23
TORSDOF 5
ENDMDL
MODEL 6
REMARK VINA RESULT:      -5.9      1.111      6.836
REMARK  Name = 21431938
REMARK  5 active torsions:
REMARK  status: ('A' for Active; 'I' for Inactive)
REMARK    1  A    between atoms: C_2  and  C_9
REMARK    2  A    between atoms: C_3  and  O_23
REMARK    3  A    between atoms: C_6  and  N_22
REMARK    4  A    between atoms: C_10  and  O_18
REMARK    5  A    between atoms: C_13  and  N_17
REMARK                            x       y       z     vdW  Elec       q    Type
REMARK                         _______ _______ _______ _____ _____    ______ ____
ROOT
ATOM      1 CL   UNL     1     -38.865  25.378   3.358  0.00  0.00    -0.082 Cl
ATOM      2  C   UNL     1     -36.872  23.567   2.847  0.00  0.00    +0.048 C 
ATOM      3  C   UNL     1     -36.401  22.365   2.321  0.00  0.00    +0.136 C 
ATOM      4  C   UNL     1     -38.222  23.900   2.728  0.00  0.00    +0.062 C 
ATOM      5  C   UNL     1     -37.279  21.494   1.675  0.00  0.00    +0.061 C 
ATOM      6  C   UNL     1     -38.628  21.826   1.556  0.00  0.00    +0.147 C 
ATOM      7  C   UNL     1     -39.100  23.029   2.082  0.00  0.00    +0.036 C 
ENDROOT
BRANCH   2   9
ATOM      8 CL   UNL     1     -35.619  25.792   1.142  0.00  0.00    -0.082 Cl
ATOM      9  C   UNL     1     -35.939  24.460   3.515  0.00  0.00    +0.048 C 
ATOM     10  C   UNL     1     -35.667  24.265   4.869  0.00  0.00    +0.136 C 
ATOM     11  C   UNL     1     -35.320  25.500   2.821  0.00  0.00    +0.062 C 
ATOM     12  C   UNL     1     -34.775  25.109   5.530  0.00  0.00    +0.061 C 
ATOM     13  C   UNL     1     -34.155  26.149   4.836  0.00  0.00    +0.147 C 
ATOM     14  C   UNL     1     -34.427  26.344   3.482  0.00  0.00    +0.036 C 
BRANCH  13  17
ATOM     15  O   UNL     1     -32.914  28.089   4.966  0.00  0.00    -0.126 OA
ATOM     16  O   UNL     1     -32.800  26.661   6.630  0.00  0.00    -0.126 OA
ATOM     17  N   UNL     1     -33.246  27.007   5.509  0.00  0.00    +0.058 N 
ENDBRANCH  13  17
BRANCH  10  18
ATOM     18  O   UNL     1     -36.256  23.257   5.574  0.00  0.00    -0.505 OA
ATOM     19  H   UNL     1     -36.271  23.286   6.510  0.00  0.00    +0.292 HD
ENDBRANCH  10  18
ENDBRANCH   2   9
BRANCH   6  22
ATOM     20  O   UNL     1     -39.064  20.128   0.058  0.00  0.00    -0.126 OA
ATOM     21  O   UNL     1     -40.743  20.986   1.183  0.00  0.00    -0.126 OA
ATOM     22  N   UNL     1     -39.521  20.937   0.901  0.00  0.00    +0.058 N 
ENDBRANCH   6  22
BRANCH   3  23
ATOM     23  O   UNL     1     -35.087  22.011   2.423  0.00  0.00    -0.505 OA
ATOM     24  H   UNL     1     -34.645  21.633   1.688  0.00  0.00    +0.292 HD
ENDBRANCH   3  23
TORSDOF 5
ENDMDL
MODEL 7
REMARK VINA RESULT:      -5.8      1.193      2.159
REMARK  Name = 21431938
REMARK  5 active torsions:
REMARK  status: ('A' for Active; 'I' for Inactive)
REMARK    1  A    between atoms: C_2  and  C_9
REMARK    2  A    between atoms: C_3  and  O_23
REMARK    3  A    between atoms: C_6  and  N_22
REMARK    4  A    between atoms: C_10  and  O_18
REMARK    5  A    between atoms: C_13  and  N_17
REMARK                            x       y       z     vdW  Elec       q    Type
REMARK                         _______ _______ _______ _____ _____    ______ ____
ROOT
ATOM      1 CL   UNL     1     -34.220  23.720   1.109  0.00  0.00    -0.082 Cl
ATOM      2  C   UNL     1     -36.121  24.456   2.939  0.00  0.00    +0.048 C 
ATOM      3  C   UNL     1     -36.552  25.183   4.049  0.00  0.00    +0.136 C 
ATOM      4  C   UNL     1     -34.811  24.593   2.481  0.00  0.00    +0.062 C 
ATOM      5  C   UNL     1     -35.672  26.047   4.701  0.00  0.00    +0.061 C 
ATOM      6  C   UNL     1     -34.362  26.184   4.243  0.00  0.00    +0.147 C 
ATOM      7  C   UNL     1     -33.931  25.457   3.133  0.00  0.00    +0.036 C 
ENDROOT
BRANCH   2   9
ATOM      8 CL   UNL     1     -37.872  25.672   0.729  0.00  0.00    -0.082 Cl
ATOM      9  C   UNL     1     -37.056  23.562   2.275  0.00  0.00    +0.048 C 
ATOM     10  C   UNL     1     -37.109  22.225   2.667  0.00  0.00    +0.136 C 
ATOM     11  C   UNL     1     -37.893  24.025   1.259  0.00  0.00    +0.062 C 
ATOM     12  C   UNL     1     -37.998  21.349   2.043  0.00  0.00    +0.061 C 
ATOM     13  C   UNL     1     -38.834  21.812   1.027  0.00  0.00    +0.147 C 
ATOM     14  C   UNL     1     -38.782  23.150   0.635  0.00  0.00    +0.036 C 
BRANCH  13  17
ATOM     15  O   UNL     1     -40.971  21.153   0.466  0.00  0.00    -0.126 OA
ATOM     16  O   UNL     1     -39.284  19.926  -0.221  0.00  0.00    -0.126 OA
ATOM     17  N   UNL     1     -39.740  20.921   0.394  0.00  0.00    +0.058 N 
ENDBRANCH  13  17
BRANCH  10  18
ATOM     18  O   UNL     1     -36.305  21.743   3.658  0.00  0.00    -0.505 OA
ATOM     19  H   UNL     1     -35.652  22.294   4.042  0.00  0.00    +0.292 HD
ENDBRANCH  10  18
ENDBRANCH   2   9
BRANCH   6  22
ATOM     20  O   UNL     1     -33.270  28.206   4.435  0.00  0.00    -0.126 OA
ATOM     21  O   UNL     1     -32.897  26.669   5.956  0.00  0.00    -0.126 OA
ATOM     22  N   UNL     1     -33.467  27.062   4.910  0.00  0.00    +0.058 N 
ENDBRANCH   6  22
BRANCH   3  23
ATOM     23  O   UNL     1     -37.827  25.069   4.522  0.00  0.00    -0.505 OA
ATOM     24  H   UNL     1     -38.007  25.236   5.427  0.00  0.00    +0.292 HD
ENDBRANCH   3  23
TORSDOF 5
ENDMDL
MODEL 8
REMARK VINA RESULT:      -5.3      1.773      2.561
REMARK  Name = 21431938
REMARK  5 active torsions:
REMARK  status: ('A' for Active; 'I' for Inactive)
REMARK    1  A    between atoms: C_2  and  C_9
REMARK    2  A    between atoms: C_3  and  O_23
REMARK    3  A    between atoms: C_6  and  N_22
REMARK    4  A    between atoms: C_10  and  O_18
REMARK    5  A    between atoms: C_13  and  N_17
REMARK                            x       y       z     vdW  Elec       q    Type
REMARK                         _______ _______ _______ _____ _____    ______ ____
ROOT
ATOM      1 CL   UNL     1     -35.688  24.864   0.422  0.00  0.00    -0.082 Cl
ATOM      2  C   UNL     1     -36.032  23.469   2.756  0.00  0.00    +0.048 C 
ATOM      3  C   UNL     1     -35.905  23.321   4.137  0.00  0.00    +0.136 C 
ATOM      4  C   UNL     1     -35.557  24.623   2.131  0.00  0.00    +0.062 C 
ATOM      5  C   UNL     1     -35.303  24.327   4.894  0.00  0.00    +0.061 C 
ATOM      6  C   UNL     1     -34.828  25.480   4.269  0.00  0.00    +0.147 C 
ATOM      7  C   UNL     1     -34.955  25.628   2.888  0.00  0.00    +0.036 C 
ENDROOT
BRANCH   2   9
ATOM      8 CL   UNL     1     -39.091  23.565   2.512  0.00  0.00    -0.082 Cl
ATOM      9  C   UNL     1     -36.663  22.409   1.987  0.00  0.00    +0.048 C 
ATOM     10  C   UNL     1     -35.863  21.422   1.411  0.00  0.00    +0.136 C 
ATOM     11  C   UNL     1     -38.048  22.369   1.823  0.00  0.00    +0.062 C 
ATOM     12  C   UNL     1     -36.448  20.395   0.669  0.00  0.00    +0.061 C 
ATOM     13  C   UNL     1     -37.833  20.356   0.504  0.00  0.00    +0.147 C 
ATOM     14  C   UNL     1     -38.632  21.342   1.081  0.00  0.00    +0.036 C 
BRANCH  13  17
ATOM     15  O   UNL     1     -39.583  19.472  -0.710  0.00  0.00    -0.126 OA
ATOM     16  O   UNL     1     -37.779  18.251  -0.436  0.00  0.00    -0.126 OA
ATOM     17  N   UNL     1     -38.427  19.309  -0.250  0.00  0.00    +0.058 N 
ENDBRANCH  13  17
BRANCH  10  18
ATOM     18  O   UNL     1     -34.507  21.433   1.555  0.00  0.00    -0.505 OA
ATOM     19  H   UNL     1     -34.032  20.626   1.585  0.00  0.00    +0.292 HD
ENDBRANCH  10  18
ENDBRANCH   2   9
BRANCH   6  22
ATOM     20  O   UNL     1     -33.882  27.573   4.479  0.00  0.00    -0.126 OA
ATOM     21  O   UNL     1     -34.018  26.303   6.264  0.00  0.00    -0.126 OA
ATOM     22  N   UNL     1     -34.214  26.501   5.041  0.00  0.00    +0.058 N 
ENDBRANCH   6  22
BRANCH   3  23
ATOM     23  O   UNL     1     -36.358  22.204   4.777  0.00  0.00    -0.505 OA
ATOM     24  H   UNL     1     -35.781  21.717   5.332  0.00  0.00    +0.292 HD
ENDBRANCH   3  23
TORSDOF 5
ENDMDL
MODEL 9
REMARK VINA RESULT:      -5.1      1.976      6.926
REMARK  Name = 21431938
REMARK  5 active torsions:
REMARK  status: ('A' for Active; 'I' for Inactive)
REMARK    1  A    between atoms: C_2  and  C_9
REMARK    2  A    between atoms: C_3  and  O_23
REMARK    3  A    between atoms: C_6  and  N_22
REMARK    4  A    between atoms: C_10  and  O_18
REMARK    5  A    between atoms: C_13  and  N_17
REMARK                            x       y       z     vdW  Elec       q    Type
REMARK                         _______ _______ _______ _____ _____    ______ ____
ROOT
ATOM      1 CL   UNL     1     -38.950  25.707   0.192  0.00  0.00    -0.082 Cl
ATOM      2  C   UNL     1     -38.534  23.316   1.463  0.00  0.00    +0.048 C 
ATOM      3  C   UNL     1     -38.821  21.969   1.686  0.00  0.00    +0.136 C 
ATOM      4  C   UNL     1     -39.260  24.036   0.514  0.00  0.00    +0.062 C 
ATOM      5  C   UNL     1     -39.834  21.342   0.961  0.00  0.00    +0.061 C 
ATOM      6  C   UNL     1     -40.560  22.062   0.012  0.00  0.00    +0.147 C 
ATOM      7  C   UNL     1     -40.274  23.409  -0.211  0.00  0.00    +0.036 C 
ENDROOT
BRANCH   2   9
ATOM      8 CL   UNL     1     -35.684  23.081   0.344  0.00  0.00    -0.082 Cl
ATOM      9  C   UNL     1     -37.473  23.948   2.230  0.00  0.00    +0.048 C 
ATOM     10  C   UNL     1     -37.798  24.616   3.410  0.00  0.00    +0.136 C 
ATOM     11  C   UNL     1     -36.147  23.894   1.800  0.00  0.00    +0.062 C 
ATOM     12  C   UNL     1     -36.796  25.230   4.162  0.00  0.00    +0.061 C 
ATOM     13  C   UNL     1     -35.470  25.176   3.732  0.00  0.00    +0.147 C 
ATOM     14  C   UNL     1     -35.145  24.508   2.552  0.00  0.00    +0.036 C 
BRANCH  13  17
ATOM     15  O   UNL     1     -34.668  26.934   4.992  0.00  0.00    -0.126 OA
ATOM     16  O   UNL     1     -33.360  25.201   4.663  0.00  0.00    -0.126 OA
ATOM     17  N   UNL     1     -34.450  25.800   4.499  0.00  0.00    +0.058 N 
ENDBRANCH  13  17
BRANCH  10  18
ATOM     18  O   UNL     1     -39.084  24.686   3.857  0.00  0.00    -0.505 OA
ATOM     19  H   UNL     1     -39.618  23.915   3.874  0.00  0.00    +0.292 HD
ENDBRANCH  10  18
ENDBRANCH   2   9
BRANCH   6  22
ATOM     20  O   UNL     1     -42.197  20.452  -0.207  0.00  0.00    -0.126 OA
ATOM     21  O   UNL     1     -41.873  21.846  -1.871  0.00  0.00    -0.126 OA
ATOM     22  N   UNL     1     -41.593  21.423  -0.723  0.00  0.00    +0.058 N 
ENDBRANCH   6  22
BRANCH   3  23
ATOM     23  O   UNL     1     -38.129  21.238   2.608  0.00  0.00    -0.505 OA
ATOM     24  H   UNL     1     -38.510  20.463   2.971  0.00  0.00    +0.292 HD
ENDBRANCH   3  23
TORSDOF 5
ENDMDL
