MODEL 1
REMARK VINA RESULT:      -6.4      0.000      0.000
REMARK  Name = 5311100
REMARK  16 active torsions:
REMARK  status: ('A' for Active; 'I' for Inactive)
REMARK    1  A    between atoms: C_1  and  C_27
REMARK    2  A    between atoms: C_2  and  C_10
REMARK    3  A    between atoms: C_3  and  O_6
REMARK    4  A    between atoms: C_4  and  O_8
REMARK    5  A    between atoms: C_11  and  C_12
REMARK    6  A    between atoms: C_12  and  O_13
REMARK    7  A    between atoms: C_12  and  C_15
REMARK    8  A    between atoms: C_15  and  O_16
REMARK    9  A    between atoms: O_16  and  C_17
REMARK   10  A    between atoms: C_20  and  C_26
REMARK   11  A    between atoms: C_27  and  C_28
REMARK   12  A    between atoms: C_29  and  C_30
REMARK   13  A    between atoms: C_30  and  C_31
REMARK   14  A    between atoms: C_31  and  C_32
REMARK   15  A    between atoms: C_32  and  C_34
REMARK   16  A    between atoms: C_34  and  O_35
REMARK                            x       y       z     vdW  Elec       q    Type
REMARK                         _______ _______ _______ _____ _____    ______ ____
ROOT
ATOM      1  C   UNL     1     -38.149  21.399   0.564  0.00  0.00    +0.038 C 
ATOM      2  C   UNL     1     -39.521  21.476   1.253  0.00  0.00    +0.051 C 
ATOM      3  C   UNL     1     -38.407  20.405  -0.572  0.00  0.00    +0.114 C 
ATOM      4  C   UNL     1     -40.522  21.435   0.084  0.00  0.00    +0.117 C 
ATOM      5  C   UNL     1     -39.771  20.832  -1.114  0.00  0.00    +0.059 C 
ENDROOT
BRANCH   3   6
ATOM      6  O   UNL     1     -38.458  19.058  -0.117  0.00  0.00    -0.384 OA
ATOM      7  H   UNL     1     -37.647  18.853   0.377  0.00  0.00    +0.210 HD
ENDBRANCH   3   6
BRANCH   4   8
ATOM      8  O   UNL     1     -41.632  20.611   0.416  0.00  0.00    -0.384 OA
ATOM      9  H   UNL     1     -42.373  20.814  -0.177  0.00  0.00    +0.210 HD
ENDBRANCH   4   8
BRANCH   2  10
ATOM     10  C   UNL     1     -39.697  22.694   2.104  0.00  0.00    -0.026 C 
ATOM     11  C   UNL     1     -39.402  23.938   1.697  0.00  0.00    +0.002 C 
BRANCH  11  12
ATOM     12  C   UNL     1     -39.577  25.160   2.555  0.00  0.00    +0.176 C 
BRANCH  12  13
ATOM     13  O   UNL     1     -39.820  24.719   3.888  0.00  0.00    -0.376 OA
ATOM     14  H   UNL     1     -40.293  25.411   4.377  0.00  0.00    +0.211 HD
ENDBRANCH  12  13
BRANCH  12  15
ATOM     15  C   UNL     1     -38.332  26.041   2.540  0.00  0.00    +0.239 C 
BRANCH  15  16
ATOM     16  O   UNL     1     -37.171  25.236   2.403  0.00  0.00    -0.472 OA
BRANCH  16  17
ATOM     17  C   UNL     1     -36.438  25.007   3.540  0.00  0.00    +0.139 C 
ATOM     18  C   UNL     1     -36.245  23.703   3.995  0.00  0.00    +0.041 C 
ATOM     19  C   UNL     1     -35.886  26.079   4.242  0.00  0.00    +0.037 C 
ATOM     20  C   UNL     1     -35.502  23.470   5.151  0.00  0.00    +0.074 C 
ATOM     21  C   UNL     1     -35.142  25.847   5.398  0.00  0.00    +0.003 C 
ATOM     22  C   UNL     1     -34.949  24.542   5.853  0.00  0.00    +0.004 C 
BRANCH  20  26
ATOM     23  F   UNL     1     -35.470  21.126   4.670  0.00  0.00    -0.166 F 
ATOM     24  F   UNL     1     -34.044  21.849   6.136  0.00  0.00    -0.166 F 
ATOM     25  F   UNL     1     -36.157  21.737   6.641  0.00  0.00    -0.166 F 
ATOM     26  C   UNL     1     -35.296  22.075   5.638  0.00  0.00    +0.419 C 
ENDBRANCH  20  26
ENDBRANCH  16  17
ENDBRANCH  15  16
ENDBRANCH  12  15
ENDBRANCH  11  12
ENDBRANCH   2  10
BRANCH   1  27
ATOM     27  C   UNL     1     -37.024  20.975   1.500  0.00  0.00    +0.028 C 
BRANCH  27  28
ATOM     28  C   UNL     1     -35.688  21.634   1.297  0.00  0.00    -0.031 C 
ATOM     29  C   UNL     1     -34.477  21.071   1.432  0.00  0.00    -0.031 C 
BRANCH  29  30
ATOM     30  C   UNL     1     -34.266  19.637   1.824  0.00  0.00    +0.026 C 
BRANCH  30  31
ATOM     31  C   UNL     1     -33.615  18.788   0.723  0.00  0.00    +0.016 C 
BRANCH  31  32
ATOM     32  C   UNL     1     -34.506  18.569  -0.503  0.00  0.00    +0.110 C 
BRANCH  32  34
ATOM     33  O   UNL     1     -36.465  17.182  -0.913  0.00  0.00    -0.250 OA
ATOM     34  C   UNL     1     -35.352  17.316  -0.425  0.00  0.00    +0.314 C 
BRANCH  34  35
ATOM     35  O   UNL     1     -34.743  16.344   0.303  0.00  0.00    -0.480 OA
ATOM     36  H   UNL     1     -33.904  16.017   0.039  0.00  0.00    +0.295 HD
ENDBRANCH  34  35
ENDBRANCH  32  34
ENDBRANCH  31  32
ENDBRANCH  30  31
ENDBRANCH  29  30
ENDBRANCH  27  28
ENDBRANCH   1  27
TORSDOF 16
ENDMDL
MODEL 2
REMARK VINA RESULT:      -6.3      4.727      7.396
REMARK  Name = 5311100
REMARK  16 active torsions:
REMARK  status: ('A' for Active; 'I' for Inactive)
REMARK    1  A    between atoms: C_1  and  C_27
REMARK    2  A    between atoms: C_2  and  C_10
REMARK    3  A    between atoms: C_3  and  O_6
REMARK    4  A    between atoms: C_4  and  O_8
REMARK    5  A    between atoms: C_11  and  C_12
REMARK    6  A    between atoms: C_12  and  O_13
REMARK    7  A    between atoms: C_12  and  C_15
REMARK    8  A    between atoms: C_15  and  O_16
REMARK    9  A    between atoms: O_16  and  C_17
REMARK   10  A    between atoms: C_20  and  C_26
REMARK   11  A    between atoms: C_27  and  C_28
REMARK   12  A    between atoms: C_29  and  C_30
REMARK   13  A    between atoms: C_30  and  C_31
REMARK   14  A    between atoms: C_31  and  C_32
REMARK   15  A    between atoms: C_32  and  C_34
REMARK   16  A    between atoms: C_34  and  O_35
REMARK                            x       y       z     vdW  Elec       q    Type
REMARK                         _______ _______ _______ _____ _____    ______ ____
ROOT
ATOM      1  C   UNL     1     -36.720  22.235   1.999  0.00  0.00    +0.038 C 
ATOM      2  C   UNL     1     -38.095  22.437   2.657  0.00  0.00    +0.051 C 
ATOM      3  C   UNL     1     -36.846  20.830   1.402  0.00  0.00    +0.114 C 
ATOM      4  C   UNL     1     -39.077  21.790   1.664  0.00  0.00    +0.117 C 
ATOM      5  C   UNL     1     -38.250  20.826   0.798  0.00  0.00    +0.059 C 
ENDROOT
BRANCH   3   6
ATOM      6  O   UNL     1     -36.730  19.808   2.385  0.00  0.00    -0.384 OA
ATOM      7  H   UNL     1     -36.615  20.212   3.259  0.00  0.00    +0.210 HD
ENDBRANCH   3   6
BRANCH   4   8
ATOM      8  O   UNL     1     -40.076  21.062   2.366  0.00  0.00    -0.384 OA
ATOM      9  H   UNL     1     -40.708  20.687   1.732  0.00  0.00    +0.210 HD
ENDBRANCH   4   8
BRANCH   2  10
ATOM     10  C   UNL     1     -38.425  23.872   2.922  0.00  0.00    -0.026 C 
ATOM     11  C   UNL     1     -39.640  24.408   2.726  0.00  0.00    +0.002 C 
BRANCH  11  12
ATOM     12  C   UNL     1     -39.969  25.850   2.992  0.00  0.00    +0.176 C 
BRANCH  12  13
ATOM     13  O   UNL     1     -38.832  26.626   2.625  0.00  0.00    -0.376 OA
ATOM     14  H   UNL     1     -38.148  26.044   2.258  0.00  0.00    +0.211 HD
ENDBRANCH  12  13
BRANCH  12  15
ATOM     15  C   UNL     1     -41.172  26.312   2.175  0.00  0.00    +0.239 C 
BRANCH  15  16
ATOM     16  O   UNL     1     -41.577  27.605   2.597  0.00  0.00    -0.472 OA
BRANCH  16  17
ATOM     17  C   UNL     1     -42.675  27.674   3.417  0.00  0.00    +0.139 C 
ATOM     18  C   UNL     1     -42.793  28.714   4.339  0.00  0.00    +0.041 C 
ATOM     19  C   UNL     1     -43.674  26.704   3.328  0.00  0.00    +0.037 C 
ATOM     20  C   UNL     1     -43.909  28.784   5.172  0.00  0.00    +0.074 C 
ATOM     21  C   UNL     1     -44.790  26.774   4.161  0.00  0.00    +0.003 C 
ATOM     22  C   UNL     1     -44.908  27.814   5.083  0.00  0.00    +0.004 C 
BRANCH  20  26
ATOM     23  F   UNL     1     -42.948  30.722   6.194  0.00  0.00    -0.166 F 
ATOM     24  F   UNL     1     -45.100  30.717   5.924  0.00  0.00    -0.166 F 
ATOM     25  F   UNL     1     -44.194  29.445   7.438  0.00  0.00    -0.166 F 
ATOM     26  C   UNL     1     -44.035  29.895   6.159  0.00  0.00    +0.419 C 
ENDBRANCH  20  26
ENDBRANCH  16  17
ENDBRANCH  15  16
ENDBRANCH  12  15
ENDBRANCH  11  12
ENDBRANCH   2  10
BRANCH   1  27
ATOM     27  C   UNL     1     -35.556  22.381   2.970  0.00  0.00    +0.028 C 
BRANCH  27  28
ATOM     28  C   UNL     1     -35.882  22.303   4.436  0.00  0.00    -0.031 C 
ATOM     29  C   UNL     1     -35.343  23.030   5.427  0.00  0.00    -0.031 C 
BRANCH  29  30
ATOM     30  C   UNL     1     -34.287  24.075   5.211  0.00  0.00    +0.026 C 
BRANCH  30  31
ATOM     31  C   UNL     1     -34.681  25.465   5.730  0.00  0.00    +0.016 C 
BRANCH  31  32
ATOM     32  C   UNL     1     -35.917  26.057   5.046  0.00  0.00    +0.110 C 
BRANCH  32  34
ATOM     33  O   UNL     1     -35.781  26.013   2.616  0.00  0.00    -0.250 OA
ATOM     34  C   UNL     1     -35.640  26.619   3.669  0.00  0.00    +0.314 C 
BRANCH  34  35
ATOM     35  O   UNL     1     -35.164  27.890   3.732  0.00  0.00    -0.480 OA
ATOM     36  H   UNL     1     -35.078  28.317   4.562  0.00  0.00    +0.295 HD
ENDBRANCH  34  35
ENDBRANCH  32  34
ENDBRANCH  31  32
ENDBRANCH  30  31
ENDBRANCH  29  30
ENDBRANCH  27  28
ENDBRANCH   1  27
TORSDOF 16
ENDMDL
MODEL 3
REMARK VINA RESULT:      -6.2      4.657      7.314
REMARK  Name = 5311100
REMARK  16 active torsions:
REMARK  status: ('A' for Active; 'I' for Inactive)
REMARK    1  A    between atoms: C_1  and  C_27
REMARK    2  A    between atoms: C_2  and  C_10
REMARK    3  A    between atoms: C_3  and  O_6
REMARK    4  A    between atoms: C_4  and  O_8
REMARK    5  A    between atoms: C_11  and  C_12
REMARK    6  A    between atoms: C_12  and  O_13
REMARK    7  A    between atoms: C_12  and  C_15
REMARK    8  A    between atoms: C_15  and  O_16
REMARK    9  A    between atoms: O_16  and  C_17
REMARK   10  A    between atoms: C_20  and  C_26
REMARK   11  A    between atoms: C_27  and  C_28
REMARK   12  A    between atoms: C_29  and  C_30
REMARK   13  A    between atoms: C_30  and  C_31
REMARK   14  A    between atoms: C_31  and  C_32
REMARK   15  A    between atoms: C_32  and  C_34
REMARK   16  A    between atoms: C_34  and  O_35
REMARK                            x       y       z     vdW  Elec       q    Type
REMARK                         _______ _______ _______ _____ _____    ______ ____
ROOT
ATOM      1  C   UNL     1     -36.620  22.168   1.969  0.00  0.00    +0.038 C 
ATOM      2  C   UNL     1     -38.014  22.458   2.548  0.00  0.00    +0.051 C 
ATOM      3  C   UNL     1     -36.758  20.719   1.493  0.00  0.00    +0.114 C 
ATOM      4  C   UNL     1     -38.972  21.746   1.576  0.00  0.00    +0.117 C 
ATOM      5  C   UNL     1     -38.136  20.692   0.833  0.00  0.00    +0.059 C 
ENDROOT
BRANCH   3   6
ATOM      6  O   UNL     1     -36.707  19.786   2.566  0.00  0.00    -0.384 OA
ATOM      7  H   UNL     1     -36.136  20.133   3.269  0.00  0.00    +0.210 HD
ENDBRANCH   3   6
BRANCH   4   8
ATOM      8  O   UNL     1     -40.017  21.106   2.298  0.00  0.00    -0.384 OA
ATOM      9  H   UNL     1     -40.836  21.617   2.201  0.00  0.00    +0.210 HD
ENDBRANCH   4   8
BRANCH   2  10
ATOM     10  C   UNL     1     -38.318  23.918   2.672  0.00  0.00    -0.026 C 
ATOM     11  C   UNL     1     -39.541  24.407   2.931  0.00  0.00    +0.002 C 
BRANCH  11  12
ATOM     12  C   UNL     1     -39.845  25.874   3.054  0.00  0.00    +0.176 C 
BRANCH  12  13
ATOM     13  O   UNL     1     -38.976  26.569   2.164  0.00  0.00    -0.376 OA
ATOM     14  H   UNL     1     -38.822  26.029   1.374  0.00  0.00    +0.211 HD
ENDBRANCH  12  13
BRANCH  12  15
ATOM     15  C   UNL     1     -41.292  26.181   2.680  0.00  0.00    +0.239 C 
BRANCH  15  16
ATOM     16  O   UNL     1     -41.620  27.507   3.066  0.00  0.00    -0.472 OA
BRANCH  16  17
ATOM     17  C   UNL     1     -42.794  27.680   3.755  0.00  0.00    +0.139 C 
ATOM     18  C   UNL     1     -43.806  26.724   3.661  0.00  0.00    +0.041 C 
ATOM     19  C   UNL     1     -42.975  28.812   4.550  0.00  0.00    +0.037 C 
ATOM     20  C   UNL     1     -44.998  26.901   4.361  0.00  0.00    +0.074 C 
ATOM     21  C   UNL     1     -44.168  28.989   5.250  0.00  0.00    +0.003 C 
ATOM     22  C   UNL     1     -45.180  28.033   5.156  0.00  0.00    +0.004 C 
BRANCH  20  26
ATOM     23  F   UNL     1     -47.210  26.338   3.644  0.00  0.00    -0.166 F 
ATOM     24  F   UNL     1     -45.718  24.766   3.557  0.00  0.00    -0.166 F 
ATOM     25  F   UNL     1     -46.489  25.426   5.481  0.00  0.00    -0.166 F 
ATOM     26  C   UNL     1     -46.081  25.879   4.261  0.00  0.00    +0.419 C 
ENDBRANCH  20  26
ENDBRANCH  16  17
ENDBRANCH  15  16
ENDBRANCH  12  15
ENDBRANCH  11  12
ENDBRANCH   2  10
BRANCH   1  27
ATOM     27  C   UNL     1     -35.492  22.375   2.971  0.00  0.00    +0.028 C 
BRANCH  27  28
ATOM     28  C   UNL     1     -35.835  22.196   4.424  0.00  0.00    -0.031 C 
ATOM     29  C   UNL     1     -35.399  22.932   5.458  0.00  0.00    -0.031 C 
BRANCH  29  30
ATOM     30  C   UNL     1     -34.462  24.096   5.312  0.00  0.00    +0.026 C 
BRANCH  30  31
ATOM     31  C   UNL     1     -35.076  25.438   5.736  0.00  0.00    +0.016 C 
BRANCH  31  32
ATOM     32  C   UNL     1     -36.217  25.913   4.831  0.00  0.00    +0.110 C 
BRANCH  32  34
ATOM     33  O   UNL     1     -35.844  26.147   2.436  0.00  0.00    -0.250 OA
ATOM     34  C   UNL     1     -35.747  26.600   3.567  0.00  0.00    +0.314 C 
BRANCH  34  35
ATOM     35  O   UNL     1     -35.147  27.790   3.837  0.00  0.00    -0.480 OA
ATOM     36  H   UNL     1     -35.383  28.555   3.348  0.00  0.00    +0.295 HD
ENDBRANCH  34  35
ENDBRANCH  32  34
ENDBRANCH  31  32
ENDBRANCH  30  31
ENDBRANCH  29  30
ENDBRANCH  27  28
ENDBRANCH   1  27
TORSDOF 16
ENDMDL
MODEL 4
REMARK VINA RESULT:      -6.2      3.660      6.882
REMARK  Name = 5311100
REMARK  16 active torsions:
REMARK  status: ('A' for Active; 'I' for Inactive)
REMARK    1  A    between atoms: C_1  and  C_27
REMARK    2  A    between atoms: C_2  and  C_10
REMARK    3  A    between atoms: C_3  and  O_6
REMARK    4  A    between atoms: C_4  and  O_8
REMARK    5  A    between atoms: C_11  and  C_12
REMARK    6  A    between atoms: C_12  and  O_13
REMARK    7  A    between atoms: C_12  and  C_15
REMARK    8  A    between atoms: C_15  and  O_16
REMARK    9  A    between atoms: O_16  and  C_17
REMARK   10  A    between atoms: C_20  and  C_26
REMARK   11  A    between atoms: C_27  and  C_28
REMARK   12  A    between atoms: C_29  and  C_30
REMARK   13  A    between atoms: C_30  and  C_31
REMARK   14  A    between atoms: C_31  and  C_32
REMARK   15  A    between atoms: C_32  and  C_34
REMARK   16  A    between atoms: C_34  and  O_35
REMARK                            x       y       z     vdW  Elec       q    Type
REMARK                         _______ _______ _______ _____ _____    ______ ____
ROOT
ATOM      1  C   UNL     1     -35.546  22.895   4.013  0.00  0.00    +0.038 C 
ATOM      2  C   UNL     1     -36.925  22.681   3.367  0.00  0.00    +0.051 C 
ATOM      3  C   UNL     1     -35.013  21.465   4.129  0.00  0.00    +0.114 C 
ATOM      4  C   UNL     1     -36.683  21.553   2.349  0.00  0.00    +0.117 C 
ATOM      5  C   UNL     1     -35.399  20.833   2.792  0.00  0.00    +0.059 C 
ENDROOT
BRANCH   3   6
ATOM      6  O   UNL     1     -35.607  20.746   5.203  0.00  0.00    -0.384 OA
ATOM      7  H   UNL     1     -36.146  20.021   4.848  0.00  0.00    +0.210 HD
ENDBRANCH   3   6
BRANCH   4   8
ATOM      8  O   UNL     1     -37.771  20.638   2.361  0.00  0.00    -0.384 OA
ATOM      9  H   UNL     1     -38.378  20.848   1.633  0.00  0.00    +0.210 HD
ENDBRANCH   4   8
BRANCH   2  10
ATOM     10  C   UNL     1     -37.482  23.912   2.724  0.00  0.00    -0.026 C 
ATOM     11  C   UNL     1     -38.707  24.397   2.975  0.00  0.00    +0.002 C 
BRANCH  11  12
ATOM     12  C   UNL     1     -39.266  25.633   2.326  0.00  0.00    +0.176 C 
BRANCH  12  13
ATOM     13  O   UNL     1     -39.441  26.612   3.346  0.00  0.00    -0.376 OA
ATOM     14  H   UNL     1     -38.618  26.702   3.852  0.00  0.00    +0.211 HD
ENDBRANCH  12  13
BRANCH  12  15
ATOM     15  C   UNL     1     -38.322  26.183   1.261  0.00  0.00    +0.239 C 
BRANCH  15  16
ATOM     16  O   UNL     1     -37.716  27.381   1.723  0.00  0.00    -0.472 OA
BRANCH  16  17
ATOM     17  C   UNL     1     -36.349  27.380   1.839  0.00  0.00    +0.139 C 
ATOM     18  C   UNL     1     -35.610  26.287   1.385  0.00  0.00    +0.041 C 
ATOM     19  C   UNL     1     -35.697  28.472   2.412  0.00  0.00    +0.037 C 
ATOM     20  C   UNL     1     -34.222  26.286   1.505  0.00  0.00    +0.074 C 
ATOM     21  C   UNL     1     -34.309  28.472   2.531  0.00  0.00    +0.003 C 
ATOM     22  C   UNL     1     -33.570  27.379   2.078  0.00  0.00    +0.004 C 
BRANCH  20  26
ATOM     23  F   UNL     1     -32.125  25.136   1.420  0.00  0.00    -0.166 F 
ATOM     24  F   UNL     1     -33.917  23.914   1.447  0.00  0.00    -0.166 F 
ATOM     25  F   UNL     1     -33.396  25.037  -0.342  0.00  0.00    -0.166 F 
ATOM     26  C   UNL     1     -33.432  25.118   1.020  0.00  0.00    +0.419 C 
ENDBRANCH  20  26
ENDBRANCH  16  17
ENDBRANCH  15  16
ENDBRANCH  12  15
ENDBRANCH  11  12
ENDBRANCH   2  10
BRANCH   1  27
ATOM     27  C   UNL     1     -35.609  23.631   5.346  0.00  0.00    +0.028 C 
BRANCH  27  28
ATOM     28  C   UNL     1     -35.991  25.085   5.300  0.00  0.00    -0.031 C 
ATOM     29  C   UNL     1     -35.165  26.142   5.346  0.00  0.00    -0.031 C 
BRANCH  29  30
ATOM     30  C   UNL     1     -33.673  26.027   5.454  0.00  0.00    +0.026 C 
BRANCH  30  31
ATOM     31  C   UNL     1     -33.034  27.102   6.345  0.00  0.00    +0.016 C 
BRANCH  31  32
ATOM     32  C   UNL     1     -32.098  28.055   5.596  0.00  0.00    +0.110 C 
BRANCH  32  34
ATOM     33  O   UNL     1     -32.341  30.443   6.000  0.00  0.00    -0.250 OA
ATOM     34  C   UNL     1     -31.859  29.364   6.315  0.00  0.00    +0.314 C 
BRANCH  34  35
ATOM     35  O   UNL     1     -30.992  29.217   7.351  0.00  0.00    -0.480 OA
ATOM     36  H   UNL     1     -30.288  29.827   7.463  0.00  0.00    +0.295 HD
ENDBRANCH  34  35
ENDBRANCH  32  34
ENDBRANCH  31  32
ENDBRANCH  30  31
ENDBRANCH  29  30
ENDBRANCH  27  28
ENDBRANCH   1  27
TORSDOF 16
ENDMDL
MODEL 5
REMARK VINA RESULT:      -6.2      3.457      6.948
REMARK  Name = 5311100
REMARK  16 active torsions:
REMARK  status: ('A' for Active; 'I' for Inactive)
REMARK    1  A    between atoms: C_1  and  C_27
REMARK    2  A    between atoms: C_2  and  C_10
REMARK    3  A    between atoms: C_3  and  O_6
REMARK    4  A    between atoms: C_4  and  O_8
REMARK    5  A    between atoms: C_11  and  C_12
REMARK    6  A    between atoms: C_12  and  O_13
REMARK    7  A    between atoms: C_12  and  C_15
REMARK    8  A    between atoms: C_15  and  O_16
REMARK    9  A    between atoms: O_16  and  C_17
REMARK   10  A    between atoms: C_20  and  C_26
REMARK   11  A    between atoms: C_27  and  C_28
REMARK   12  A    between atoms: C_29  and  C_30
REMARK   13  A    between atoms: C_30  and  C_31
REMARK   14  A    between atoms: C_31  and  C_32
REMARK   15  A    between atoms: C_32  and  C_34
REMARK   16  A    between atoms: C_34  and  O_35
REMARK                            x       y       z     vdW  Elec       q    Type
REMARK                         _______ _______ _______ _____ _____    ______ ____
ROOT
ATOM      1  C   UNL     1     -38.033  23.995   2.067  0.00  0.00    +0.038 C 
ATOM      2  C   UNL     1     -36.871  25.002   2.043  0.00  0.00    +0.051 C 
ATOM      3  C   UNL     1     -39.166  24.817   2.688  0.00  0.00    +0.114 C 
ATOM      4  C   UNL     1     -37.546  26.334   1.668  0.00  0.00    +0.117 C 
ATOM      5  C   UNL     1     -39.039  26.175   1.998  0.00  0.00    +0.059 C 
ENDROOT
BRANCH   3   6
ATOM      6  O   UNL     1     -39.025  24.964   4.095  0.00  0.00    -0.384 OA
ATOM      7  H   UNL     1     -38.635  25.831   4.292  0.00  0.00    +0.210 HD
ENDBRANCH   3   6
BRANCH   4   8
ATOM      8  O   UNL     1     -36.998  27.396   2.438  0.00  0.00    -0.384 OA
ATOM      9  H   UNL     1     -36.885  27.104   3.357  0.00  0.00    +0.210 HD
ENDBRANCH   4   8
BRANCH   2  10
ATOM     10  C   UNL     1     -35.780  24.634   1.089  0.00  0.00    -0.026 C 
ATOM     11  C   UNL     1     -34.527  25.110   1.166  0.00  0.00    +0.002 C 
BRANCH  11  12
ATOM     12  C   UNL     1     -33.432  24.740   0.205  0.00  0.00    +0.176 C 
BRANCH  12  13
ATOM     13  O   UNL     1     -32.193  24.852   0.899  0.00  0.00    -0.376 OA
ATOM     14  H   UNL     1     -32.364  25.003   1.842  0.00  0.00    +0.211 HD
ENDBRANCH  12  13
BRANCH  12  15
ATOM     15  C   UNL     1     -33.591  23.311  -0.305  0.00  0.00    +0.239 C 
BRANCH  15  16
ATOM     16  O   UNL     1     -32.421  22.912  -1.002  0.00  0.00    -0.472 OA
BRANCH  16  17
ATOM     17  C   UNL     1     -31.874  21.703  -0.654  0.00  0.00    +0.139 C 
ATOM     18  C   UNL     1     -32.617  20.788   0.092  0.00  0.00    +0.041 C 
ATOM     19  C   UNL     1     -30.572  21.388  -1.047  0.00  0.00    +0.037 C 
ATOM     20  C   UNL     1     -32.060  19.560   0.445  0.00  0.00    +0.074 C 
ATOM     21  C   UNL     1     -30.015  20.161  -0.693  0.00  0.00    +0.003 C 
ATOM     22  C   UNL     1     -30.758  19.246   0.053  0.00  0.00    +0.004 C 
BRANCH  20  26
ATOM     23  F   UNL     1     -32.102  17.844   2.112  0.00  0.00    -0.166 F 
ATOM     24  F   UNL     1     -33.820  19.163   2.016  0.00  0.00    -0.166 F 
ATOM     25  F   UNL     1     -33.507  17.674   0.462  0.00  0.00    -0.166 F 
ATOM     26  C   UNL     1     -32.855  18.583   1.244  0.00  0.00    +0.419 C 
ENDBRANCH  20  26
ENDBRANCH  16  17
ENDBRANCH  15  16
ENDBRANCH  12  15
ENDBRANCH  11  12
ENDBRANCH   2  10
BRANCH   1  27
ATOM     27  C   UNL     1     -37.714  22.720   2.836  0.00  0.00    +0.028 C 
BRANCH  27  28
ATOM     28  C   UNL     1     -36.473  21.975   2.428  0.00  0.00    -0.031 C 
ATOM     29  C   UNL     1     -35.408  21.692   3.194  0.00  0.00    -0.031 C 
BRANCH  29  30
ATOM     30  C   UNL     1     -35.290  22.096   4.635  0.00  0.00    +0.026 C 
BRANCH  30  31
ATOM     31  C   UNL     1     -34.799  23.537   4.834  0.00  0.00    +0.016 C 
BRANCH  31  32
ATOM     32  C   UNL     1     -35.771  24.422   5.620  0.00  0.00    +0.110 C 
BRANCH  32  34
ATOM     33  O   UNL     1     -34.465  26.472   5.468  0.00  0.00    -0.250 OA
ATOM     34  C   UNL     1     -35.548  25.904   5.413  0.00  0.00    +0.314 C 
BRANCH  34  35
ATOM     35  O   UNL     1     -36.717  26.563   5.199  0.00  0.00    -0.480 OA
ATOM     36  H   UNL     1     -36.890  27.368   5.647  0.00  0.00    +0.295 HD
ENDBRANCH  34  35
ENDBRANCH  32  34
ENDBRANCH  31  32
ENDBRANCH  30  31
ENDBRANCH  29  30
ENDBRANCH  27  28
ENDBRANCH   1  27
TORSDOF 16
ENDMDL
MODEL 6
REMARK VINA RESULT:      -6.1      4.688      6.975
REMARK  Name = 5311100
REMARK  16 active torsions:
REMARK  status: ('A' for Active; 'I' for Inactive)
REMARK    1  A    between atoms: C_1  and  C_27
REMARK    2  A    between atoms: C_2  and  C_10
REMARK    3  A    between atoms: C_3  and  O_6
REMARK    4  A    between atoms: C_4  and  O_8
REMARK    5  A    between atoms: C_11  and  C_12
REMARK    6  A    between atoms: C_12  and  O_13
REMARK    7  A    between atoms: C_12  and  C_15
REMARK    8  A    between atoms: C_15  and  O_16
REMARK    9  A    between atoms: O_16  and  C_17
REMARK   10  A    between atoms: C_20  and  C_26
REMARK   11  A    between atoms: C_27  and  C_28
REMARK   12  A    between atoms: C_29  and  C_30
REMARK   13  A    between atoms: C_30  and  C_31
REMARK   14  A    between atoms: C_31  and  C_32
REMARK   15  A    between atoms: C_32  and  C_34
REMARK   16  A    between atoms: C_34  and  O_35
REMARK                            x       y       z     vdW  Elec       q    Type
REMARK                         _______ _______ _______ _____ _____    ______ ____
ROOT
ATOM      1  C   UNL     1     -37.073  22.229   1.551  0.00  0.00    +0.038 C 
ATOM      2  C   UNL     1     -38.412  22.442   2.275  0.00  0.00    +0.051 C 
ATOM      3  C   UNL     1     -37.178  20.773   1.089  0.00  0.00    +0.114 C 
ATOM      4  C   UNL     1     -39.426  21.675   1.407  0.00  0.00    +0.117 C 
ATOM      5  C   UNL     1     -38.615  20.666   0.578  0.00  0.00    +0.059 C 
ENDROOT
BRANCH   3   6
ATOM      6  O   UNL     1     -36.963  19.848   2.148  0.00  0.00    -0.384 OA
ATOM      7  H   UNL     1     -37.083  18.943   1.817  0.00  0.00    +0.210 HD
ENDBRANCH   3   6
BRANCH   4   8
ATOM      8  O   UNL     1     -40.352  20.979   2.233  0.00  0.00    -0.384 OA
ATOM      9  H   UNL     1     -40.651  21.565   2.946  0.00  0.00    +0.210 HD
ENDBRANCH   4   8
BRANCH   2  10
ATOM     10  C   UNL     1     -38.784  23.883   2.434  0.00  0.00    -0.026 C 
ATOM     11  C   UNL     1     -39.933  24.302   2.985  0.00  0.00    +0.002 C 
BRANCH  11  12
ATOM     12  C   UNL     1     -40.304  25.750   3.143  0.00  0.00    +0.176 C 
BRANCH  12  13
ATOM     13  O   UNL     1     -39.103  26.479   3.378  0.00  0.00    -0.376 OA
ATOM     14  H   UNL     1     -38.341  25.947   3.100  0.00  0.00    +0.211 HD
ENDBRANCH  12  13
BRANCH  12  15
ATOM     15  C   UNL     1     -40.981  26.296   1.889  0.00  0.00    +0.239 C 
BRANCH  15  16
ATOM     16  O   UNL     1     -42.110  27.077   2.249  0.00  0.00    -0.472 OA
BRANCH  16  17
ATOM     17  C   UNL     1     -43.293  26.409   2.434  0.00  0.00    +0.139 C 
ATOM     18  C   UNL     1     -44.042  26.621   3.592  0.00  0.00    +0.041 C 
ATOM     19  C   UNL     1     -43.749  25.515   1.464  0.00  0.00    +0.037 C 
ATOM     20  C   UNL     1     -45.244  25.940   3.779  0.00  0.00    +0.074 C 
ATOM     21  C   UNL     1     -44.951  24.835   1.651  0.00  0.00    +0.003 C 
ATOM     22  C   UNL     1     -45.699  25.047   2.809  0.00  0.00    +0.004 C 
BRANCH  20  26
ATOM     23  F   UNL     1     -46.849  25.113   5.350  0.00  0.00    -0.166 F 
ATOM     24  F   UNL     1     -45.282  26.394   6.128  0.00  0.00    -0.166 F 
ATOM     25  F   UNL     1     -46.876  27.244   4.916  0.00  0.00    -0.166 F 
ATOM     26  C   UNL     1     -46.044  26.166   5.018  0.00  0.00    +0.419 C 
ENDBRANCH  20  26
ENDBRANCH  16  17
ENDBRANCH  15  16
ENDBRANCH  12  15
ENDBRANCH  11  12
ENDBRANCH   2  10
BRANCH   1  27
ATOM     27  C   UNL     1     -35.859  22.502   2.430  0.00  0.00    +0.028 C 
BRANCH  27  28
ATOM     28  C   UNL     1     -35.209  23.850   2.289  0.00  0.00    -0.031 C 
ATOM     29  C   UNL     1     -35.270  24.875   3.154  0.00  0.00    -0.031 C 
BRANCH  29  30
ATOM     30  C   UNL     1     -36.029  24.826   4.448  0.00  0.00    +0.026 C 
BRANCH  30  31
ATOM     31  C   UNL     1     -35.147  24.531   5.669  0.00  0.00    +0.016 C 
BRANCH  31  32
ATOM     32  C   UNL     1     -34.431  23.178   5.607  0.00  0.00    +0.110 C 
BRANCH  32  34
ATOM     33  O   UNL     1     -36.290  22.095   6.749  0.00  0.00    -0.250 OA
ATOM     34  C   UNL     1     -35.291  22.013   6.047  0.00  0.00    +0.314 C 
BRANCH  34  35
ATOM     35  O   UNL     1     -34.795  20.828   5.604  0.00  0.00    -0.480 OA
ATOM     36  H   UNL     1     -35.168  20.023   5.905  0.00  0.00    +0.295 HD
ENDBRANCH  34  35
ENDBRANCH  32  34
ENDBRANCH  31  32
ENDBRANCH  30  31
ENDBRANCH  29  30
ENDBRANCH  27  28
ENDBRANCH   1  27
TORSDOF 16
ENDMDL
MODEL 7
REMARK VINA RESULT:      -6.1      2.633      6.309
REMARK  Name = 5311100
REMARK  16 active torsions:
REMARK  status: ('A' for Active; 'I' for Inactive)
REMARK    1  A    between atoms: C_1  and  C_27
REMARK    2  A    between atoms: C_2  and  C_10
REMARK    3  A    between atoms: C_3  and  O_6
REMARK    4  A    between atoms: C_4  and  O_8
REMARK    5  A    between atoms: C_11  and  C_12
REMARK    6  A    between atoms: C_12  and  O_13
REMARK    7  A    between atoms: C_12  and  C_15
REMARK    8  A    between atoms: C_15  and  O_16
REMARK    9  A    between atoms: O_16  and  C_17
REMARK   10  A    between atoms: C_20  and  C_26
REMARK   11  A    between atoms: C_27  and  C_28
REMARK   12  A    between atoms: C_29  and  C_30
REMARK   13  A    between atoms: C_30  and  C_31
REMARK   14  A    between atoms: C_31  and  C_32
REMARK   15  A    between atoms: C_32  and  C_34
REMARK   16  A    between atoms: C_34  and  O_35
REMARK                            x       y       z     vdW  Elec       q    Type
REMARK                         _______ _______ _______ _____ _____    ______ ____
ROOT
ATOM      1  C   UNL     1     -32.614  20.460  -0.465  0.00  0.00    +0.038 C 
ATOM      2  C   UNL     1     -32.861  19.774   0.889  0.00  0.00    +0.051 C 
ATOM      3  C   UNL     1     -31.357  19.745  -0.970  0.00  0.00    +0.114 C 
ATOM      4  C   UNL     1     -32.513  18.298   0.623  0.00  0.00    +0.117 C 
ATOM      5  C   UNL     1     -31.622  18.278  -0.629  0.00  0.00    +0.059 C 
ENDROOT
BRANCH   3   6
ATOM      6  O   UNL     1     -30.175  20.196  -0.319  0.00  0.00    -0.384 OA
ATOM      7  H   UNL     1     -29.704  20.816  -0.898  0.00  0.00    +0.210 HD
ENDBRANCH   3   6
BRANCH   4   8
ATOM      8  O   UNL     1     -31.799  17.756   1.726  0.00  0.00    -0.384 OA
ATOM      9  H   UNL     1     -31.187  17.072   1.409  0.00  0.00    +0.210 HD
ENDBRANCH   4   8
BRANCH   2  10
ATOM     10  C   UNL     1     -34.258  19.941   1.398  0.00  0.00    -0.026 C 
ATOM     11  C   UNL     1     -35.352  19.838   0.627  0.00  0.00    +0.002 C 
BRANCH  11  12
ATOM     12  C   UNL     1     -36.754  20.008   1.141  0.00  0.00    +0.176 C 
BRANCH  12  13
ATOM     13  O   UNL     1     -36.766  19.596   2.505  0.00  0.00    -0.376 OA
ATOM     14  H   UNL     1     -36.577  20.358   3.075  0.00  0.00    +0.211 HD
ENDBRANCH  12  13
BRANCH  12  15
ATOM     15  C   UNL     1     -37.212  21.461   1.054  0.00  0.00    +0.239 C 
BRANCH  15  16
ATOM     16  O   UNL     1     -38.017  21.783   2.178  0.00  0.00    -0.472 OA
BRANCH  16  17
ATOM     17  C   UNL     1     -37.690  22.922   2.869  0.00  0.00    +0.139 C 
ATOM     18  C   UNL     1     -36.587  22.929   3.723  0.00  0.00    +0.041 C 
ATOM     19  C   UNL     1     -38.461  24.075   2.716  0.00  0.00    +0.037 C 
ATOM     20  C   UNL     1     -36.257  24.087   4.426  0.00  0.00    +0.074 C 
ATOM     21  C   UNL     1     -38.130  25.233   3.418  0.00  0.00    +0.003 C 
ATOM     22  C   UNL     1     -37.028  25.240   4.273  0.00  0.00    +0.004 C 
BRANCH  20  26
ATOM     23  F   UNL     1     -33.883  23.949   4.694  0.00  0.00    -0.166 F 
ATOM     24  F   UNL     1     -34.953  25.247   6.062  0.00  0.00    -0.166 F 
ATOM     25  F   UNL     1     -35.122  23.088   6.260  0.00  0.00    -0.166 F 
ATOM     26  C   UNL     1     -35.078  24.095   5.340  0.00  0.00    +0.419 C 
ENDBRANCH  20  26
ENDBRANCH  16  17
ENDBRANCH  15  16
ENDBRANCH  12  15
ENDBRANCH  11  12
ENDBRANCH   2  10
BRANCH   1  27
ATOM     27  C   UNL     1     -32.453  21.971  -0.359  0.00  0.00    +0.028 C 
BRANCH  27  28
ATOM     28  C   UNL     1     -33.592  22.811  -0.866  0.00  0.00    -0.031 C 
ATOM     29  C   UNL     1     -34.351  23.662  -0.157  0.00  0.00    -0.031 C 
BRANCH  29  30
ATOM     30  C   UNL     1     -34.168  23.914   1.311  0.00  0.00    +0.026 C 
BRANCH  30  31
ATOM     31  C   UNL     1     -33.560  25.287   1.630  0.00  0.00    +0.016 C 
BRANCH  31  32
ATOM     32  C   UNL     1     -34.594  26.350   2.012  0.00  0.00    +0.110 C 
BRANCH  32  34
ATOM     33  O   UNL     1     -33.226  26.972   3.928  0.00  0.00    -0.250 OA
ATOM     34  C   UNL     1     -34.210  27.166   3.227  0.00  0.00    +0.314 C 
BRANCH  34  35
ATOM     35  O   UNL     1     -35.124  28.136   3.490  0.00  0.00    -0.480 OA
ATOM     36  H   UNL     1     -35.015  28.693   4.236  0.00  0.00    +0.295 HD
ENDBRANCH  34  35
ENDBRANCH  32  34
ENDBRANCH  31  32
ENDBRANCH  30  31
ENDBRANCH  29  30
ENDBRANCH  27  28
ENDBRANCH   1  27
TORSDOF 16
ENDMDL
MODEL 8
REMARK VINA RESULT:      -6.0      2.331      4.095
REMARK  Name = 5311100
REMARK  16 active torsions:
REMARK  status: ('A' for Active; 'I' for Inactive)
REMARK    1  A    between atoms: C_1  and  C_27
REMARK    2  A    between atoms: C_2  and  C_10
REMARK    3  A    between atoms: C_3  and  O_6
REMARK    4  A    between atoms: C_4  and  O_8
REMARK    5  A    between atoms: C_11  and  C_12
REMARK    6  A    between atoms: C_12  and  O_13
REMARK    7  A    between atoms: C_12  and  C_15
REMARK    8  A    between atoms: C_15  and  O_16
REMARK    9  A    between atoms: O_16  and  C_17
REMARK   10  A    between atoms: C_20  and  C_26
REMARK   11  A    between atoms: C_27  and  C_28
REMARK   12  A    between atoms: C_29  and  C_30
REMARK   13  A    between atoms: C_30  and  C_31
REMARK   14  A    between atoms: C_31  and  C_32
REMARK   15  A    between atoms: C_32  and  C_34
REMARK   16  A    between atoms: C_34  and  O_35
REMARK                            x       y       z     vdW  Elec       q    Type
REMARK                         _______ _______ _______ _____ _____    ______ ____
ROOT
ATOM      1  C   UNL     1     -36.718  21.193   0.225  0.00  0.00    +0.038 C 
ATOM      2  C   UNL     1     -37.787  21.845   1.117  0.00  0.00    +0.051 C 
ATOM      3  C   UNL     1     -37.265  19.774   0.043  0.00  0.00    +0.114 C 
ATOM      4  C   UNL     1     -39.113  21.279   0.577  0.00  0.00    +0.117 C 
ATOM      5  C   UNL     1     -38.759  19.997  -0.193  0.00  0.00    +0.059 C 
ENDROOT
BRANCH   3   6
ATOM      6  O   UNL     1     -37.064  18.960   1.192  0.00  0.00    -0.384 OA
ATOM      7  H   UNL     1     -37.274  19.471   1.991  0.00  0.00    +0.210 HD
ENDBRANCH   3   6
BRANCH   4   8
ATOM      8  O   UNL     1     -39.987  20.964   1.654  0.00  0.00    -0.384 OA
ATOM      9  H   UNL     1     -40.616  21.692   1.782  0.00  0.00    +0.210 HD
ENDBRANCH   4   8
BRANCH   2  10
ATOM     10  C   UNL     1     -37.759  23.341   1.089  0.00  0.00    -0.026 C 
ATOM     11  C   UNL     1     -38.805  24.114   1.418  0.00  0.00    +0.002 C 
BRANCH  11  12
ATOM     12  C   UNL     1     -38.774  25.617   1.386  0.00  0.00    +0.176 C 
BRANCH  12  13
ATOM     13  O   UNL     1     -40.081  26.081   1.714  0.00  0.00    -0.376 OA
ATOM     14  H   UNL     1     -40.143  27.031   1.528  0.00  0.00    +0.211 HD
ENDBRANCH  12  13
BRANCH  12  15
ATOM     15  C   UNL     1     -37.778  26.180   2.396  0.00  0.00    +0.239 C 
BRANCH  15  16
ATOM     16  O   UNL     1     -37.982  25.579   3.665  0.00  0.00    -0.472 OA
BRANCH  16  17
ATOM     17  C   UNL     1     -36.862  25.196   4.358  0.00  0.00    +0.139 C 
ATOM     18  C   UNL     1     -36.613  23.843   4.590  0.00  0.00    +0.041 C 
ATOM     19  C   UNL     1     -35.971  26.160   4.830  0.00  0.00    +0.037 C 
ATOM     20  C   UNL     1     -35.475  23.455   5.295  0.00  0.00    +0.074 C 
ATOM     21  C   UNL     1     -34.833  25.772   5.535  0.00  0.00    +0.003 C 
ATOM     22  C   UNL     1     -34.584  24.419   5.768  0.00  0.00    +0.004 C 
BRANCH  20  26
ATOM     23  F   UNL     1     -36.043  21.450   6.471  0.00  0.00    -0.166 F 
ATOM     24  F   UNL     1     -35.342  21.228   4.431  0.00  0.00    -0.166 F 
ATOM     25  F   UNL     1     -33.945  21.779   6.004  0.00  0.00    -0.166 F 
ATOM     26  C   UNL     1     -35.209  22.009   5.544  0.00  0.00    +0.419 C 
ENDBRANCH  20  26
ENDBRANCH  16  17
ENDBRANCH  15  16
ENDBRANCH  12  15
ENDBRANCH  11  12
ENDBRANCH   2  10
BRANCH   1  27
ATOM     27  C   UNL     1     -35.320  21.233   0.827  0.00  0.00    +0.028 C 
BRANCH  27  28
ATOM     28  C   UNL     1     -34.298  22.074   0.112  0.00  0.00    -0.031 C 
ATOM     29  C   UNL     1     -33.851  23.287   0.472  0.00  0.00    -0.031 C 
BRANCH  29  30
ATOM     30  C   UNL     1     -34.324  24.018   1.694  0.00  0.00    +0.026 C 
BRANCH  30  31
ATOM     31  C   UNL     1     -33.999  25.519   1.679  0.00  0.00    +0.016 C 
BRANCH  31  32
ATOM     32  C   UNL     1     -32.879  25.923   2.642  0.00  0.00    +0.110 C 
BRANCH  32  34
ATOM     33  O   UNL     1     -30.452  26.061   2.508  0.00  0.00    -0.250 OA
ATOM     34  C   UNL     1     -31.545  26.147   1.965  0.00  0.00    +0.314 C 
BRANCH  34  35
ATOM     35  O   UNL     1     -31.697  26.509   0.664  0.00  0.00    -0.480 OA
ATOM     36  H   UNL     1     -30.957  26.806   0.171  0.00  0.00    +0.295 HD
ENDBRANCH  34  35
ENDBRANCH  32  34
ENDBRANCH  31  32
ENDBRANCH  30  31
ENDBRANCH  29  30
ENDBRANCH  27  28
ENDBRANCH   1  27
TORSDOF 16
ENDMDL
MODEL 9
REMARK VINA RESULT:      -6.0      3.909      6.169
REMARK  Name = 5311100
REMARK  16 active torsions:
REMARK  status: ('A' for Active; 'I' for Inactive)
REMARK    1  A    between atoms: C_1  and  C_27
REMARK    2  A    between atoms: C_2  and  C_10
REMARK    3  A    between atoms: C_3  and  O_6
REMARK    4  A    between atoms: C_4  and  O_8
REMARK    5  A    between atoms: C_11  and  C_12
REMARK    6  A    between atoms: C_12  and  O_13
REMARK    7  A    between atoms: C_12  and  C_15
REMARK    8  A    between atoms: C_15  and  O_16
REMARK    9  A    between atoms: O_16  and  C_17
REMARK   10  A    between atoms: C_20  and  C_26
REMARK   11  A    between atoms: C_27  and  C_28
REMARK   12  A    between atoms: C_29  and  C_30
REMARK   13  A    between atoms: C_30  and  C_31
REMARK   14  A    between atoms: C_31  and  C_32
REMARK   15  A    between atoms: C_32  and  C_34
REMARK   16  A    between atoms: C_34  and  O_35
REMARK                            x       y       z     vdW  Elec       q    Type
REMARK                         _______ _______ _______ _____ _____    ______ ____
ROOT
ATOM      1  C   UNL     1     -36.489  21.948   1.974  0.00  0.00    +0.038 C 
ATOM      2  C   UNL     1     -37.866  22.317   2.550  0.00  0.00    +0.051 C 
ATOM      3  C   UNL     1     -36.739  20.552   1.397  0.00  0.00    +0.114 C 
ATOM      4  C   UNL     1     -38.859  21.757   1.516  0.00  0.00    +0.117 C 
ATOM      5  C   UNL     1     -38.100  20.688   0.715  0.00  0.00    +0.059 C 
ENDROOT
BRANCH   3   6
ATOM      6  O   UNL     1     -36.790  19.547   2.403  0.00  0.00    -0.384 OA
ATOM      7  H   UNL     1     -36.765  18.671   1.986  0.00  0.00    +0.210 HD
ENDBRANCH   3   6
BRANCH   4   8
ATOM      8  O   UNL     1     -39.970  21.161   2.174  0.00  0.00    -0.384 OA
ATOM      9  H   UNL     1     -39.652  20.510   2.819  0.00  0.00    +0.210 HD
ENDBRANCH   4   8
BRANCH   2  10
ATOM     10  C   UNL     1     -38.049  23.785   2.770  0.00  0.00    -0.026 C 
ATOM     11  C   UNL     1     -37.542  24.731   1.964  0.00  0.00    +0.002 C 
BRANCH  11  12
ATOM     12  C   UNL     1     -37.726  26.206   2.189  0.00  0.00    +0.176 C 
BRANCH  12  13
ATOM     13  O   UNL     1     -38.436  26.369   3.413  0.00  0.00    -0.376 OA
ATOM     14  H   UNL     1     -39.389  26.392   3.234  0.00  0.00    +0.211 HD
ENDBRANCH  12  13
BRANCH  12  15
ATOM     15  C   UNL     1     -36.387  26.930   2.288  0.00  0.00    +0.239 C 
BRANCH  15  16
ATOM     16  O   UNL     1     -36.424  28.124   1.521  0.00  0.00    -0.472 OA
BRANCH  16  17
ATOM     17  C   UNL     1     -35.675  29.178   1.978  0.00  0.00    +0.139 C 
ATOM     18  C   UNL     1     -34.473  28.943   2.646  0.00  0.00    +0.041 C 
ATOM     19  C   UNL     1     -36.115  30.487   1.776  0.00  0.00    +0.037 C 
ATOM     20  C   UNL     1     -33.712  30.015   3.111  0.00  0.00    +0.074 C 
ATOM     21  C   UNL     1     -35.355  31.558   2.241  0.00  0.00    +0.003 C 
ATOM     22  C   UNL     1     -34.153  31.323   2.908  0.00  0.00    +0.004 C 
BRANCH  20  26
ATOM     23  F   UNL     1     -32.568  29.640   5.179  0.00  0.00    -0.166 F 
ATOM     24  F   UNL     1     -31.796  28.618   3.429  0.00  0.00    -0.166 F 
ATOM     25  F   UNL     1     -31.520  30.766   3.641  0.00  0.00    -0.166 F 
ATOM     26  C   UNL     1     -32.427  29.763   3.825  0.00  0.00    +0.419 C 
ENDBRANCH  20  26
ENDBRANCH  16  17
ENDBRANCH  15  16
ENDBRANCH  12  15
ENDBRANCH  11  12
ENDBRANCH   2  10
BRANCH   1  27
ATOM     27  C   UNL     1     -35.370  21.989   3.007  0.00  0.00    +0.028 C 
BRANCH  27  28
ATOM     28  C   UNL     1     -35.713  21.530   4.397  0.00  0.00    -0.031 C 
ATOM     29  C   UNL     1     -35.473  22.179   5.547  0.00  0.00    -0.031 C 
BRANCH  29  30
ATOM     30  C   UNL     1     -34.797  23.517   5.622  0.00  0.00    +0.026 C 
BRANCH  30  31
ATOM     31  C   UNL     1     -35.724  24.695   5.292  0.00  0.00    +0.016 C 
BRANCH  31  32
ATOM     32  C   UNL     1     -35.147  26.063   5.668  0.00  0.00    +0.110 C 
BRANCH  32  34
ATOM     33  O   UNL     1     -33.274  26.006   4.112  0.00  0.00    -0.250 OA
ATOM     34  C   UNL     1     -33.714  26.263   5.224  0.00  0.00    +0.314 C 
BRANCH  34  35
ATOM     35  O   UNL     1     -32.936  26.729   6.236  0.00  0.00    -0.480 OA
ATOM     36  H   UNL     1     -33.042  26.389   7.103  0.00  0.00    +0.295 HD
ENDBRANCH  34  35
ENDBRANCH  32  34
ENDBRANCH  31  32
ENDBRANCH  30  31
ENDBRANCH  29  30
ENDBRANCH  27  28
ENDBRANCH   1  27
TORSDOF 16
ENDMDL
