MODEL 1
REMARK VINA RESULT:      -6.2      0.000      0.000
REMARK  Name = 193579
REMARK  5 active torsions:
REMARK  status: ('A' for Active; 'I' for Inactive)
REMARK    1  A    between atoms: C_3  and  O_18
REMARK    2  A    between atoms: C_4  and  O_20
REMARK    3  A    between atoms: C_10  and  O_22
REMARK    4  A    between atoms: C_11  and  O_24
REMARK    5  A    between atoms: C_16  and  O_26
REMARK                            x       y       z     vdW  Elec       q    Type
REMARK                         _______ _______ _______ _____ _____    ______ ____
ROOT
ATOM      1  O   UNL     1     -36.248  19.917   2.423  0.00  0.00    -0.283 OA
ATOM      2  O   UNL     1     -32.922  22.606  -0.779  0.00  0.00    -0.286 OA
ATOM      3  C   UNL     1     -35.675  26.000   4.831  0.00  0.00    +0.117 C 
ATOM      4  C   UNL     1     -35.381  26.860   3.592  0.00  0.00    +0.140 C 
ATOM      5  C   UNL     1     -36.296  24.657   4.411  0.00  0.00    +0.058 C 
ATOM      6  C   UNL     1     -34.418  26.171   2.623  0.00  0.00    +0.061 C 
ATOM      7  C   UNL     1     -35.587  23.991   3.257  0.00  0.00    +0.013 A 
ATOM      8  C   UNL     1     -34.731  24.708   2.400  0.00  0.00    +0.013 A 
ATOM      9  C   UNL     1     -34.424  25.798   5.697  0.00  0.00    +0.032 C 
ATOM     10  C   UNL     1     -35.831  22.631   3.007  0.00  0.00    +0.133 A 
ATOM     11  C   UNL     1     -34.107  24.042   1.333  0.00  0.00    +0.133 A 
ATOM     12  C   UNL     1     -35.214  21.978   1.934  0.00  0.00    +0.081 A 
ATOM     13  C   UNL     1     -34.349  22.684   1.100  0.00  0.00    +0.078 A 
ATOM     14  C   UNL     1     -35.486  20.546   1.698  0.00  0.00    +0.232 C 
ATOM     15  C   UNL     1     -33.687  22.010  -0.032  0.00  0.00    +0.202 C 
ATOM     16  C   UNL     1     -34.806  19.893   0.554  0.00  0.00    +0.181 C 
ATOM     17  C   UNL     1     -33.976  20.576  -0.241  0.00  0.00    +0.082 C 
ENDROOT
BRANCH   3  18
ATOM     18  O   UNL     1     -36.630  26.707   5.632  0.00  0.00    -0.384 OA
ATOM     19  H   UNL     1     -36.800  26.210   6.446  0.00  0.00    +0.210 HD
ENDBRANCH   3  18
BRANCH   4  20
ATOM     20  O   UNL     1     -36.595  27.128   2.880  0.00  0.00    -0.382 OA
ATOM     21  H   UNL     1     -36.435  27.816   2.215  0.00  0.00    +0.210 HD
ENDBRANCH   4  20
BRANCH  10  22
ATOM     22  O   UNL     1     -36.695  21.967   3.835  0.00  0.00    -0.506 OA
ATOM     23  H   UNL     1     -36.362  21.436   4.531  0.00  0.00    +0.292 HD
ENDBRANCH  10  22
BRANCH  11  24
ATOM     24  O   UNL     1     -33.255  24.754   0.536  0.00  0.00    -0.506 OA
ATOM     25  H   UNL     1     -32.824  25.516   0.873  0.00  0.00    +0.292 HD
ENDBRANCH  11  24
BRANCH  16  26
ATOM     26  O   UNL     1     -35.077  18.553   0.359  0.00  0.00    -0.468 OA
ATOM     27  C   UNL     1     -33.886  17.792   0.395  0.00  0.00    +0.253 C 
ENDBRANCH  16  26
TORSDOF 5
ENDMDL
MODEL 2
REMARK VINA RESULT:      -6.0      2.011      6.130
REMARK  Name = 193579
REMARK  5 active torsions:
REMARK  status: ('A' for Active; 'I' for Inactive)
REMARK    1  A    between atoms: C_3  and  O_18
REMARK    2  A    between atoms: C_4  and  O_20
REMARK    3  A    between atoms: C_10  and  O_22
REMARK    4  A    between atoms: C_11  and  O_24
REMARK    5  A    between atoms: C_16  and  O_26
REMARK                            x       y       z     vdW  Elec       q    Type
REMARK                         _______ _______ _______ _____ _____    ______ ____
ROOT
ATOM      1  O   UNL     1     -34.104  25.866   6.210  0.00  0.00    -0.283 OA
ATOM      2  O   UNL     1     -32.692  27.064   1.199  0.00  0.00    -0.286 OA
ATOM      3  C   UNL     1     -36.496  21.159   2.306  0.00  0.00    +0.117 C 
ATOM      4  C   UNL     1     -35.512  21.123   1.126  0.00  0.00    +0.140 C 
ATOM      5  C   UNL     1     -35.850  21.851   3.518  0.00  0.00    +0.058 C 
ATOM      6  C   UNL     1     -35.071  22.524   0.697  0.00  0.00    +0.061 C 
ATOM      7  C   UNL     1     -35.130  23.133   3.176  0.00  0.00    +0.013 A 
ATOM      8  C   UNL     1     -34.737  23.434   1.859  0.00  0.00    +0.013 A 
ATOM      9  C   UNL     1     -37.826  21.820   1.921  0.00  0.00    +0.032 C 
ATOM     10  C   UNL     1     -34.802  24.021   4.213  0.00  0.00    +0.133 A 
ATOM     11  C   UNL     1     -34.058  24.634   1.599  0.00  0.00    +0.133 A 
ATOM     12  C   UNL     1     -34.115  25.210   3.946  0.00  0.00    +0.081 A 
ATOM     13  C   UNL     1     -33.746  25.517   2.638  0.00  0.00    +0.078 A 
ATOM     14  C   UNL     1     -33.788  26.129   5.056  0.00  0.00    +0.232 C 
ATOM     15  C   UNL     1     -33.026  26.769   2.339  0.00  0.00    +0.202 C 
ATOM     16  C   UNL     1     -33.064  27.380   4.727  0.00  0.00    +0.181 C 
ATOM     17  C   UNL     1     -32.716  27.669   3.469  0.00  0.00    +0.082 C 
ENDROOT
BRANCH   3  18
ATOM     18  O   UNL     1     -36.790  19.803   2.665  0.00  0.00    -0.384 OA
ATOM     19  H   UNL     1     -35.977  19.361   2.952  0.00  0.00    +0.210 HD
ENDBRANCH   3  18
BRANCH   4  20
ATOM     20  O   UNL     1     -34.336  20.390   1.489  0.00  0.00    -0.382 OA
ATOM     21  H   UNL     1     -33.643  20.541   0.828  0.00  0.00    +0.210 HD
ENDBRANCH   4  20
BRANCH  10  22
ATOM     22  O   UNL     1     -35.165  23.687   5.489  0.00  0.00    -0.506 OA
ATOM     23  H   UNL     1     -34.685  23.032   5.957  0.00  0.00    +0.292 HD
ENDBRANCH  10  22
BRANCH  11  24
ATOM     24  O   UNL     1     -33.717  24.918   0.306  0.00  0.00    -0.506 OA
ATOM     25  H   UNL     1     -32.853  24.728  -0.004  0.00  0.00    +0.292 HD
ENDBRANCH  11  24
BRANCH  16  26
ATOM     26  O   UNL     1     -32.775  28.220   5.784  0.00  0.00    -0.468 OA
ATOM     27  C   UNL     1     -31.440  28.679   5.707  0.00  0.00    +0.253 C 
ENDBRANCH  16  26
TORSDOF 5
ENDMDL
MODEL 3
REMARK VINA RESULT:      -6.0      3.625      6.466
REMARK  Name = 193579
REMARK  5 active torsions:
REMARK  status: ('A' for Active; 'I' for Inactive)
REMARK    1  A    between atoms: C_3  and  O_18
REMARK    2  A    between atoms: C_4  and  O_20
REMARK    3  A    between atoms: C_10  and  O_22
REMARK    4  A    between atoms: C_11  and  O_24
REMARK    5  A    between atoms: C_16  and  O_26
REMARK                            x       y       z     vdW  Elec       q    Type
REMARK                         _______ _______ _______ _____ _____    ______ ____
ROOT
ATOM      1  O   UNL     1     -35.096  28.020   3.599  0.00  0.00    -0.283 OA
ATOM      2  O   UNL     1     -35.075  22.971   5.347  0.00  0.00    -0.286 OA
ATOM      3  C   UNL     1     -39.513  24.689   0.063  0.00  0.00    +0.117 C 
ATOM      4  C   UNL     1     -39.986  23.579   1.015  0.00  0.00    +0.140 C 
ATOM      5  C   UNL     1     -38.849  25.825   0.859  0.00  0.00    +0.058 C 
ATOM      6  C   UNL     1     -38.834  22.983   1.826  0.00  0.00    +0.061 C 
ATOM      7  C   UNL     1     -37.871  25.346   1.905  0.00  0.00    +0.013 A 
ATOM      8  C   UNL     1     -37.885  24.022   2.381  0.00  0.00    +0.013 A 
ATOM      9  C   UNL     1     -38.584  24.147  -1.032  0.00  0.00    +0.032 C 
ATOM     10  C   UNL     1     -36.960  26.266   2.449  0.00  0.00    +0.133 A 
ATOM     11  C   UNL     1     -36.963  23.634   3.365  0.00  0.00    +0.133 A 
ATOM     12  C   UNL     1     -36.052  25.872   3.438  0.00  0.00    +0.081 A 
ATOM     13  C   UNL     1     -36.052  24.555   3.892  0.00  0.00    +0.078 A 
ATOM     14  C   UNL     1     -35.101  26.859   3.989  0.00  0.00    +0.232 C 
ATOM     15  C   UNL     1     -35.098  24.123   4.930  0.00  0.00    +0.202 C 
ATOM     16  C   UNL     1     -34.152  26.397   5.031  0.00  0.00    +0.181 C 
ATOM     17  C   UNL     1     -34.157  25.131   5.460  0.00  0.00    +0.082 C 
ENDROOT
BRANCH   3  18
ATOM     18  O   UNL     1     -40.673  25.217  -0.594  0.00  0.00    -0.384 OA
ATOM     19  H   UNL     1     -41.052  25.930  -0.057  0.00  0.00    +0.210 HD
ENDBRANCH   3  18
BRANCH   4  20
ATOM     20  O   UNL     1     -40.945  24.101   1.941  0.00  0.00    -0.382 OA
ATOM     21  H   UNL     1     -41.104  25.039   1.750  0.00  0.00    +0.210 HD
ENDBRANCH   4  20
BRANCH  10  22
ATOM     22  O   UNL     1     -36.992  27.555   1.993  0.00  0.00    -0.506 OA
ATOM     23  H   UNL     1     -36.300  27.878   1.450  0.00  0.00    +0.292 HD
ENDBRANCH  10  22
BRANCH  11  24
ATOM     24  O   UNL     1     -36.975  22.333   3.786  0.00  0.00    -0.506 OA
ATOM     25  H   UNL     1     -36.181  21.926   4.073  0.00  0.00    +0.292 HD
ENDBRANCH  11  24
BRANCH  16  26
ATOM     26  O   UNL     1     -33.274  27.341   5.525  0.00  0.00    -0.468 OA
ATOM     27  C   UNL     1     -32.862  27.003   6.835  0.00  0.00    +0.253 C 
ENDBRANCH  16  26
TORSDOF 5
ENDMDL
MODEL 4
REMARK VINA RESULT:      -6.0      2.140      5.897
REMARK  Name = 193579
REMARK  5 active torsions:
REMARK  status: ('A' for Active; 'I' for Inactive)
REMARK    1  A    between atoms: C_3  and  O_18
REMARK    2  A    between atoms: C_4  and  O_20
REMARK    3  A    between atoms: C_10  and  O_22
REMARK    4  A    between atoms: C_11  and  O_24
REMARK    5  A    between atoms: C_16  and  O_26
REMARK                            x       y       z     vdW  Elec       q    Type
REMARK                         _______ _______ _______ _____ _____    ______ ____
ROOT
ATOM      1  O   UNL     1     -35.652  26.654   5.149  0.00  0.00    -0.283 OA
ATOM      2  O   UNL     1     -32.282  25.130   1.294  0.00  0.00    -0.286 OA
ATOM      3  C   UNL     1     -38.574  21.850   1.757  0.00  0.00    +0.117 C 
ATOM      4  C   UNL     1     -37.403  21.004   1.233  0.00  0.00    +0.140 C 
ATOM      5  C   UNL     1     -38.115  22.721   2.939  0.00  0.00    +0.058 C 
ATOM      6  C   UNL     1     -36.231  21.868   0.762  0.00  0.00    +0.061 C 
ATOM      7  C   UNL     1     -36.802  23.427   2.701  0.00  0.00    +0.013 A 
ATOM      8  C   UNL     1     -35.905  23.007   1.701  0.00  0.00    +0.013 A 
ATOM      9  C   UNL     1     -39.212  22.695   0.646  0.00  0.00    +0.032 C 
ATOM     10  C   UNL     1     -36.449  24.499   3.537  0.00  0.00    +0.133 A 
ATOM     11  C   UNL     1     -34.690  23.691   1.533  0.00  0.00    +0.133 A 
ATOM     12  C   UNL     1     -35.232  25.168   3.369  0.00  0.00    +0.081 A 
ATOM     13  C   UNL     1     -34.355  24.765   2.364  0.00  0.00    +0.078 A 
ATOM     14  C   UNL     1     -34.890  26.295   4.259  0.00  0.00    +0.232 C 
ATOM     15  C   UNL     1     -33.070  25.462   2.170  0.00  0.00    +0.202 C 
ATOM     16  C   UNL     1     -33.592  26.979   4.042  0.00  0.00    +0.181 C 
ATOM     17  C   UNL     1     -32.757  26.588   3.074  0.00  0.00    +0.082 C 
ENDROOT
BRANCH   3  18
ATOM     18  O   UNL     1     -39.583  20.947   2.229  0.00  0.00    -0.384 OA
ATOM     19  H   UNL     1     -39.164  20.130   2.541  0.00  0.00    +0.210 HD
ENDBRANCH   3  18
BRANCH   4  20
ATOM     20  O   UNL     1     -36.918  20.141   2.268  0.00  0.00    -0.382 OA
ATOM     21  H   UNL     1     -36.663  20.672   3.039  0.00  0.00    +0.210 HD
ENDBRANCH   4  20
BRANCH  10  22
ATOM     22  O   UNL     1     -37.325  24.864   4.524  0.00  0.00    -0.506 OA
ATOM     23  H   UNL     1     -37.066  24.812   5.423  0.00  0.00    +0.292 HD
ENDBRANCH  10  22
BRANCH  11  24
ATOM     24  O   UNL     1     -33.852  23.284   0.532  0.00  0.00    -0.506 OA
ATOM     25  H   UNL     1     -34.040  23.510  -0.358  0.00  0.00    +0.292 HD
ENDBRANCH  11  24
BRANCH  16  26
ATOM     26  O   UNL     1     -33.301  28.030   4.887  0.00  0.00    -0.468 OA
ATOM     27  C   UNL     1     -31.994  28.516   4.651  0.00  0.00    +0.253 C 
ENDBRANCH  16  26
TORSDOF 5
ENDMDL
MODEL 5
REMARK VINA RESULT:      -6.0      3.103      6.447
REMARK  Name = 193579
REMARK  5 active torsions:
REMARK  status: ('A' for Active; 'I' for Inactive)
REMARK    1  A    between atoms: C_3  and  O_18
REMARK    2  A    between atoms: C_4  and  O_20
REMARK    3  A    between atoms: C_10  and  O_22
REMARK    4  A    between atoms: C_11  and  O_24
REMARK    5  A    between atoms: C_16  and  O_26
REMARK                            x       y       z     vdW  Elec       q    Type
REMARK                         _______ _______ _______ _____ _____    ______ ____
ROOT
ATOM      1  O   UNL     1     -36.993  25.961   3.957  0.00  0.00    -0.283 OA
ATOM      2  O   UNL     1     -35.183  20.985   4.669  0.00  0.00    -0.286 OA
ATOM      3  C   UNL     1     -39.467  22.251  -0.864  0.00  0.00    +0.117 C 
ATOM      4  C   UNL     1     -39.557  20.849  -0.241  0.00  0.00    +0.140 C 
ATOM      5  C   UNL     1     -39.362  23.318   0.239  0.00  0.00    +0.058 C 
ATOM      6  C   UNL     1     -38.339  20.522   0.625  0.00  0.00    +0.061 C 
ATOM      7  C   UNL     1     -38.370  22.977   1.324  0.00  0.00    +0.013 A 
ATOM      8  C   UNL     1     -37.915  21.661   1.525  0.00  0.00    +0.013 A 
ATOM      9  C   UNL     1     -38.311  22.359  -1.867  0.00  0.00    +0.032 C 
ATOM     10  C   UNL     1     -37.933  23.997   2.185  0.00  0.00    +0.133 A 
ATOM     11  C   UNL     1     -37.002  21.397   2.559  0.00  0.00    +0.133 A 
ATOM     12  C   UNL     1     -37.032  23.722   3.219  0.00  0.00    +0.081 A 
ATOM     13  C   UNL     1     -36.565  22.422   3.403  0.00  0.00    +0.078 A 
ATOM     14  C   UNL     1     -36.585  24.816   4.106  0.00  0.00    +0.232 C 
ATOM     15  C   UNL     1     -35.611  22.118   4.486  0.00  0.00    +0.202 C 
ATOM     16  C   UNL     1     -35.625  24.481   5.186  0.00  0.00    +0.181 C 
ATOM     17  C   UNL     1     -35.180  23.232   5.355  0.00  0.00    +0.082 C 
ENDROOT
BRANCH   3  18
ATOM     18  O   UNL     1     -40.680  22.477  -1.596  0.00  0.00    -0.384 OA
ATOM     19  H   UNL     1     -40.491  22.460  -2.546  0.00  0.00    +0.210 HD
ENDBRANCH   3  18
BRANCH   4  20
ATOM     20  O   UNL     1     -40.719  20.754   0.590  0.00  0.00    -0.382 OA
ATOM     21  H   UNL     1     -40.462  20.439   1.471  0.00  0.00    +0.210 HD
ENDBRANCH   4  20
BRANCH  10  22
ATOM     22  O   UNL     1     -38.419  25.261   1.989  0.00  0.00    -0.506 OA
ATOM     23  H   UNL     1     -38.139  25.760   1.247  0.00  0.00    +0.292 HD
ENDBRANCH  10  22
BRANCH  11  24
ATOM     24  O   UNL     1     -36.550  20.116   2.711  0.00  0.00    -0.506 OA
ATOM     25  H   UNL     1     -36.404  19.769   3.570  0.00  0.00    +0.292 HD
ENDBRANCH  11  24
BRANCH  16  26
ATOM     26  O   UNL     1     -35.224  25.523   5.998  0.00  0.00    -0.468 OA
ATOM     27  C   UNL     1     -33.953  26.003   5.603  0.00  0.00    +0.253 C 
ENDBRANCH  16  26
TORSDOF 5
ENDMDL
MODEL 6
REMARK VINA RESULT:      -5.9      1.579      6.003
REMARK  Name = 193579
REMARK  5 active torsions:
REMARK  status: ('A' for Active; 'I' for Inactive)
REMARK    1  A    between atoms: C_3  and  O_18
REMARK    2  A    between atoms: C_4  and  O_20
REMARK    3  A    between atoms: C_10  and  O_22
REMARK    4  A    between atoms: C_11  and  O_24
REMARK    5  A    between atoms: C_16  and  O_26
REMARK                            x       y       z     vdW  Elec       q    Type
REMARK                         _______ _______ _______ _____ _____    ______ ____
ROOT
ATOM      1  O   UNL     1     -35.485  24.091   5.818  0.00  0.00    -0.283 OA
ATOM      2  O   UNL     1     -33.136  26.070   1.446  0.00  0.00    -0.286 OA
ATOM      3  C   UNL     1     -36.668  19.924   0.882  0.00  0.00    +0.117 C 
ATOM      4  C   UNL     1     -35.457  20.101  -0.047  0.00  0.00    +0.140 C 
ATOM      5  C   UNL     1     -36.341  20.454   2.289  0.00  0.00    +0.058 C 
ATOM      6  C   UNL     1     -35.034  21.566  -0.175  0.00  0.00    +0.061 C 
ATOM      7  C   UNL     1     -35.656  21.799   2.290  0.00  0.00    +0.013 A 
ATOM      8  C   UNL     1     -35.017  22.306   1.144  0.00  0.00    +0.013 A 
ATOM      9  C   UNL     1     -37.929  20.583   0.310  0.00  0.00    +0.032 C 
ATOM     10  C   UNL     1     -35.617  22.537   3.485  0.00  0.00    +0.133 A 
ATOM     11  C   UNL     1     -34.383  23.557   1.204  0.00  0.00    +0.133 A 
ATOM     12  C   UNL     1     -34.974  23.778   3.538  0.00  0.00    +0.081 A 
ATOM     13  C   UNL     1     -34.360  24.288   2.396  0.00  0.00    +0.078 A 
ATOM     14  C   UNL     1     -34.952  24.534   4.807  0.00  0.00    +0.232 C 
ATOM     15  C   UNL     1     -33.681  25.597   2.435  0.00  0.00    +0.202 C 
ATOM     16  C   UNL     1     -34.264  25.847   4.818  0.00  0.00    +0.181 C 
ATOM     17  C   UNL     1     -33.680  26.332   3.717  0.00  0.00    +0.082 C 
ENDROOT
BRANCH   3  18
ATOM     18  O   UNL     1     -36.936  18.519   0.981  0.00  0.00    -0.384 OA
ATOM     19  H   UNL     1     -36.417  18.142   1.708  0.00  0.00    +0.210 HD
ENDBRANCH   3  18
BRANCH   4  20
ATOM     20  O   UNL     1     -34.336  19.368   0.461  0.00  0.00    -0.382 OA
ATOM     21  H   UNL     1     -34.411  19.288   1.424  0.00  0.00    +0.210 HD
ENDBRANCH   4  20
BRANCH  10  22
ATOM     22  O   UNL     1     -36.217  22.003   4.593  0.00  0.00    -0.506 OA
ATOM     23  H   UNL     1     -37.018  22.368   4.913  0.00  0.00    +0.292 HD
ENDBRANCH  10  22
BRANCH  11  24
ATOM     24  O   UNL     1     -33.798  24.042   0.068  0.00  0.00    -0.506 OA
ATOM     25  H   UNL     1     -33.308  24.841   0.097  0.00  0.00    +0.292 HD
ENDBRANCH  11  24
BRANCH  16  26
ATOM     26  O   UNL     1     -34.263  26.532   6.016  0.00  0.00    -0.468 OA
ATOM     27  C   UNL     1     -32.954  26.945   6.355  0.00  0.00    +0.253 C 
ENDBRANCH  16  26
TORSDOF 5
ENDMDL
MODEL 7
REMARK VINA RESULT:      -5.8      1.535      6.637
REMARK  Name = 193579
REMARK  5 active torsions:
REMARK  status: ('A' for Active; 'I' for Inactive)
REMARK    1  A    between atoms: C_3  and  O_18
REMARK    2  A    between atoms: C_4  and  O_20
REMARK    3  A    between atoms: C_10  and  O_22
REMARK    4  A    between atoms: C_11  and  O_24
REMARK    5  A    between atoms: C_16  and  O_26
REMARK                            x       y       z     vdW  Elec       q    Type
REMARK                         _______ _______ _______ _____ _____    ______ ____
ROOT
ATOM      1  O   UNL     1     -34.022  26.204   2.630  0.00  0.00    -0.283 OA
ATOM      2  O   UNL     1     -35.880  22.360   5.841  0.00  0.00    -0.286 OA
ATOM      3  C   UNL     1     -34.228  20.646  -0.860  0.00  0.00    +0.117 C 
ATOM      4  C   UNL     1     -35.374  19.849  -0.217  0.00  0.00    +0.140 C 
ATOM      5  C   UNL     1     -34.344  22.135  -0.493  0.00  0.00    +0.058 C 
ATOM      6  C   UNL     1     -35.375  19.966   1.309  0.00  0.00    +0.061 C 
ATOM      7  C   UNL     1     -34.624  22.382   0.970  0.00  0.00    +0.013 A 
ATOM      8  C   UNL     1     -35.138  21.375   1.806  0.00  0.00    +0.013 A 
ATOM      9  C   UNL     1     -32.854  20.076  -0.484  0.00  0.00    +0.032 C 
ATOM     10  C   UNL     1     -34.413  23.670   1.490  0.00  0.00    +0.133 A 
ATOM     11  C   UNL     1     -35.394  21.663   3.156  0.00  0.00    +0.133 A 
ATOM     12  C   UNL     1     -34.682  23.951   2.834  0.00  0.00    +0.081 A 
ATOM     13  C   UNL     1     -35.169  22.946   3.667  0.00  0.00    +0.078 A 
ATOM     14  C   UNL     1     -34.446  25.312   3.355  0.00  0.00    +0.232 C 
ATOM     15  C   UNL     1     -35.453  23.225   5.086  0.00  0.00    +0.202 C 
ATOM     16  C   UNL     1     -34.739  25.565   4.786  0.00  0.00    +0.181 C 
ATOM     17  C   UNL     1     -35.204  24.595   5.580  0.00  0.00    +0.082 C 
ENDROOT
BRANCH   3  18
ATOM     18  O   UNL     1     -34.360  20.520  -2.282  0.00  0.00    -0.384 OA
ATOM     19  H   UNL     1     -35.295  20.585  -2.526  0.00  0.00    +0.210 HD
ENDBRANCH   3  18
BRANCH   4  20
ATOM     20  O   UNL     1     -36.636  20.333  -0.690  0.00  0.00    -0.382 OA
ATOM     21  H   UNL     1     -36.965  19.749  -1.390  0.00  0.00    +0.210 HD
ENDBRANCH   4  20
BRANCH  10  22
ATOM     22  O   UNL     1     -33.947  24.640   0.645  0.00  0.00    -0.506 OA
ATOM     23  H   UNL     1     -33.340  25.282   0.958  0.00  0.00    +0.292 HD
ENDBRANCH  10  22
BRANCH  11  24
ATOM     24  O   UNL     1     -35.861  20.657   3.956  0.00  0.00    -0.506 OA
ATOM     25  H   UNL     1     -35.312  20.299   4.627  0.00  0.00    +0.292 HD
ENDBRANCH  11  24
BRANCH  16  26
ATOM     26  O   UNL     1     -34.506  26.846   5.246  0.00  0.00    -0.468 OA
ATOM     27  C   UNL     1     -33.314  26.896   6.005  0.00  0.00    +0.253 C 
ENDBRANCH  16  26
TORSDOF 5
ENDMDL
MODEL 8
REMARK VINA RESULT:      -5.8      3.046      7.281
REMARK  Name = 193579
REMARK  5 active torsions:
REMARK  status: ('A' for Active; 'I' for Inactive)
REMARK    1  A    between atoms: C_3  and  O_18
REMARK    2  A    between atoms: C_4  and  O_20
REMARK    3  A    between atoms: C_10  and  O_22
REMARK    4  A    between atoms: C_11  and  O_24
REMARK    5  A    between atoms: C_16  and  O_26
REMARK                            x       y       z     vdW  Elec       q    Type
REMARK                         _______ _______ _______ _____ _____    ______ ____
ROOT
ATOM      1  O   UNL     1     -36.654  29.740   1.471  0.00  0.00    -0.283 OA
ATOM      2  O   UNL     1     -31.984  29.226   4.016  0.00  0.00    -0.286 OA
ATOM      3  C   UNL     1     -36.104  23.469   3.341  0.00  0.00    +0.117 C 
ATOM      4  C   UNL     1     -35.231  23.536   4.604  0.00  0.00    +0.140 C 
ATOM      5  C   UNL     1     -36.719  24.847   3.045  0.00  0.00    +0.058 C 
ATOM      6  C   UNL     1     -34.090  24.548   4.465  0.00  0.00    +0.061 C 
ATOM      7  C   UNL     1     -35.736  25.988   3.148  0.00  0.00    +0.013 A 
ATOM      8  C   UNL     1     -34.518  25.857   3.841  0.00  0.00    +0.013 A 
ATOM      9  C   UNL     1     -35.326  22.927   2.135  0.00  0.00    +0.032 C 
ATOM     10  C   UNL     1     -36.075  27.226   2.578  0.00  0.00    +0.133 A 
ATOM     11  C   UNL     1     -33.647  26.955   3.917  0.00  0.00    +0.133 A 
ATOM     12  C   UNL     1     -35.205  28.318   2.669  0.00  0.00    +0.081 A 
ATOM     13  C   UNL     1     -33.990  28.180   3.336  0.00  0.00    +0.078 A 
ATOM     14  C   UNL     1     -35.585  29.607   2.055  0.00  0.00    +0.232 C 
ATOM     15  C   UNL     1     -33.059  29.320   3.437  0.00  0.00    +0.202 C 
ATOM     16  C   UNL     1     -34.631  30.736   2.171  0.00  0.00    +0.181 C 
ATOM     17  C   UNL     1     -33.466  30.595   2.810  0.00  0.00    +0.082 C 
ENDROOT
BRANCH   3  18
ATOM     18  O   UNL     1     -37.170  22.547   3.602  0.00  0.00    -0.384 OA
ATOM     19  H   UNL     1     -37.202  21.882   2.897  0.00  0.00    +0.210 HD
ENDBRANCH   3  18
BRANCH   4  20
ATOM     20  O   UNL     1     -36.024  23.927   5.730  0.00  0.00    -0.382 OA
ATOM     21  H   UNL     1     -36.805  23.356   5.790  0.00  0.00    +0.210 HD
ENDBRANCH   4  20
BRANCH  10  22
ATOM     22  O   UNL     1     -37.281  27.335   1.941  0.00  0.00    -0.506 OA
ATOM     23  H   UNL     1     -37.394  27.965   1.256  0.00  0.00    +0.292 HD
ENDBRANCH  10  22
BRANCH  11  24
ATOM     24  O   UNL     1     -32.455  26.791   4.567  0.00  0.00    -0.506 OA
ATOM     25  H   UNL     1     -31.741  27.372   4.390  0.00  0.00    +0.292 HD
ENDBRANCH  11  24
BRANCH  16  26
ATOM     26  O   UNL     1     -35.012  31.926   1.586  0.00  0.00    -0.468 OA
ATOM     27  C   UNL     1     -33.996  32.900   1.725  0.00  0.00    +0.253 C 
ENDBRANCH  16  26
TORSDOF 5
ENDMDL
MODEL 9
REMARK VINA RESULT:      -5.7      4.350      6.658
REMARK  Name = 193579
REMARK  5 active torsions:
REMARK  status: ('A' for Active; 'I' for Inactive)
REMARK    1  A    between atoms: C_3  and  O_18
REMARK    2  A    between atoms: C_4  and  O_20
REMARK    3  A    between atoms: C_10  and  O_22
REMARK    4  A    between atoms: C_11  and  O_24
REMARK    5  A    between atoms: C_16  and  O_26
REMARK                            x       y       z     vdW  Elec       q    Type
REMARK                         _______ _______ _______ _____ _____    ______ ____
ROOT
ATOM      1  O   UNL     1     -41.564  22.487   0.197  0.00  0.00    -0.283 OA
ATOM      2  O   UNL     1     -40.415  26.925   2.941  0.00  0.00    -0.286 OA
ATOM      3  C   UNL     1     -35.541  21.753   2.707  0.00  0.00    +0.117 C 
ATOM      4  C   UNL     1     -35.568  22.604   3.986  0.00  0.00    +0.140 C 
ATOM      5  C   UNL     1     -36.974  21.428   2.253  0.00  0.00    +0.058 C 
ATOM      6  C   UNL     1     -36.316  23.925   3.786  0.00  0.00    +0.061 C 
ATOM      7  C   UNL     1     -37.904  22.617   2.274  0.00  0.00    +0.013 A 
ATOM      8  C   UNL     1     -37.610  23.774   3.018  0.00  0.00    +0.013 A 
ATOM      9  C   UNL     1     -34.732  22.425   1.589  0.00  0.00    +0.032 C 
ATOM     10  C   UNL     1     -39.117  22.539   1.571  0.00  0.00    +0.133 A 
ATOM     11  C   UNL     1     -38.518  24.846   3.014  0.00  0.00    +0.133 A 
ATOM     12  C   UNL     1     -40.020  23.607   1.581  0.00  0.00    +0.081 A 
ATOM     13  C   UNL     1     -39.718  24.762   2.301  0.00  0.00    +0.078 A 
ATOM     14  C   UNL     1     -41.286  23.499   0.828  0.00  0.00    +0.232 C 
ATOM     15  C   UNL     1     -40.657  25.898   2.319  0.00  0.00    +0.202 C 
ATOM     16  C   UNL     1     -42.212  24.657   0.863  0.00  0.00    +0.181 C 
ATOM     17  C   UNL     1     -41.914  25.762   1.553  0.00  0.00    +0.082 C 
ENDROOT
BRANCH   3  18
ATOM     18  O   UNL     1     -34.878  20.521   3.022  0.00  0.00    -0.384 OA
ATOM     19  H   UNL     1     -35.518  19.794   2.993  0.00  0.00    +0.210 HD
ENDBRANCH   3  18
BRANCH   4  20
ATOM     20  O   UNL     1     -36.224  21.889   5.039  0.00  0.00    -0.382 OA
ATOM     21  H   UNL     1     -37.150  22.172   5.095  0.00  0.00    +0.210 HD
ENDBRANCH   4  20
BRANCH  10  22
ATOM     22  O   UNL     1     -39.393  21.388   0.885  0.00  0.00    -0.506 OA
ATOM     23  H   UNL     1     -40.094  20.832   1.164  0.00  0.00    +0.292 HD
ENDBRANCH  10  22
BRANCH  11  24
ATOM     24  O   UNL     1     -38.193  25.972   3.718  0.00  0.00    -0.506 OA
ATOM     25  H   UNL     1     -38.865  26.476   4.133  0.00  0.00    +0.292 HD
ENDBRANCH  11  24
BRANCH  16  26
ATOM     26  O   UNL     1     -43.386  24.529   0.148  0.00  0.00    -0.468 OA
ATOM     27  C   UNL     1     -44.506  24.767   0.977  0.00  0.00    +0.253 C 
ENDBRANCH  16  26
TORSDOF 5
ENDMDL
