MODEL 1
REMARK VINA RESULT:      -5.6      0.000      0.000
REMARK  Name = 51550
REMARK  9 active torsions:
REMARK  status: ('A' for Active; 'I' for Inactive)
REMARK    1  A    between atoms: C_1  and  C_2
REMARK    2  A    between atoms: C_1  and  C_14
REMARK    3  A    between atoms: C_7  and  O_8
REMARK    4  A    between atoms: O_8  and  C_9
REMARK    5  A    between atoms: C_9  and  C_11
REMARK    6  A    between atoms: C_11  and  O_12
REMARK    7  A    between atoms: C_14  and  N_15
REMARK    8  A    between atoms: N_15  and  S_17
REMARK    9  A    between atoms: S_17  and  C_20
REMARK                            x       y       z     vdW  Elec       q    Type
REMARK                         _______ _______ _______ _____ _____    ______ ____
ROOT
ATOM      1  C   UNL     1     -35.757  22.183   4.164  0.00  0.00    +0.045 C 
ENDROOT
BRANCH   1   2
ATOM      2  C   UNL     1     -35.286  23.593   4.282  0.00  0.00    -0.021 C 
ATOM      3  C   UNL     1     -35.573  24.331   5.430  0.00  0.00    -0.001 C 
ATOM      4  C   UNL     1     -34.557  24.173   3.243  0.00  0.00    -0.001 C 
ATOM      5  C   UNL     1     -35.132  25.650   5.539  0.00  0.00    +0.037 C 
ATOM      6  C   UNL     1     -34.117  25.493   3.352  0.00  0.00    +0.037 C 
ATOM      7  C   UNL     1     -34.404  26.231   4.500  0.00  0.00    +0.139 C 
BRANCH   7   8
ATOM      8  O   UNL     1     -33.974  27.517   4.608  0.00  0.00    -0.464 OA
BRANCH   8   9
ATOM      9  C   UNL     1     -32.563  27.730   4.634  0.00  0.00    +0.314 C 
BRANCH   9  11
ATOM     10  O   UNL     1     -32.170  29.369   6.384  0.00  0.00    -0.246 OA
ATOM     11  C   UNL     1     -32.145  28.210   5.996  0.00  0.00    +0.359 C 
BRANCH  11  12
ATOM     12  O   UNL     1     -31.728  27.166   6.754  0.00  0.00    -0.478 OA
ATOM     13  H   UNL     1     -32.208  26.361   6.748  0.00  0.00    +0.295 HD
ENDBRANCH  11  12
ENDBRANCH   9  11
ENDBRANCH   8   9
ENDBRANCH   7   8
ENDBRANCH   1   2
BRANCH   1  14
ATOM     14  C   UNL     1     -36.097  21.765   2.729  0.00  0.00    +0.096 C 
BRANCH  14  15
ATOM     15  N   UNL     1     -37.496  21.289   2.655  0.00  0.00    -0.179 NA
ATOM     16  H   UNL     1     -37.460  20.310   2.370  0.00  0.00    +0.149 HD
BRANCH  15  17
ATOM     17  S   UNL     1     -38.600  22.061   1.618  0.00  0.00    +0.060 S 
ATOM     18  O   UNL     1     -39.948  21.862   2.115  0.00  0.00    -0.153 OA
ATOM     19  O   UNL     1     -38.270  21.723   0.246  0.00  0.00    -0.153 OA
BRANCH  17  20
ATOM     20  C   UNL     1     -38.181  23.764   1.844  0.00  0.00    +0.122 C 
ATOM     21  C   UNL     1     -38.588  24.411   2.998  0.00  0.00    +0.020 C 
ATOM     22  C   UNL     1     -37.458  24.418   0.863  0.00  0.00    +0.020 C 
ATOM     23  C   UNL     1     -38.259  25.755   3.176  0.00  0.00    +0.001 C 
ATOM     24  C   UNL     1     -37.129  25.762   1.041  0.00  0.00    +0.001 C 
ATOM     25  C   UNL     1     -37.530  26.430   2.197  0.00  0.00    +0.000 C 
ENDBRANCH  17  20
ENDBRANCH  15  17
ENDBRANCH  14  15
ENDBRANCH   1  14
TORSDOF 9
ENDMDL
MODEL 2
REMARK VINA RESULT:      -5.4      3.011      6.580
REMARK  Name = 51550
REMARK  9 active torsions:
REMARK  status: ('A' for Active; 'I' for Inactive)
REMARK    1  A    between atoms: C_1  and  C_2
REMARK    2  A    between atoms: C_1  and  C_14
REMARK    3  A    between atoms: C_7  and  O_8
REMARK    4  A    between atoms: O_8  and  C_9
REMARK    5  A    between atoms: C_9  and  C_11
REMARK    6  A    between atoms: C_11  and  O_12
REMARK    7  A    between atoms: C_14  and  N_15
REMARK    8  A    between atoms: N_15  and  S_17
REMARK    9  A    between atoms: S_17  and  C_20
REMARK                            x       y       z     vdW  Elec       q    Type
REMARK                         _______ _______ _______ _____ _____    ______ ____
ROOT
ATOM      1  C   UNL     1     -35.805  28.041   1.667  0.00  0.00    +0.045 C 
ENDROOT
BRANCH   1   2
ATOM      2  C   UNL     1     -36.197  26.606   1.758  0.00  0.00    -0.021 C 
ATOM      3  C   UNL     1     -37.449  26.255   2.262  0.00  0.00    -0.001 C 
ATOM      4  C   UNL     1     -35.311  25.613   1.338  0.00  0.00    -0.001 C 
ATOM      5  C   UNL     1     -37.816  24.912   2.346  0.00  0.00    +0.037 C 
ATOM      6  C   UNL     1     -35.677  24.270   1.423  0.00  0.00    +0.037 C 
ATOM      7  C   UNL     1     -36.930  23.919   1.928  0.00  0.00    +0.139 C 
BRANCH   7   8
ATOM      8  O   UNL     1     -37.288  22.609   2.010  0.00  0.00    -0.464 OA
BRANCH   8   9
ATOM      9  C   UNL     1     -36.371  21.651   1.483  0.00  0.00    +0.314 C 
BRANCH   9  11
ATOM     10  O   UNL     1     -35.222  20.668   3.384  0.00  0.00    -0.246 OA
ATOM     11  C   UNL     1     -36.081  20.600   2.518  0.00  0.00    +0.359 C 
BRANCH  11  12
ATOM     12  O   UNL     1     -36.917  19.544   2.361  0.00  0.00    -0.478 OA
ATOM     13  H   UNL     1     -37.266  19.106   3.113  0.00  0.00    +0.295 HD
ENDBRANCH  11  12
ENDBRANCH   9  11
ENDBRANCH   8   9
ENDBRANCH   7   8
ENDBRANCH   1   2
BRANCH   1  14
ATOM     14  C   UNL     1     -34.339  28.305   2.034  0.00  0.00    +0.096 C 
BRANCH  14  15
ATOM     15  N   UNL     1     -34.197  28.438   3.501  0.00  0.00    -0.179 NA
ATOM     16  H   UNL     1     -33.898  29.396   3.682  0.00  0.00    +0.149 HD
BRANCH  15  17
ATOM     17  S   UNL     1     -33.128  27.422   4.345  0.00  0.00    +0.060 S 
ATOM     18  O   UNL     1     -32.725  28.066   5.581  0.00  0.00    -0.153 OA
ATOM     19  O   UNL     1     -32.126  26.925   3.421  0.00  0.00    -0.153 OA
BRANCH  17  20
ATOM     20  C   UNL     1     -34.172  26.057   4.757  0.00  0.00    +0.122 C 
ATOM     21  C   UNL     1     -35.426  26.303   5.288  0.00  0.00    +0.020 C 
ATOM     22  C   UNL     1     -33.716  24.769   4.543  0.00  0.00    +0.020 C 
ATOM     23  C   UNL     1     -36.250  25.225   5.615  0.00  0.00    +0.001 C 
ATOM     24  C   UNL     1     -34.539  23.690   4.870  0.00  0.00    +0.001 C 
ATOM     25  C   UNL     1     -35.806  23.920   5.405  0.00  0.00    +0.000 C 
ENDBRANCH  17  20
ENDBRANCH  15  17
ENDBRANCH  14  15
ENDBRANCH   1  14
TORSDOF 9
ENDMDL
MODEL 3
REMARK VINA RESULT:      -5.4      1.159      2.146
REMARK  Name = 51550
REMARK  9 active torsions:
REMARK  status: ('A' for Active; 'I' for Inactive)
REMARK    1  A    between atoms: C_1  and  C_2
REMARK    2  A    between atoms: C_1  and  C_14
REMARK    3  A    between atoms: C_7  and  O_8
REMARK    4  A    between atoms: O_8  and  C_9
REMARK    5  A    between atoms: C_9  and  C_11
REMARK    6  A    between atoms: C_11  and  O_12
REMARK    7  A    between atoms: C_14  and  N_15
REMARK    8  A    between atoms: N_15  and  S_17
REMARK    9  A    between atoms: S_17  and  C_20
REMARK                            x       y       z     vdW  Elec       q    Type
REMARK                         _______ _______ _______ _____ _____    ______ ____
ROOT
ATOM      1  C   UNL     1     -35.549  20.787   2.931  0.00  0.00    +0.045 C 
ENDROOT
BRANCH   1   2
ATOM      2  C   UNL     1     -35.445  22.150   3.527  0.00  0.00    -0.021 C 
ATOM      3  C   UNL     1     -35.175  23.249   2.712  0.00  0.00    -0.001 C 
ATOM      4  C   UNL     1     -35.619  22.325   4.900  0.00  0.00    -0.001 C 
ATOM      5  C   UNL     1     -35.078  24.524   3.270  0.00  0.00    +0.037 C 
ATOM      6  C   UNL     1     -35.522  23.600   5.459  0.00  0.00    +0.037 C 
ATOM      7  C   UNL     1     -35.251  24.699   4.644  0.00  0.00    +0.139 C 
BRANCH   7   8
ATOM      8  O   UNL     1     -35.157  25.943   5.188  0.00  0.00    -0.464 OA
BRANCH   8   9
ATOM      9  C   UNL     1     -33.899  26.310   5.753  0.00  0.00    +0.314 C 
BRANCH   9  11
ATOM     10  O   UNL     1     -31.979  27.442   4.786  0.00  0.00    -0.246 OA
ATOM     11  C   UNL     1     -33.187  27.263   4.833  0.00  0.00    +0.359 C 
BRANCH  11  12
ATOM     12  O   UNL     1     -34.080  27.912   4.045  0.00  0.00    -0.478 OA
ATOM     13  H   UNL     1     -34.973  27.627   4.018  0.00  0.00    +0.295 HD
ENDBRANCH  11  12
ENDBRANCH   9  11
ENDBRANCH   8   9
ENDBRANCH   7   8
ENDBRANCH   1   2
BRANCH   1  14
ATOM     14  C   UNL     1     -36.524  20.703   1.751  0.00  0.00    +0.096 C 
BRANCH  14  15
ATOM     15  N   UNL     1     -37.919  20.782   2.236  0.00  0.00    -0.179 NA
ATOM     16  H   UNL     1     -38.237  19.822   2.375  0.00  0.00    +0.149 HD
BRANCH  15  17
ATOM     17  S   UNL     1     -39.101  21.559   1.294  0.00  0.00    +0.060 S 
ATOM     18  O   UNL     1     -40.417  21.259   1.828  0.00  0.00    -0.153 OA
ATOM     19  O   UNL     1     -38.812  21.327  -0.108  0.00  0.00    -0.153 OA
BRANCH  17  20
ATOM     20  C   UNL     1     -38.759  23.263   1.616  0.00  0.00    +0.122 C 
ATOM     21  C   UNL     1     -38.243  24.051   0.601  0.00  0.00    +0.020 C 
ATOM     22  C   UNL     1     -39.013  23.778   2.874  0.00  0.00    +0.020 C 
ATOM     23  C   UNL     1     -37.972  25.395   0.855  0.00  0.00    +0.001 C 
ATOM     24  C   UNL     1     -38.741  25.123   3.129  0.00  0.00    +0.001 C 
ATOM     25  C   UNL     1     -38.221  25.931   2.118  0.00  0.00    +0.000 C 
ENDBRANCH  17  20
ENDBRANCH  15  17
ENDBRANCH  14  15
ENDBRANCH   1  14
TORSDOF 9
ENDMDL
MODEL 4
REMARK VINA RESULT:      -5.4      1.701      2.140
REMARK  Name = 51550
REMARK  9 active torsions:
REMARK  status: ('A' for Active; 'I' for Inactive)
REMARK    1  A    between atoms: C_1  and  C_2
REMARK    2  A    between atoms: C_1  and  C_14
REMARK    3  A    between atoms: C_7  and  O_8
REMARK    4  A    between atoms: O_8  and  C_9
REMARK    5  A    between atoms: C_9  and  C_11
REMARK    6  A    between atoms: C_11  and  O_12
REMARK    7  A    between atoms: C_14  and  N_15
REMARK    8  A    between atoms: N_15  and  S_17
REMARK    9  A    between atoms: S_17  and  C_20
REMARK                            x       y       z     vdW  Elec       q    Type
REMARK                         _______ _______ _______ _____ _____    ______ ____
ROOT
ATOM      1  C   UNL     1     -35.658  22.459   5.582  0.00  0.00    +0.045 C 
ENDROOT
BRANCH   1   2
ATOM      2  C   UNL     1     -35.314  23.861   5.211  0.00  0.00    -0.021 C 
ATOM      3  C   UNL     1     -36.216  24.893   5.472  0.00  0.00    -0.001 C 
ATOM      4  C   UNL     1     -34.091  24.142   4.601  0.00  0.00    -0.001 C 
ATOM      5  C   UNL     1     -35.895  26.205   5.124  0.00  0.00    +0.037 C 
ATOM      6  C   UNL     1     -33.770  25.454   4.253  0.00  0.00    +0.037 C 
ATOM      7  C   UNL     1     -34.672  26.485   4.514  0.00  0.00    +0.139 C 
BRANCH   7   8
ATOM      8  O   UNL     1     -34.359  27.766   4.175  0.00  0.00    -0.464 OA
BRANCH   8   9
ATOM      9  C   UNL     1     -33.063  27.992   3.623  0.00  0.00    +0.314 C 
BRANCH   9  11
ATOM     10  O   UNL     1     -32.482  29.583   5.366  0.00  0.00    -0.246 OA
ATOM     11  C   UNL     1     -32.177  28.639   4.653  0.00  0.00    +0.359 C 
BRANCH  11  12
ATOM     12  O   UNL     1     -30.969  28.023   4.686  0.00  0.00    -0.478 OA
ATOM     13  H   UNL     1     -30.345  28.178   4.004  0.00  0.00    +0.295 HD
ENDBRANCH  11  12
ENDBRANCH   9  11
ENDBRANCH   8   9
ENDBRANCH   7   8
ENDBRANCH   1   2
BRANCH   1  14
ATOM     14  C   UNL     1     -34.914  21.402   4.756  0.00  0.00    +0.096 C 
BRANCH  14  15
ATOM     15  N   UNL     1     -35.861  20.683   3.876  0.00  0.00    -0.179 NA
ATOM     16  H   UNL     1     -35.696  19.687   4.017  0.00  0.00    +0.149 HD
BRANCH  15  17
ATOM     17  S   UNL     1     -35.832  20.954   2.199  0.00  0.00    +0.060 S 
ATOM     18  O   UNL     1     -36.745  20.034   1.546  0.00  0.00    -0.153 OA
ATOM     19  O   UNL     1     -34.452  21.044   1.762  0.00  0.00    -0.153 OA
BRANCH  17  20
ATOM     20  C   UNL     1     -36.518  22.578   2.080  0.00  0.00    +0.122 C 
ATOM     21  C   UNL     1     -35.747  23.599   1.550  0.00  0.00    +0.020 C 
ATOM     22  C   UNL     1     -37.811  22.800   2.520  0.00  0.00    +0.020 C 
ATOM     23  C   UNL     1     -36.289  24.881   1.457  0.00  0.00    +0.001 C 
ATOM     24  C   UNL     1     -38.352  24.083   2.427  0.00  0.00    +0.001 C 
ATOM     25  C   UNL     1     -37.590  25.123   1.895  0.00  0.00    +0.000 C 
ENDBRANCH  17  20
ENDBRANCH  15  17
ENDBRANCH  14  15
ENDBRANCH   1  14
TORSDOF 9
ENDMDL
MODEL 5
REMARK VINA RESULT:      -5.3      2.902      6.945
REMARK  Name = 51550
REMARK  9 active torsions:
REMARK  status: ('A' for Active; 'I' for Inactive)
REMARK    1  A    between atoms: C_1  and  C_2
REMARK    2  A    between atoms: C_1  and  C_14
REMARK    3  A    between atoms: C_7  and  O_8
REMARK    4  A    between atoms: O_8  and  C_9
REMARK    5  A    between atoms: C_9  and  C_11
REMARK    6  A    between atoms: C_11  and  O_12
REMARK    7  A    between atoms: C_14  and  N_15
REMARK    8  A    between atoms: N_15  and  S_17
REMARK    9  A    between atoms: S_17  and  C_20
REMARK                            x       y       z     vdW  Elec       q    Type
REMARK                         _______ _______ _______ _____ _____    ______ ____
ROOT
ATOM      1  C   UNL     1     -35.620  25.676   5.671  0.00  0.00    +0.045 C 
ENDROOT
BRANCH   1   2
ATOM      2  C   UNL     1     -36.146  24.648   4.730  0.00  0.00    -0.021 C 
ATOM      3  C   UNL     1     -37.320  24.891   4.017  0.00  0.00    -0.001 C 
ATOM      4  C   UNL     1     -35.465  23.442   4.562  0.00  0.00    -0.001 C 
ATOM      5  C   UNL     1     -37.813  23.928   3.136  0.00  0.00    +0.037 C 
ATOM      6  C   UNL     1     -35.958  22.478   3.682  0.00  0.00    +0.037 C 
ATOM      7  C   UNL     1     -37.132  22.721   2.969  0.00  0.00    +0.139 C 
BRANCH   7   8
ATOM      8  O   UNL     1     -37.613  21.783   2.109  0.00  0.00    -0.464 OA
BRANCH   8   9
ATOM      9  C   UNL     1     -38.568  22.217   1.142  0.00  0.00    +0.314 C 
BRANCH   9  11
ATOM     10  O   UNL     1     -40.083  20.663   0.049  0.00  0.00    -0.246 OA
ATOM     11  C   UNL     1     -39.698  21.228   1.062  0.00  0.00    +0.359 C 
BRANCH  11  12
ATOM     12  O   UNL     1     -40.246  21.041   2.289  0.00  0.00    -0.478 OA
ATOM     13  H   UNL     1     -41.177  21.039   2.391  0.00  0.00    +0.295 HD
ENDBRANCH  11  12
ENDBRANCH   9  11
ENDBRANCH   8   9
ENDBRANCH   7   8
ENDBRANCH   1   2
BRANCH   1  14
ATOM     14  C   UNL     1     -34.091  25.803   5.655  0.00  0.00    +0.096 C 
BRANCH  14  15
ATOM     15  N   UNL     1     -33.699  27.221   5.502  0.00  0.00    -0.179 NA
ATOM     16  H   UNL     1     -34.550  27.775   5.600  0.00  0.00    +0.149 HD
BRANCH  15  17
ATOM     17  S   UNL     1     -32.937  27.741   4.075  0.00  0.00    +0.060 S 
ATOM     18  O   UNL     1     -31.553  27.306   4.082  0.00  0.00    -0.153 OA
ATOM     19  O   UNL     1     -33.262  29.137   3.851  0.00  0.00    -0.153 OA
BRANCH  17  20
ATOM     20  C   UNL     1     -33.795  26.808   2.843  0.00  0.00    +0.122 C 
ATOM     21  C   UNL     1     -33.262  25.604   2.416  0.00  0.00    +0.020 C 
ATOM     22  C   UNL     1     -34.982  27.299   2.329  0.00  0.00    +0.020 C 
ATOM     23  C   UNL     1     -33.939  24.868   1.443  0.00  0.00    +0.001 C 
ATOM     24  C   UNL     1     -35.659  26.563   1.355  0.00  0.00    +0.001 C 
ATOM     25  C   UNL     1     -35.137  25.348   0.913  0.00  0.00    +0.000 C 
ENDBRANCH  17  20
ENDBRANCH  15  17
ENDBRANCH  14  15
ENDBRANCH   1  14
TORSDOF 9
ENDMDL
MODEL 6
REMARK VINA RESULT:      -5.3      1.983      3.378
REMARK  Name = 51550
REMARK  9 active torsions:
REMARK  status: ('A' for Active; 'I' for Inactive)
REMARK    1  A    between atoms: C_1  and  C_2
REMARK    2  A    between atoms: C_1  and  C_14
REMARK    3  A    between atoms: C_7  and  O_8
REMARK    4  A    between atoms: O_8  and  C_9
REMARK    5  A    between atoms: C_9  and  C_11
REMARK    6  A    between atoms: C_11  and  O_12
REMARK    7  A    between atoms: C_14  and  N_15
REMARK    8  A    between atoms: N_15  and  S_17
REMARK    9  A    between atoms: S_17  and  C_20
REMARK                            x       y       z     vdW  Elec       q    Type
REMARK                         _______ _______ _______ _____ _____    ______ ____
ROOT
ATOM      1  C   UNL     1     -35.606  25.269   0.660  0.00  0.00    +0.045 C 
ENDROOT
BRANCH   1   2
ATOM      2  C   UNL     1     -34.929  26.182   1.625  0.00  0.00    -0.021 C 
ATOM      3  C   UNL     1     -35.459  27.447   1.879  0.00  0.00    -0.001 C 
ATOM      4  C   UNL     1     -33.765  25.770   2.275  0.00  0.00    -0.001 C 
ATOM      5  C   UNL     1     -34.825  28.301   2.782  0.00  0.00    +0.037 C 
ATOM      6  C   UNL     1     -33.130  26.624   3.177  0.00  0.00    +0.037 C 
ATOM      7  C   UNL     1     -33.661  27.889   3.431  0.00  0.00    +0.139 C 
BRANCH   7   8
ATOM      8  O   UNL     1     -33.043  28.722   4.312  0.00  0.00    -0.464 OA
BRANCH   8   9
ATOM      9  C   UNL     1     -31.820  28.266   4.888  0.00  0.00    +0.314 C 
BRANCH   9  11
ATOM     10  O   UNL     1     -31.811  29.337   7.069  0.00  0.00    -0.246 OA
ATOM     11  C   UNL     1     -31.909  28.327   6.388  0.00  0.00    +0.359 C 
BRANCH  11  12
ATOM     12  O   UNL     1     -32.118  27.087   6.896  0.00  0.00    -0.478 OA
ATOM     13  H   UNL     1     -31.809  26.333   6.433  0.00  0.00    +0.295 HD
ENDBRANCH  11  12
ENDBRANCH   9  11
ENDBRANCH   8   9
ENDBRANCH   7   8
ENDBRANCH   1   2
BRANCH   1  14
ATOM     14  C   UNL     1     -37.122  25.481   0.571  0.00  0.00    +0.096 C 
BRANCH  14  15
ATOM     15  N   UNL     1     -37.825  24.496   1.423  0.00  0.00    -0.179 NA
ATOM     16  H   UNL     1     -38.620  24.155   0.883  0.00  0.00    +0.149 HD
BRANCH  15  17
ATOM     17  S   UNL     1     -38.427  24.966   2.941  0.00  0.00    +0.060 S 
ATOM     18  O   UNL     1     -39.470  24.044   3.352  0.00  0.00    -0.153 OA
ATOM     19  O   UNL     1     -38.681  26.394   2.924  0.00  0.00    -0.153 OA
BRANCH  17  20
ATOM     20  C   UNL     1     -37.025  24.704   3.985  0.00  0.00    +0.122 C 
ATOM     21  C   UNL     1     -36.346  23.500   3.913  0.00  0.00    +0.020 C 
ATOM     22  C   UNL     1     -36.635  25.705   4.856  0.00  0.00    +0.020 C 
ATOM     23  C   UNL     1     -35.240  23.293   4.738  0.00  0.00    +0.001 C 
ATOM     24  C   UNL     1     -35.529  25.498   5.682  0.00  0.00    +0.001 C 
ATOM     25  C   UNL     1     -34.833  24.291   5.622  0.00  0.00    +0.000 C 
ENDBRANCH  17  20
ENDBRANCH  15  17
ENDBRANCH  14  15
ENDBRANCH   1  14
TORSDOF 9
ENDMDL
MODEL 7
REMARK VINA RESULT:      -5.3      2.298      3.312
REMARK  Name = 51550
REMARK  9 active torsions:
REMARK  status: ('A' for Active; 'I' for Inactive)
REMARK    1  A    between atoms: C_1  and  C_2
REMARK    2  A    between atoms: C_1  and  C_14
REMARK    3  A    between atoms: C_7  and  O_8
REMARK    4  A    between atoms: O_8  and  C_9
REMARK    5  A    between atoms: C_9  and  C_11
REMARK    6  A    between atoms: C_11  and  O_12
REMARK    7  A    between atoms: C_14  and  N_15
REMARK    8  A    between atoms: N_15  and  S_17
REMARK    9  A    between atoms: S_17  and  C_20
REMARK                            x       y       z     vdW  Elec       q    Type
REMARK                         _______ _______ _______ _____ _____    ______ ____
ROOT
ATOM      1  C   UNL     1     -35.672  22.551   5.500  0.00  0.00    +0.045 C 
ENDROOT
BRANCH   1   2
ATOM      2  C   UNL     1     -35.366  23.952   5.096  0.00  0.00    -0.021 C 
ATOM      3  C   UNL     1     -36.355  24.933   5.174  0.00  0.00    -0.001 C 
ATOM      4  C   UNL     1     -34.090  24.284   4.640  0.00  0.00    -0.001 C 
ATOM      5  C   UNL     1     -36.069  26.245   4.796  0.00  0.00    +0.037 C 
ATOM      6  C   UNL     1     -33.803  25.596   4.261  0.00  0.00    +0.037 C 
ATOM      7  C   UNL     1     -34.793  26.576   4.339  0.00  0.00    +0.139 C 
BRANCH   7   8
ATOM      8  O   UNL     1     -34.514  27.856   3.970  0.00  0.00    -0.464 OA
BRANCH   8   9
ATOM      9  C   UNL     1     -34.494  28.139   2.572  0.00  0.00    +0.314 C 
BRANCH   9  11
ATOM     10  O   UNL     1     -36.677  28.424   1.545  0.00  0.00    -0.246 OA
ATOM     11  C   UNL     1     -35.742  28.882   2.184  0.00  0.00    +0.359 C 
BRANCH  11  12
ATOM     12  O   UNL     1     -35.692  30.156   2.649  0.00  0.00    -0.478 OA
ATOM     13  H   UNL     1     -34.908  30.479   3.048  0.00  0.00    +0.295 HD
ENDBRANCH  11  12
ENDBRANCH   9  11
ENDBRANCH   8   9
ENDBRANCH   7   8
ENDBRANCH   1   2
BRANCH   1  14
ATOM     14  C   UNL     1     -34.881  21.496   4.716  0.00  0.00    +0.096 C 
BRANCH  14  15
ATOM     15  N   UNL     1     -35.800  20.679   3.892  0.00  0.00    -0.179 NA
ATOM     16  H   UNL     1     -35.731  19.722   4.236  0.00  0.00    +0.149 HD
BRANCH  15  17
ATOM     17  S   UNL     1     -35.592  20.611   2.206  0.00  0.00    +0.060 S 
ATOM     18  O   UNL     1     -36.727  19.935   1.607  0.00  0.00    -0.153 OA
ATOM     19  O   UNL     1     -34.242  20.164   1.918  0.00  0.00    -0.153 OA
BRANCH  17  20
ATOM     20  C   UNL     1     -35.676  22.319   1.759  0.00  0.00    +0.122 C 
ATOM     21  C   UNL     1     -34.550  22.938   1.245  0.00  0.00    +0.020 C 
ATOM     22  C   UNL     1     -36.865  23.005   1.933  0.00  0.00    +0.020 C 
ATOM     23  C   UNL     1     -34.616  24.286   0.894  0.00  0.00    +0.001 C 
ATOM     24  C   UNL     1     -36.931  24.354   1.581  0.00  0.00    +0.001 C 
ATOM     25  C   UNL     1     -35.806  24.994   1.062  0.00  0.00    +0.000 C 
ENDBRANCH  17  20
ENDBRANCH  15  17
ENDBRANCH  14  15
ENDBRANCH   1  14
TORSDOF 9
ENDMDL
MODEL 8
REMARK VINA RESULT:      -5.3      2.577      4.537
REMARK  Name = 51550
REMARK  9 active torsions:
REMARK  status: ('A' for Active; 'I' for Inactive)
REMARK    1  A    between atoms: C_1  and  C_2
REMARK    2  A    between atoms: C_1  and  C_14
REMARK    3  A    between atoms: C_7  and  O_8
REMARK    4  A    between atoms: O_8  and  C_9
REMARK    5  A    between atoms: C_9  and  C_11
REMARK    6  A    between atoms: C_11  and  O_12
REMARK    7  A    between atoms: C_14  and  N_15
REMARK    8  A    between atoms: N_15  and  S_17
REMARK    9  A    between atoms: S_17  and  C_20
REMARK                            x       y       z     vdW  Elec       q    Type
REMARK                         _______ _______ _______ _____ _____    ______ ____
ROOT
ATOM      1  C   UNL     1     -39.195  21.985   1.960  0.00  0.00    +0.045 C 
ENDROOT
BRANCH   1   2
ATOM      2  C   UNL     1     -38.790  23.418   1.917  0.00  0.00    -0.021 C 
ATOM      3  C   UNL     1     -38.090  23.912   0.816  0.00  0.00    -0.001 C 
ATOM      4  C   UNL     1     -39.112  24.267   2.977  0.00  0.00    -0.001 C 
ATOM      5  C   UNL     1     -37.711  25.254   0.775  0.00  0.00    +0.037 C 
ATOM      6  C   UNL     1     -38.732  25.608   2.937  0.00  0.00    +0.037 C 
ATOM      7  C   UNL     1     -38.031  26.102   1.836  0.00  0.00    +0.139 C 
BRANCH   7   8
ATOM      8  O   UNL     1     -37.662  27.411   1.796  0.00  0.00    -0.464 OA
BRANCH   8   9
ATOM      9  C   UNL     1     -36.388  27.708   1.225  0.00  0.00    +0.314 C 
BRANCH   9  11
ATOM     10  O   UNL     1     -34.347  26.757   2.139  0.00  0.00    -0.246 OA
ATOM     11  C   UNL     1     -35.309  27.502   2.253  0.00  0.00    +0.359 C 
BRANCH  11  12
ATOM     12  O   UNL     1     -35.550  28.268   3.346  0.00  0.00    -0.478 OA
ATOM     13  H   UNL     1     -35.221  28.006   4.183  0.00  0.00    +0.295 HD
ENDBRANCH  11  12
ENDBRANCH   9  11
ENDBRANCH   8   9
ENDBRANCH   7   8
ENDBRANCH   1   2
BRANCH   1  14
ATOM     14  C   UNL     1     -38.171  21.035   1.327  0.00  0.00    +0.096 C 
BRANCH  14  15
ATOM     15  N   UNL     1     -37.221  20.553   2.354  0.00  0.00    -0.179 NA
ATOM     16  H   UNL     1     -37.584  20.857   3.257  0.00  0.00    +0.149 HD
BRANCH  15  17
ATOM     17  S   UNL     1     -35.592  21.034   2.292  0.00  0.00    +0.060 S 
ATOM     18  O   UNL     1     -35.361  21.803   1.084  0.00  0.00    -0.153 OA
ATOM     19  O   UNL     1     -34.753  19.891   2.601  0.00  0.00    -0.153 OA
BRANCH  17  20
ATOM     20  C   UNL     1     -35.485  22.138   3.669  0.00  0.00    +0.122 C 
ATOM     21  C   UNL     1     -35.482  23.503   3.440  0.00  0.00    +0.020 C 
ATOM     22  C   UNL     1     -35.406  21.617   4.948  0.00  0.00    +0.020 C 
ATOM     23  C   UNL     1     -35.398  24.374   4.526  0.00  0.00    +0.001 C 
ATOM     24  C   UNL     1     -35.320  22.488   6.035  0.00  0.00    +0.001 C 
ATOM     25  C   UNL     1     -35.316  23.866   5.823  0.00  0.00    +0.000 C 
ENDBRANCH  17  20
ENDBRANCH  15  17
ENDBRANCH  14  15
ENDBRANCH   1  14
TORSDOF 9
ENDMDL
MODEL 9
REMARK VINA RESULT:      -5.2      1.819      2.949
REMARK  Name = 51550
REMARK  9 active torsions:
REMARK  status: ('A' for Active; 'I' for Inactive)
REMARK    1  A    between atoms: C_1  and  C_2
REMARK    2  A    between atoms: C_1  and  C_14
REMARK    3  A    between atoms: C_7  and  O_8
REMARK    4  A    between atoms: O_8  and  C_9
REMARK    5  A    between atoms: C_9  and  C_11
REMARK    6  A    between atoms: C_11  and  O_12
REMARK    7  A    between atoms: C_14  and  N_15
REMARK    8  A    between atoms: N_15  and  S_17
REMARK    9  A    between atoms: S_17  and  C_20
REMARK                            x       y       z     vdW  Elec       q    Type
REMARK                         _______ _______ _______ _____ _____    ______ ____
ROOT
ATOM      1  C   UNL     1     -34.759  24.638   0.695  0.00  0.00    +0.045 C 
ENDROOT
BRANCH   1   2
ATOM      2  C   UNL     1     -34.377  25.667   1.704  0.00  0.00    -0.021 C 
ATOM      3  C   UNL     1     -33.260  25.468   2.515  0.00  0.00    -0.001 C 
ATOM      4  C   UNL     1     -35.138  26.829   1.837  0.00  0.00    -0.001 C 
ATOM      5  C   UNL     1     -32.903  26.431   3.460  0.00  0.00    +0.037 C 
ATOM      6  C   UNL     1     -34.782  27.791   2.782  0.00  0.00    +0.037 C 
ATOM      7  C   UNL     1     -33.665  27.592   3.594  0.00  0.00    +0.139 C 
BRANCH   7   8
ATOM      8  O   UNL     1     -33.317  28.531   4.515  0.00  0.00    -0.464 OA
BRANCH   8   9
ATOM      9  C   UNL     1     -31.949  28.567   4.920  0.00  0.00    +0.314 C 
BRANCH   9  11
ATOM     10  O   UNL     1     -31.690  29.447   7.170  0.00  0.00    -0.246 OA
ATOM     11  C   UNL     1     -31.859  28.498   6.419  0.00  0.00    +0.359 C 
BRANCH  11  12
ATOM     12  O   UNL     1     -31.993  27.214   6.838  0.00  0.00    -0.478 OA
ATOM     13  H   UNL     1     -31.560  26.523   6.376  0.00  0.00    +0.295 HD
ENDBRANCH  11  12
ENDBRANCH   9  11
ENDBRANCH   8   9
ENDBRANCH   7   8
ENDBRANCH   1   2
BRANCH   1  14
ATOM     14  C   UNL     1     -34.540  23.197   1.171  0.00  0.00    +0.096 C 
BRANCH  14  15
ATOM     15  N   UNL     1     -35.812  22.443   1.113  0.00  0.00    -0.179 NA
ATOM     16  H   UNL     1     -36.512  23.075   0.723  0.00  0.00    +0.149 HD
BRANCH  15  17
ATOM     17  S   UNL     1     -36.477  21.791   2.535  0.00  0.00    +0.060 S 
ATOM     18  O   UNL     1     -35.669  20.669   2.974  0.00  0.00    -0.153 OA
ATOM     19  O   UNL     1     -37.907  21.635   2.356  0.00  0.00    -0.153 OA
BRANCH  17  20
ATOM     20  C   UNL     1     -36.243  23.113   3.685  0.00  0.00    +0.122 C 
ATOM     21  C   UNL     1     -35.228  23.022   4.622  0.00  0.00    +0.020 C 
ATOM     22  C   UNL     1     -37.080  24.213   3.629  0.00  0.00    +0.020 C 
ATOM     23  C   UNL     1     -35.044  24.064   5.530  0.00  0.00    +0.001 C 
ATOM     24  C   UNL     1     -36.897  25.257   4.538  0.00  0.00    +0.001 C 
ATOM     25  C   UNL     1     -35.878  25.181   5.488  0.00  0.00    +0.000 C 
ENDBRANCH  17  20
ENDBRANCH  15  17
ENDBRANCH  14  15
ENDBRANCH   1  14
TORSDOF 9
ENDMDL
