MODEL 1
REMARK VINA RESULT:      -5.8      0.000      0.000
REMARK  Name = 198689
REMARK  5 active torsions:
REMARK  status: ('A' for Active; 'I' for Inactive)
REMARK    1  A    between atoms: N_2  and  C1*_13
REMARK    2  A    between atoms: C_9  and  N_22
REMARK    3  A    between atoms: C3*_14  and  O3*_17
REMARK    4  A    between atoms: C4*_16  and  C5*_19
REMARK    5  A    between atoms: C5*_19  and  O5*_20
REMARK                            x       y       z     vdW  Elec       q    Type
REMARK                         _______ _______ _______ _____ _____    ______ ____
ROOT
ATOM      1  O   UNL     1     -40.438  22.020   1.115  0.00  0.00    -0.193 OA
ATOM      2  N   UNL     1     -36.417  23.146   3.294  0.00  0.00    -0.238 N 
ATOM      3  N   UNL     1     -35.388  21.193   2.750  0.00  0.00    -0.245 NA
ATOM      4  N   UNL     1     -38.584  22.759   2.233  0.00  0.00    -0.305 NA
ATOM      5  N   UNL     1     -38.636  20.625   1.141  0.00  0.00    -0.235 N 
ATOM      6  C   UNL     1     -37.376  22.469   2.572  0.00  0.00    +0.217 C 
ATOM      7  C   UNL     1     -35.301  22.348   3.366  0.00  0.00    +0.223 C 
ATOM      8  C   UNL     1     -36.674  21.197   2.222  0.00  0.00    +0.134 C 
ATOM      9  C   UNL     1     -37.342  20.293   1.499  0.00  0.00    +0.180 C 
ATOM     10  C   UNL     1     -39.278  21.821   1.483  0.00  0.00    +0.268 C 
ATOM     11  H   UNL     1     -39.143  19.973   0.607  0.00  0.00    +0.162 HD
ENDROOT
BRANCH   2  13
ATOM     12  O4* UNL     1     -35.989  25.478   3.179  0.00  0.00    -0.335 OA
ATOM     13  C1* UNL     1     -36.589  24.420   3.944  0.00  0.00    +0.198 C 
ATOM     14  C3* UNL     1     -35.545  25.884   5.473  0.00  0.00    +0.144 C 
ATOM     15  C2* UNL     1     -35.922  24.430   5.311  0.00  0.00    +0.083 C 
ATOM     16  C4* UNL     1     -35.193  26.303   4.053  0.00  0.00    +0.173 C 
BRANCH  14  17
ATOM     17  O3* UNL     1     -36.688  26.625   5.897  0.00  0.00    -0.382 OA
ATOM     18  H3* UNL     1     -37.017  27.163   5.161  0.00  0.00    +0.210 HD
ENDBRANCH  14  17
BRANCH  16  19
ATOM     19  C5* UNL     1     -33.728  26.070   3.711  0.00  0.00    +0.169 C 
BRANCH  19  20
ATOM     20  O5* UNL     1     -32.938  26.368   4.850  0.00  0.00    -0.379 OA
ATOM     21  H5* UNL     1     -33.475  26.269   5.651  0.00  0.00    +0.211 HD
ENDBRANCH  19  20
ENDBRANCH  16  19
ENDBRANCH   2  13
BRANCH   9  22
ATOM     22  N   UNL     1     -36.800  19.096   1.122  0.00  0.00    -0.301 NA
ATOM     23  H   UNL     1     -37.255  18.254   1.354  0.00  0.00    +0.121 HD
ATOM     24  H   UNL     1     -35.954  19.077   0.619  0.00  0.00    +0.121 HD
ENDBRANCH   9  22
TORSDOF 5
ENDMDL
MODEL 2
REMARK VINA RESULT:      -5.8      2.061      3.141
REMARK  Name = 198689
REMARK  5 active torsions:
REMARK  status: ('A' for Active; 'I' for Inactive)
REMARK    1  A    between atoms: N_2  and  C1*_13
REMARK    2  A    between atoms: C_9  and  N_22
REMARK    3  A    between atoms: C3*_14  and  O3*_17
REMARK    4  A    between atoms: C4*_16  and  C5*_19
REMARK    5  A    between atoms: C5*_19  and  O5*_20
REMARK                            x       y       z     vdW  Elec       q    Type
REMARK                         _______ _______ _______ _____ _____    ______ ____
ROOT
ATOM      1  O   UNL     1     -36.241  19.481   1.120  0.00  0.00    -0.193 OA
ATOM      2  N   UNL     1     -37.395  23.623   3.043  0.00  0.00    -0.238 N 
ATOM      3  N   UNL     1     -39.564  23.512   2.372  0.00  0.00    -0.245 NA
ATOM      4  N   UNL     1     -36.588  21.510   2.118  0.00  0.00    -0.305 NA
ATOM      5  N   UNL     1     -38.352  20.331   1.003  0.00  0.00    -0.235 N 
ATOM      6  C   UNL     1     -37.462  22.420   2.373  0.00  0.00    +0.217 C 
ATOM      7  C   UNL     1     -38.640  24.203   2.994  0.00  0.00    +0.223 C 
ATOM      8  C   UNL     1     -38.894  22.369   1.950  0.00  0.00    +0.134 C 
ATOM      9  C   UNL     1     -39.305  21.299   1.262  0.00  0.00    +0.180 C 
ATOM     10  C   UNL     1     -37.012  20.399   1.404  0.00  0.00    +0.268 C 
ATOM     11  H   UNL     1     -38.636  19.534   0.500  0.00  0.00    +0.162 HD
ENDROOT
BRANCH   2  13
ATOM     12  O4* UNL     1     -35.216  23.213   3.893  0.00  0.00    -0.335 OA
ATOM     13  C1* UNL     1     -36.208  24.214   3.605  0.00  0.00    +0.198 C 
ATOM     14  C3* UNL     1     -35.213  24.785   5.667  0.00  0.00    +0.144 C 
ATOM     15  C2* UNL     1     -36.517  24.918   4.917  0.00  0.00    +0.083 C 
ATOM     16  C4* UNL     1     -34.703  23.422   5.223  0.00  0.00    +0.173 C 
BRANCH  14  17
ATOM     17  O3* UNL     1     -34.302  25.784   5.213  0.00  0.00    -0.382 OA
ATOM     18  H3* UNL     1     -33.974  26.292   5.972  0.00  0.00    +0.210 HD
ENDBRANCH  14  17
BRANCH  16  19
ATOM     19  C5* UNL     1     -35.203  22.284   6.102  0.00  0.00    +0.169 C 
BRANCH  19  20
ATOM     20  O5* UNL     1     -35.563  21.191   5.274  0.00  0.00    -0.379 OA
ATOM     21  H5* UNL     1     -36.473  20.919   5.475  0.00  0.00    +0.211 HD
ENDBRANCH  19  20
ENDBRANCH  16  19
ENDBRANCH   2  13
BRANCH   9  22
ATOM     22  N   UNL     1     -40.591  21.146   0.825  0.00  0.00    -0.301 NA
ATOM     23  H   UNL     1     -41.296  20.873   1.455  0.00  0.00    +0.121 HD
ATOM     24  H   UNL     1     -40.812  21.311  -0.120  0.00  0.00    +0.121 HD
ENDBRANCH   9  22
TORSDOF 5
ENDMDL
MODEL 3
REMARK VINA RESULT:      -5.6      1.672      2.687
REMARK  Name = 198689
REMARK  5 active torsions:
REMARK  status: ('A' for Active; 'I' for Inactive)
REMARK    1  A    between atoms: N_2  and  C1*_13
REMARK    2  A    between atoms: C_9  and  N_22
REMARK    3  A    between atoms: C3*_14  and  O3*_17
REMARK    4  A    between atoms: C4*_16  and  C5*_19
REMARK    5  A    between atoms: C5*_19  and  O5*_20
REMARK                            x       y       z     vdW  Elec       q    Type
REMARK                         _______ _______ _______ _____ _____    ______ ____
ROOT
ATOM      1  O   UNL     1     -40.079  25.236   3.213  0.00  0.00    -0.193 OA
ATOM      2  N   UNL     1     -36.182  22.631   2.753  0.00  0.00    -0.238 N 
ATOM      3  N   UNL     1     -37.280  20.860   1.845  0.00  0.00    -0.245 NA
ATOM      4  N   UNL     1     -38.075  24.141   3.083  0.00  0.00    -0.305 NA
ATOM      5  N   UNL     1     -40.116  23.138   2.324  0.00  0.00    -0.235 N 
ATOM      6  C   UNL     1     -37.495  23.052   2.717  0.00  0.00    +0.217 C 
ATOM      7  C   UNL     1     -36.134  21.356   2.244  0.00  0.00    +0.223 C 
ATOM      8  C   UNL     1     -38.190  21.876   2.112  0.00  0.00    +0.134 C 
ATOM      9  C   UNL     1     -39.512  21.958   1.929  0.00  0.00    +0.180 C 
ATOM     10  C   UNL     1     -39.447  24.228   2.894  0.00  0.00    +0.268 C 
ATOM     11  H   UNL     1     -41.088  23.219   2.195  0.00  0.00    +0.162 HD
ENDROOT
BRANCH   2  13
ATOM     12  O4* UNL     1     -35.202  23.476   4.744  0.00  0.00    -0.335 OA
ATOM     13  C1* UNL     1     -35.075  23.360   3.316  0.00  0.00    +0.198 C 
ATOM     14  C3* UNL     1     -34.391  25.540   3.907  0.00  0.00    +0.144 C 
ATOM     15  C2* UNL     1     -35.015  24.775   2.763  0.00  0.00    +0.083 C 
ATOM     16  C4* UNL     1     -34.962  24.842   5.133  0.00  0.00    +0.173 C 
BRANCH  14  17
ATOM     17  O3* UNL     1     -32.978  25.350   3.890  0.00  0.00    -0.382 OA
ATOM     18  H3* UNL     1     -32.541  26.132   4.261  0.00  0.00    +0.210 HD
ENDBRANCH  14  17
BRANCH  16  19
ATOM     19  C5* UNL     1     -36.285  25.437   5.593  0.00  0.00    +0.169 C 
BRANCH  19  20
ATOM     20  O5* UNL     1     -36.345  26.793   5.183  0.00  0.00    -0.379 OA
ATOM     21  H5* UNL     1     -35.718  26.940   4.458  0.00  0.00    +0.211 HD
ENDBRANCH  19  20
ENDBRANCH  16  19
ENDBRANCH   2  13
BRANCH   9  22
ATOM     22  N   UNL     1     -40.251  20.945   1.385  0.00  0.00    -0.301 NA
ATOM     23  H   UNL     1     -40.641  21.047   0.487  0.00  0.00    +0.121 HD
ATOM     24  H   UNL     1     -40.392  20.113   1.892  0.00  0.00    +0.121 HD
ENDBRANCH   9  22
TORSDOF 5
ENDMDL
MODEL 4
REMARK VINA RESULT:      -5.6      2.346      3.564
REMARK  Name = 198689
REMARK  5 active torsions:
REMARK  status: ('A' for Active; 'I' for Inactive)
REMARK    1  A    between atoms: N_2  and  C1*_13
REMARK    2  A    between atoms: C_9  and  N_22
REMARK    3  A    between atoms: C3*_14  and  O3*_17
REMARK    4  A    between atoms: C4*_16  and  C5*_19
REMARK    5  A    between atoms: C5*_19  and  O5*_20
REMARK                            x       y       z     vdW  Elec       q    Type
REMARK                         _______ _______ _______ _____ _____    ______ ____
ROOT
ATOM      1  O   UNL     1     -33.206  18.648   1.326  0.00  0.00    -0.193 OA
ATOM      2  N   UNL     1     -36.199  21.948   2.854  0.00  0.00    -0.238 N 
ATOM      3  N   UNL     1     -37.943  21.164   1.623  0.00  0.00    -0.245 NA
ATOM      4  N   UNL     1     -34.490  20.333   2.187  0.00  0.00    -0.305 NA
ATOM      5  N   UNL     1     -35.377  18.731   0.641  0.00  0.00    -0.235 N 
ATOM      6  C   UNL     1     -35.663  20.862   2.194  0.00  0.00    +0.217 C 
ATOM      7  C   UNL     1     -37.513  22.068   2.469  0.00  0.00    +0.223 C 
ATOM      8  C   UNL     1     -36.828  20.364   1.401  0.00  0.00    +0.134 C 
ATOM      9  C   UNL     1     -36.644  19.287   0.630  0.00  0.00    +0.180 C 
ATOM     10  C   UNL     1     -34.298  19.216   1.388  0.00  0.00    +0.268 C 
ATOM     11  H   UNL     1     -35.223  17.936   0.082  0.00  0.00    +0.162 HD
ENDROOT
BRANCH   2  13
ATOM     12  O4* UNL     1     -36.376  23.536   4.609  0.00  0.00    -0.335 OA
ATOM     13  C1* UNL     1     -35.482  22.853   3.713  0.00  0.00    +0.198 C 
ATOM     14  C3* UNL     1     -34.753  25.094   3.861  0.00  0.00    +0.144 C 
ATOM     15  C2* UNL     1     -34.768  23.924   2.904  0.00  0.00    +0.083 C 
ATOM     16  C4* UNL     1     -36.077  24.945   4.597  0.00  0.00    +0.173 C 
BRANCH  14  17
ATOM     17  O3* UNL     1     -33.690  24.927   4.796  0.00  0.00    -0.382 OA
ATOM     18  H3* UNL     1     -34.050  24.639   5.648  0.00  0.00    +0.210 HD
ENDBRANCH  14  17
BRANCH  16  19
ATOM     19  C5* UNL     1     -37.227  25.662   3.902  0.00  0.00    +0.169 C 
BRANCH  19  20
ATOM     20  O5* UNL     1     -38.432  24.966   4.176  0.00  0.00    -0.379 OA
ATOM     21  H5* UNL     1     -38.458  24.148   3.654  0.00  0.00    +0.211 HD
ENDBRANCH  19  20
ENDBRANCH  16  19
ENDBRANCH   2  13
BRANCH   9  22
ATOM     22  N   UNL     1     -37.637  18.745  -0.137  0.00  0.00    -0.301 NA
ATOM     23  H   UNL     1     -37.409  18.200  -0.925  0.00  0.00    +0.121 HD
ATOM     24  H   UNL     1     -38.580  18.900   0.098  0.00  0.00    +0.121 HD
ENDBRANCH   9  22
TORSDOF 5
ENDMDL
MODEL 5
REMARK VINA RESULT:      -5.6      3.811      6.562
REMARK  Name = 198689
REMARK  5 active torsions:
REMARK  status: ('A' for Active; 'I' for Inactive)
REMARK    1  A    between atoms: N_2  and  C1*_13
REMARK    2  A    between atoms: C_9  and  N_22
REMARK    3  A    between atoms: C3*_14  and  O3*_17
REMARK    4  A    between atoms: C4*_16  and  C5*_19
REMARK    5  A    between atoms: C5*_19  and  O5*_20
REMARK                            x       y       z     vdW  Elec       q    Type
REMARK                         _______ _______ _______ _____ _____    ______ ____
ROOT
ATOM      1  O   UNL     1     -34.444  28.730   0.987  0.00  0.00    -0.193 OA
ATOM      2  N   UNL     1     -34.801  25.900   4.735  0.00  0.00    -0.238 N 
ATOM      3  N   UNL     1     -33.079  26.887   5.845  0.00  0.00    -0.245 NA
ATOM      4  N   UNL     1     -34.784  27.253   2.700  0.00  0.00    -0.305 NA
ATOM      5  N   UNL     1     -33.072  28.928   2.795  0.00  0.00    -0.235 N 
ATOM      6  C   UNL     1     -34.386  26.889   3.868  0.00  0.00    +0.217 C 
ATOM      7  C   UNL     1     -33.997  25.951   5.848  0.00  0.00    +0.223 C 
ATOM      8  C   UNL     1     -33.263  27.524   4.623  0.00  0.00    +0.134 C 
ATOM      9  C   UNL     1     -32.625  28.549   4.048  0.00  0.00    +0.180 C 
ATOM     10  C   UNL     1     -34.124  28.317   2.103  0.00  0.00    +0.268 C 
ATOM     11  H   UNL     1     -32.617  29.683   2.358  0.00  0.00    +0.162 HD
ENDROOT
BRANCH   2  13
ATOM     12  O4* UNL     1     -36.123  24.157   5.654  0.00  0.00    -0.335 OA
ATOM     13  C1* UNL     1     -35.827  24.924   4.475  0.00  0.00    +0.198 C 
ATOM     14  C3* UNL     1     -36.134  22.684   3.796  0.00  0.00    +0.144 C 
ATOM     15  C2* UNL     1     -35.383  23.936   3.407  0.00  0.00    +0.083 C 
ATOM     16  C4* UNL     1     -36.148  22.756   5.316  0.00  0.00    +0.173 C 
BRANCH  14  17
ATOM     17  O3* UNL     1     -37.476  22.770   3.323  0.00  0.00    -0.382 OA
ATOM     18  H3* UNL     1     -37.623  23.642   2.923  0.00  0.00    +0.210 HD
ENDBRANCH  14  17
BRANCH  16  19
ATOM     19  C5* UNL     1     -34.931  22.099   5.954  0.00  0.00    +0.169 C 
BRANCH  19  20
ATOM     20  O5* UNL     1     -35.073  20.691   5.868  0.00  0.00    -0.379 OA
ATOM     21  H5* UNL     1     -34.223  20.268   6.064  0.00  0.00    +0.211 HD
ENDBRANCH  19  20
ENDBRANCH  16  19
ENDBRANCH   2  13
BRANCH   9  22
ATOM     22  N   UNL     1     -31.585  29.205   4.645  0.00  0.00    -0.301 NA
ATOM     23  H   UNL     1     -31.532  29.254   5.627  0.00  0.00    +0.121 HD
ATOM     24  H   UNL     1     -30.888  29.627   4.093  0.00  0.00    +0.121 HD
ENDBRANCH   9  22
TORSDOF 5
ENDMDL
MODEL 6
REMARK VINA RESULT:      -5.5      2.888      4.444
REMARK  Name = 198689
REMARK  5 active torsions:
REMARK  status: ('A' for Active; 'I' for Inactive)
REMARK    1  A    between atoms: N_2  and  C1*_13
REMARK    2  A    between atoms: C_9  and  N_22
REMARK    3  A    between atoms: C3*_14  and  O3*_17
REMARK    4  A    between atoms: C4*_16  and  C5*_19
REMARK    5  A    between atoms: C5*_19  and  O5*_20
REMARK                            x       y       z     vdW  Elec       q    Type
REMARK                         _______ _______ _______ _____ _____    ______ ____
ROOT
ATOM      1  O   UNL     1     -34.802  21.812   6.343  0.00  0.00    -0.193 OA
ATOM      2  N   UNL     1     -34.617  25.631   3.593  0.00  0.00    -0.238 N 
ATOM      3  N   UNL     1     -36.407  25.010   2.336  0.00  0.00    -0.245 NA
ATOM      4  N   UNL     1     -34.533  23.730   5.126  0.00  0.00    -0.305 NA
ATOM      5  N   UNL     1     -36.288  22.167   4.653  0.00  0.00    -0.235 N 
ATOM      6  C   UNL     1     -34.998  24.428   4.150  0.00  0.00    +0.217 C 
ATOM      7  C   UNL     1     -35.467  25.899   2.547  0.00  0.00    +0.223 C 
ATOM      8  C   UNL     1     -36.175  24.048   3.312  0.00  0.00    +0.134 C 
ATOM      9  C   UNL     1     -36.800  22.900   3.598  0.00  0.00    +0.180 C 
ATOM     10  C   UNL     1     -35.180  22.539   5.423  0.00  0.00    +0.268 C 
ATOM     11  H   UNL     1     -36.737  21.321   4.880  0.00  0.00    +0.162 HD
ENDROOT
BRANCH   2  13
ATOM     12  O4* UNL     1     -33.864  27.728   4.413  0.00  0.00    -0.335 OA
ATOM     13  C1* UNL     1     -33.472  26.416   3.975  0.00  0.00    +0.198 C 
ATOM     14  C3* UNL     1     -31.893  27.944   3.113  0.00  0.00    +0.144 C 
ATOM     15  C2* UNL     1     -32.525  26.607   2.800  0.00  0.00    +0.083 C 
ATOM     16  C4* UNL     1     -33.031  28.712   3.769  0.00  0.00    +0.173 C 
BRANCH  14  17
ATOM     17  O3* UNL     1     -30.852  27.763   4.071  0.00  0.00    -0.382 OA
ATOM     18  H3* UNL     1     -31.230  27.770   4.964  0.00  0.00    +0.210 HD
ENDBRANCH  14  17
BRANCH  16  19
ATOM     19  C5* UNL     1     -33.891  29.471   2.768  0.00  0.00    +0.169 C 
BRANCH  19  20
ATOM     20  O5* UNL     1     -35.211  29.564   3.277  0.00  0.00    -0.379 OA
ATOM     21  H5* UNL     1     -35.774  28.908   2.837  0.00  0.00    +0.211 HD
ENDBRANCH  19  20
ENDBRANCH  16  19
ENDBRANCH   2  13
BRANCH   9  22
ATOM     22  N   UNL     1     -37.887  22.453   2.899  0.00  0.00    -0.301 NA
ATOM     23  H   UNL     1     -38.742  22.300   3.363  0.00  0.00    +0.121 HD
ATOM     24  H   UNL     1     -37.813  22.284   1.932  0.00  0.00    +0.121 HD
ENDBRANCH   9  22
TORSDOF 5
ENDMDL
MODEL 7
REMARK VINA RESULT:      -5.5      1.834      2.809
REMARK  Name = 198689
REMARK  5 active torsions:
REMARK  status: ('A' for Active; 'I' for Inactive)
REMARK    1  A    between atoms: N_2  and  C1*_13
REMARK    2  A    between atoms: C_9  and  N_22
REMARK    3  A    between atoms: C3*_14  and  O3*_17
REMARK    4  A    between atoms: C4*_16  and  C5*_19
REMARK    5  A    between atoms: C5*_19  and  O5*_20
REMARK                            x       y       z     vdW  Elec       q    Type
REMARK                         _______ _______ _______ _____ _____    ______ ____
ROOT
ATOM      1  O   UNL     1     -35.650  20.331   2.591  0.00  0.00    -0.193 OA
ATOM      2  N   UNL     1     -37.753  24.456   3.456  0.00  0.00    -0.238 N 
ATOM      3  N   UNL     1     -39.744  23.809   2.570  0.00  0.00    -0.245 NA
ATOM      4  N   UNL     1     -36.476  22.404   3.096  0.00  0.00    -0.305 NA
ATOM      5  N   UNL     1     -37.828  20.724   2.049  0.00  0.00    -0.235 N 
ATOM      6  C   UNL     1     -37.516  23.160   3.049  0.00  0.00    +0.217 C 
ATOM      7  C   UNL     1     -39.053  24.767   3.140  0.00  0.00    +0.223 C 
ATOM      8  C   UNL     1     -38.838  22.759   2.479  0.00  0.00    +0.134 C 
ATOM      9  C   UNL     1     -38.956  21.522   1.985  0.00  0.00    +0.180 C 
ATOM     10  C   UNL     1     -36.597  21.120   2.583  0.00  0.00    +0.268 C 
ATOM     11  H   UNL     1     -37.896  19.809   1.693  0.00  0.00    +0.162 HD
ENDROOT
BRANCH   2  13
ATOM     12  O4* UNL     1     -35.956  25.938   2.996  0.00  0.00    -0.335 OA
ATOM     13  C1* UNL     1     -36.780  25.357   4.020  0.00  0.00    +0.198 C 
ATOM     14  C3* UNL     1     -34.573  25.427   4.852  0.00  0.00    +0.144 C 
ATOM     15  C2* UNL     1     -35.848  24.626   4.974  0.00  0.00    +0.083 C 
ATOM     16  C4* UNL     1     -34.573  25.843   3.388  0.00  0.00    +0.173 C 
BRANCH  14  17
ATOM     17  O3* UNL     1     -34.670  26.598   5.660  0.00  0.00    -0.382 OA
ATOM     18  H3* UNL     1     -34.684  27.383   5.091  0.00  0.00    +0.210 HD
ENDBRANCH  14  17
BRANCH  16  19
ATOM     19  C5* UNL     1     -33.897  24.825   2.480  0.00  0.00    +0.169 C 
BRANCH  19  20
ATOM     20  O5* UNL     1     -34.765  24.530   1.398  0.00  0.00    -0.379 OA
ATOM     21  H5* UNL     1     -34.352  24.810   0.566  0.00  0.00    +0.211 HD
ENDBRANCH  19  20
ENDBRANCH  16  19
ENDBRANCH   2  13
BRANCH   9  22
ATOM     22  N   UNL     1     -40.116  21.048   1.440  0.00  0.00    -0.301 NA
ATOM     23  H   UNL     1     -40.099  20.586   0.570  0.00  0.00    +0.121 HD
ATOM     24  H   UNL     1     -40.968  21.167   1.917  0.00  0.00    +0.121 HD
ENDBRANCH   9  22
TORSDOF 5
ENDMDL
MODEL 8
REMARK VINA RESULT:      -5.4      2.583      3.668
REMARK  Name = 198689
REMARK  5 active torsions:
REMARK  status: ('A' for Active; 'I' for Inactive)
REMARK    1  A    between atoms: N_2  and  C1*_13
REMARK    2  A    between atoms: C_9  and  N_22
REMARK    3  A    between atoms: C3*_14  and  O3*_17
REMARK    4  A    between atoms: C4*_16  and  C5*_19
REMARK    5  A    between atoms: C5*_19  and  O5*_20
REMARK                            x       y       z     vdW  Elec       q    Type
REMARK                         _______ _______ _______ _____ _____    ______ ____
ROOT
ATOM      1  O   UNL     1     -39.630  27.261   1.214  0.00  0.00    -0.193 OA
ATOM      2  N   UNL     1     -37.170  23.585   2.832  0.00  0.00    -0.238 N 
ATOM      3  N   UNL     1     -38.677  22.048   2.097  0.00  0.00    -0.245 NA
ATOM      4  N   UNL     1     -38.287  25.623   2.078  0.00  0.00    -0.305 NA
ATOM      5  N   UNL     1     -40.338  25.112   0.949  0.00  0.00    -0.235 N 
ATOM      6  C   UNL     1     -38.147  24.354   2.235  0.00  0.00    +0.217 C 
ATOM      7  C   UNL     1     -37.547  22.267   2.724  0.00  0.00    +0.223 C 
ATOM      8  C   UNL     1     -39.117  23.323   1.756  0.00  0.00    +0.134 C 
ATOM      9  C   UNL     1     -40.209  23.745   1.112  0.00  0.00    +0.180 C 
ATOM     10  C   UNL     1     -39.420  26.063   1.410  0.00  0.00    +0.268 C 
ATOM     11  H   UNL     1     -41.135  25.442   0.475  0.00  0.00    +0.162 HD
ENDROOT
BRANCH   2  13
ATOM     12  O4* UNL     1     -35.165  23.001   3.960  0.00  0.00    -0.335 OA
ATOM     13  C1* UNL     1     -36.014  24.080   3.533  0.00  0.00    +0.198 C 
ATOM     14  C3* UNL     1     -35.238  24.613   5.698  0.00  0.00    +0.144 C 
ATOM     15  C2* UNL     1     -36.420  24.844   4.784  0.00  0.00    +0.083 C 
ATOM     16  C4* UNL     1     -34.806  23.198   5.342  0.00  0.00    +0.173 C 
BRANCH  14  17
ATOM     17  O3* UNL     1     -34.188  25.512   5.349  0.00  0.00    -0.382 OA
ATOM     18  H3* UNL     1     -34.566  26.317   4.962  0.00  0.00    +0.210 HD
ENDBRANCH  14  17
BRANCH  16  19
ATOM     19  C5* UNL     1     -35.518  22.134   6.166  0.00  0.00    +0.169 C 
BRANCH  19  20
ATOM     20  O5* UNL     1     -35.254  20.862   5.599  0.00  0.00    -0.379 OA
ATOM     21  H5* UNL     1     -34.306  20.667   5.670  0.00  0.00    +0.211 HD
ENDBRANCH  19  20
ENDBRANCH  16  19
ENDBRANCH   2  13
BRANCH   9  22
ATOM     22  N   UNL     1     -41.163  22.892   0.630  0.00  0.00    -0.301 NA
ATOM     23  H   UNL     1     -42.115  23.059   0.820  0.00  0.00    +0.121 HD
ATOM     24  H   UNL     1     -40.898  22.110   0.094  0.00  0.00    +0.121 HD
ENDBRANCH   9  22
TORSDOF 5
ENDMDL
MODEL 9
REMARK VINA RESULT:      -5.3      1.536      2.229
REMARK  Name = 198689
REMARK  5 active torsions:
REMARK  status: ('A' for Active; 'I' for Inactive)
REMARK    1  A    between atoms: N_2  and  C1*_13
REMARK    2  A    between atoms: C_9  and  N_22
REMARK    3  A    between atoms: C3*_14  and  O3*_17
REMARK    4  A    between atoms: C4*_16  and  C5*_19
REMARK    5  A    between atoms: C5*_19  and  O5*_20
REMARK                            x       y       z     vdW  Elec       q    Type
REMARK                         _______ _______ _______ _____ _____    ______ ____
ROOT
ATOM      1  O   UNL     1     -40.831  23.804   1.645  0.00  0.00    -0.193 OA
ATOM      2  N   UNL     1     -36.599  22.303   3.064  0.00  0.00    -0.238 N 
ATOM      3  N   UNL     1     -36.649  20.435   1.769  0.00  0.00    -0.245 NA
ATOM      4  N   UNL     1     -38.768  23.255   2.466  0.00  0.00    -0.305 NA
ATOM      5  N   UNL     1     -39.897  21.880   0.860  0.00  0.00    -0.235 N 
ATOM      6  C   UNL     1     -37.815  22.391   2.422  0.00  0.00    +0.217 C 
ATOM      7  C   UNL     1     -35.985  21.146   2.648  0.00  0.00    +0.223 C 
ATOM      8  C   UNL     1     -37.819  21.159   1.575  0.00  0.00    +0.134 C 
ATOM      9  C   UNL     1     -38.886  20.937   0.801  0.00  0.00    +0.180 C 
ATOM     10  C   UNL     1     -39.876  23.025   1.664  0.00  0.00    +0.268 C 
ATOM     11  H   UNL     1     -40.689  21.735   0.295  0.00  0.00    +0.162 HD
ENDROOT
BRANCH   2  13
ATOM     12  O4* UNL     1     -37.104  24.175   4.434  0.00  0.00    -0.335 OA
ATOM     13  C1* UNL     1     -36.104  23.209   4.069  0.00  0.00    +0.198 C 
ATOM     14  C3* UNL     1     -35.012  25.286   4.324  0.00  0.00    +0.144 C 
ATOM     15  C2* UNL     1     -34.903  23.989   3.556  0.00  0.00    +0.083 C 
ATOM     16  C4* UNL     1     -36.516  25.491   4.432  0.00  0.00    +0.173 C 
BRANCH  14  17
ATOM     17  O3* UNL     1     -34.481  25.105   5.635  0.00  0.00    -0.382 OA
ATOM     18  H3* UNL     1     -34.558  25.934   6.133  0.00  0.00    +0.210 HD
ENDBRANCH  14  17
BRANCH  16  19
ATOM     19  C5* UNL     1     -37.096  26.261   3.253  0.00  0.00    +0.169 C 
BRANCH  19  20
ATOM     20  O5* UNL     1     -38.507  26.312   3.390  0.00  0.00    -0.379 OA
ATOM     21  H5* UNL     1     -38.752  26.086   4.301  0.00  0.00    +0.211 HD
ENDBRANCH  19  20
ENDBRANCH  16  19
ENDBRANCH   2  13
BRANCH   9  22
ATOM     22  N   UNL     1     -38.998  19.844  -0.013  0.00  0.00    -0.301 NA
ATOM     23  H   UNL     1     -39.433  19.025   0.319  0.00  0.00    +0.121 HD
ATOM     24  H   UNL     1     -38.645  19.877  -0.931  0.00  0.00    +0.121 HD
ENDBRANCH   9  22
TORSDOF 5
ENDMDL
