MODEL 1
REMARK VINA RESULT:      -6.5      0.000      0.000
REMARK  Name = 5315263
REMARK  7 active torsions:
REMARK  status: ('A' for Active; 'I' for Inactive)
REMARK    1  A    between atoms: C_5  and  C_12
REMARK    2  A    between atoms: C_6  and  O_22
REMARK    3  A    between atoms: C_8  and  O_28
REMARK    4  A    between atoms: C_10  and  O_24
REMARK    5  A    between atoms: C_11  and  O_26
REMARK    6  A    between atoms: C_15  and  O_20
REMARK    7  A    between atoms: C_17  and  O_18
REMARK                            x       y       z     vdW  Elec       q    Type
REMARK                         _______ _______ _______ _____ _____    ______ ____
ROOT
ATOM      1  O   UNL     1     -33.202  26.655   5.203  0.00  0.00    -0.450 OA
ATOM      2  O   UNL     1     -35.449  28.132   2.141  0.00  0.00    -0.283 OA
ATOM      3  C   UNL     1     -35.151  26.453   3.771  0.00  0.00    +0.113 A 
ATOM      4  C   UNL     1     -34.339  25.999   4.808  0.00  0.00    +0.155 A 
ATOM      5  C   UNL     1     -32.853  27.826   4.550  0.00  0.00    +0.182 A 
ATOM      6  C   UNL     1     -33.545  28.367   3.529  0.00  0.00    +0.212 A 
ATOM      7  C   UNL     1     -34.779  27.689   3.064  0.00  0.00    +0.238 A 
ATOM      8  C   UNL     1     -36.299  25.742   3.410  0.00  0.00    +0.177 C 
ATOM      9  C   UNL     1     -34.670  24.828   5.492  0.00  0.00    +0.078 C 
ATOM     10  C   UNL     1     -36.627  24.571   4.096  0.00  0.00    +0.206 C 
ATOM     11  C   UNL     1     -35.814  24.116   5.135  0.00  0.00    +0.178 C 
ENDROOT
BRANCH   5  12
ATOM     12  C   UNL     1     -31.613  28.428   5.071  0.00  0.00    +0.041 C 
ATOM     13  C   UNL     1     -30.428  28.326   4.343  0.00  0.00    +0.043 C 
ATOM     14  C   UNL     1     -31.624  29.101   6.293  0.00  0.00    +0.006 C 
ATOM     15  C   UNL     1     -29.254  28.896   4.836  0.00  0.00    +0.168 C 
ATOM     16  C   UNL     1     -30.451  29.671   6.787  0.00  0.00    +0.040 C 
ATOM     17  C   UNL     1     -29.265  29.569   6.058  0.00  0.00    +0.172 C 
BRANCH  17  18
ATOM     18  O   UNL     1     -28.127  30.131   6.550  0.00  0.00    -0.468 OA
ATOM     19  C   UNL     1     -27.712  29.724   7.852  0.00  0.00    +0.253 C 
ENDBRANCH  17  18
BRANCH  15  20
ATOM     20  O   UNL     1     -28.102  28.789   4.117  0.00  0.00    -0.503 OA
ATOM     21  H   UNL     1     -27.901  29.422   3.457  0.00  0.00    +0.292 HD
ENDBRANCH  15  20
ENDBRANCH   5  12
BRANCH   6  22
ATOM     22  O   UNL     1     -33.153  29.517   2.879  0.00  0.00    -0.465 OA
ATOM     23  C   UNL     1     -33.761  30.654   3.461  0.00  0.00    +0.253 C 
ENDBRANCH   6  22
BRANCH  10  24
ATOM     24  O   UNL     1     -37.744  23.868   3.752  0.00  0.00    -0.465 OA
ATOM     25  C   UNL     1     -37.579  22.817   2.803  0.00  0.00    +0.253 C 
ENDBRANCH  10  24
BRANCH  11  26
ATOM     26  O   UNL     1     -36.127  22.974   5.809  0.00  0.00    -0.468 OA
ATOM     27  C   UNL     1     -35.055  22.079   6.098  0.00  0.00    +0.253 C 
ENDBRANCH  11  26
BRANCH   8  28
ATOM     28  O   UNL     1     -37.118  26.153   2.402  0.00  0.00    -0.503 OA
ATOM     29  H   UNL     1     -36.870  26.879   1.863  0.00  0.00    +0.292 HD
ENDBRANCH   8  28
TORSDOF 7
ENDMDL
MODEL 2
REMARK VINA RESULT:      -6.1      3.381      5.933
REMARK  Name = 5315263
REMARK  7 active torsions:
REMARK  status: ('A' for Active; 'I' for Inactive)
REMARK    1  A    between atoms: C_5  and  C_12
REMARK    2  A    between atoms: C_6  and  O_22
REMARK    3  A    between atoms: C_8  and  O_28
REMARK    4  A    between atoms: C_10  and  O_24
REMARK    5  A    between atoms: C_11  and  O_26
REMARK    6  A    between atoms: C_15  and  O_20
REMARK    7  A    between atoms: C_17  and  O_18
REMARK                            x       y       z     vdW  Elec       q    Type
REMARK                         _______ _______ _______ _____ _____    ______ ____
ROOT
ATOM      1  O   UNL     1     -35.056  22.625   2.653  0.00  0.00    -0.450 OA
ATOM      2  O   UNL     1     -39.112  22.481   2.292  0.00  0.00    -0.283 OA
ATOM      3  C   UNL     1     -37.029  21.474   1.832  0.00  0.00    +0.113 A 
ATOM      4  C   UNL     1     -35.649  21.583   1.988  0.00  0.00    +0.155 A 
ATOM      5  C   UNL     1     -35.866  23.606   3.204  0.00  0.00    +0.182 A 
ATOM      6  C   UNL     1     -37.209  23.623   3.118  0.00  0.00    +0.212 A 
ATOM      7  C   UNL     1     -37.894  22.519   2.403  0.00  0.00    +0.238 A 
ATOM      8  C   UNL     1     -37.578  20.390   1.144  0.00  0.00    +0.177 C 
ATOM      9  C   UNL     1     -34.807  20.607   1.454  0.00  0.00    +0.078 C 
ATOM     10  C   UNL     1     -36.734  19.415   0.610  0.00  0.00    +0.206 C 
ATOM     11  C   UNL     1     -35.351  19.523   0.765  0.00  0.00    +0.178 C 
ENDROOT
BRANCH   5  12
ATOM     12  C   UNL     1     -35.103  24.665   3.888  0.00  0.00    +0.041 C 
ATOM     13  C   UNL     1     -34.374  25.591   3.144  0.00  0.00    +0.043 C 
ATOM     14  C   UNL     1     -35.111  24.740   5.281  0.00  0.00    +0.006 C 
ATOM     15  C   UNL     1     -33.653  26.595   3.792  0.00  0.00    +0.168 C 
ATOM     16  C   UNL     1     -34.389  25.743   5.930  0.00  0.00    +0.040 C 
ATOM     17  C   UNL     1     -33.660  26.670   5.185  0.00  0.00    +0.172 C 
BRANCH  17  18
ATOM     18  O   UNL     1     -32.962  27.646   5.830  0.00  0.00    -0.468 OA
ATOM     19  C   UNL     1     -32.496  27.349   7.145  0.00  0.00    +0.253 C 
ENDBRANCH  17  18
BRANCH  15  20
ATOM     20  O   UNL     1     -32.943  27.494   3.055  0.00  0.00    -0.503 OA
ATOM     21  H   UNL     1     -33.046  28.412   3.210  0.00  0.00    +0.292 HD
ENDBRANCH  15  20
ENDBRANCH   5  12
BRANCH   6  22
ATOM     22  O   UNL     1     -37.985  24.630   3.650  0.00  0.00    -0.465 OA
ATOM     23  C   UNL     1     -38.180  25.665   2.706  0.00  0.00    +0.253 C 
ENDBRANCH   6  22
BRANCH  10  24
ATOM     24  O   UNL     1     -37.258  18.352  -0.066  0.00  0.00    -0.465 OA
ATOM     25  C   UNL     1     -37.456  18.512  -1.469  0.00  0.00    +0.253 C 
ENDBRANCH  10  24
BRANCH  11  26
ATOM     26  O   UNL     1     -34.520  18.576   0.247  0.00  0.00    -0.468 OA
ATOM     27  C   UNL     1     -33.316  18.309   0.963  0.00  0.00    +0.253 C 
ENDBRANCH  11  26
BRANCH   8  28
ATOM     28  O   UNL     1     -38.923  20.249   0.970  0.00  0.00    -0.503 OA
ATOM     29  H   UNL     1     -39.383  20.822   0.388  0.00  0.00    +0.292 HD
ENDBRANCH   8  28
TORSDOF 7
ENDMDL
MODEL 3
REMARK VINA RESULT:      -6.0      5.959      8.997
REMARK  Name = 5315263
REMARK  7 active torsions:
REMARK  status: ('A' for Active; 'I' for Inactive)
REMARK    1  A    between atoms: C_5  and  C_12
REMARK    2  A    between atoms: C_6  and  O_22
REMARK    3  A    between atoms: C_8  and  O_28
REMARK    4  A    between atoms: C_10  and  O_24
REMARK    5  A    between atoms: C_11  and  O_26
REMARK    6  A    between atoms: C_15  and  O_20
REMARK    7  A    between atoms: C_17  and  O_18
REMARK                            x       y       z     vdW  Elec       q    Type
REMARK                         _______ _______ _______ _____ _____    ______ ____
ROOT
ATOM      1  O   UNL     1     -34.712  20.832   1.686  0.00  0.00    -0.450 OA
ATOM      2  O   UNL     1     -37.864  19.013  -0.147  0.00  0.00    -0.283 OA
ATOM      3  C   UNL     1     -37.103  20.729   1.282  0.00  0.00    +0.113 A 
ATOM      4  C   UNL     1     -35.984  21.304   1.881  0.00  0.00    +0.155 A 
ATOM      5  C   UNL     1     -34.530  19.744   0.848  0.00  0.00    +0.182 A 
ATOM      6  C   UNL     1     -35.525  19.093   0.216  0.00  0.00    +0.212 A 
ATOM      7  C   UNL     1     -36.919  19.564   0.401  0.00  0.00    +0.238 A 
ATOM      8  C   UNL     1     -38.377  21.251   1.518  0.00  0.00    +0.177 C 
ATOM      9  C   UNL     1     -36.133  22.407   2.722  0.00  0.00    +0.078 C 
ATOM     10  C   UNL     1     -38.523  22.355   2.360  0.00  0.00    +0.206 C 
ATOM     11  C   UNL     1     -37.403  22.932   2.960  0.00  0.00    +0.178 C 
ENDROOT
BRANCH   5  12
ATOM     12  C   UNL     1     -33.118  19.340   0.727  0.00  0.00    +0.041 C 
ATOM     13  C   UNL     1     -32.224  20.135   0.011  0.00  0.00    +0.043 C 
ATOM     14  C   UNL     1     -32.677  18.161   1.329  0.00  0.00    +0.006 C 
ATOM     15  C   UNL     1     -30.887  19.752  -0.102  0.00  0.00    +0.168 C 
ATOM     16  C   UNL     1     -31.340  17.778   1.215  0.00  0.00    +0.040 C 
ATOM     17  C   UNL     1     -30.445  18.574   0.500  0.00  0.00    +0.172 C 
BRANCH  17  18
ATOM     18  O   UNL     1     -29.142  18.190   0.397  0.00  0.00    -0.468 OA
ATOM     19  C   UNL     1     -28.561  17.559   1.536  0.00  0.00    +0.253 C 
ENDBRANCH  17  18
BRANCH  15  20
ATOM     20  O   UNL     1     -30.022  20.536  -0.804  0.00  0.00    -0.503 OA
ATOM     21  H   UNL     1     -29.383  21.050  -0.353  0.00  0.00    +0.292 HD
ENDBRANCH  15  20
ENDBRANCH   5  12
BRANCH   6  22
ATOM     22  O   UNL     1     -35.314  17.993  -0.587  0.00  0.00    -0.465 OA
ATOM     23  C   UNL     1     -35.128  18.382  -1.934  0.00  0.00    +0.253 C 
ENDBRANCH   6  22
BRANCH  10  24
ATOM     24  O   UNL     1     -39.762  22.873   2.598  0.00  0.00    -0.465 OA
ATOM     25  C   UNL     1     -40.201  23.921   1.737  0.00  0.00    +0.253 C 
ENDBRANCH  10  24
BRANCH  11  26
ATOM     26  O   UNL     1     -37.537  24.009   3.784  0.00  0.00    -0.468 OA
ATOM     27  C   UNL     1     -36.381  24.413   4.514  0.00  0.00    +0.253 C 
ENDBRANCH  11  26
BRANCH   8  28
ATOM     28  O   UNL     1     -39.495  20.716   0.951  0.00  0.00    -0.503 OA
ATOM     29  H   UNL     1     -40.182  20.383   1.494  0.00  0.00    +0.292 HD
ENDBRANCH   8  28
TORSDOF 7
ENDMDL
MODEL 4
REMARK VINA RESULT:      -6.0      6.083      9.552
REMARK  Name = 5315263
REMARK  7 active torsions:
REMARK  status: ('A' for Active; 'I' for Inactive)
REMARK    1  A    between atoms: C_5  and  C_12
REMARK    2  A    between atoms: C_6  and  O_22
REMARK    3  A    between atoms: C_8  and  O_28
REMARK    4  A    between atoms: C_10  and  O_24
REMARK    5  A    between atoms: C_11  and  O_26
REMARK    6  A    between atoms: C_15  and  O_20
REMARK    7  A    between atoms: C_17  and  O_18
REMARK                            x       y       z     vdW  Elec       q    Type
REMARK                         _______ _______ _______ _____ _____    ______ ____
ROOT
ATOM      1  O   UNL     1     -34.436  20.010   2.133  0.00  0.00    -0.450 OA
ATOM      2  O   UNL     1     -36.820  21.582  -0.774  0.00  0.00    -0.283 OA
ATOM      3  C   UNL     1     -36.159  21.593   1.491  0.00  0.00    +0.113 A 
ATOM      4  C   UNL     1     -35.320  21.012   2.438  0.00  0.00    +0.155 A 
ATOM      5  C   UNL     1     -34.368  19.563   0.823  0.00  0.00    +0.182 A 
ATOM      6  C   UNL     1     -35.128  20.034  -0.184  0.00  0.00    +0.212 A 
ATOM      7  C   UNL     1     -36.102  21.115   0.100  0.00  0.00    +0.238 A 
ATOM      8  C   UNL     1     -37.042  22.612   1.859  0.00  0.00    +0.177 C 
ATOM      9  C   UNL     1     -35.358  21.446   3.764  0.00  0.00    +0.078 C 
ATOM     10  C   UNL     1     -37.078  23.044   3.186  0.00  0.00    +0.206 C 
ATOM     11  C   UNL     1     -36.237  22.463   4.136  0.00  0.00    +0.178 C 
ENDROOT
BRANCH   5  12
ATOM     12  C   UNL     1     -33.380  18.486   0.632  0.00  0.00    +0.041 C 
ATOM     13  C   UNL     1     -33.802  17.212   0.255  0.00  0.00    +0.043 C 
ATOM     14  C   UNL     1     -32.023  18.742   0.828  0.00  0.00    +0.006 C 
ATOM     15  C   UNL     1     -32.867  16.192   0.074  0.00  0.00    +0.168 C 
ATOM     16  C   UNL     1     -31.088  17.722   0.648  0.00  0.00    +0.040 C 
ATOM     17  C   UNL     1     -31.510  16.447   0.270  0.00  0.00    +0.172 C 
BRANCH  17  18
ATOM     18  O   UNL     1     -30.587  15.461   0.096  0.00  0.00    -0.468 OA
ATOM     19  C   UNL     1     -29.214  15.833   0.194  0.00  0.00    +0.253 C 
ENDBRANCH  17  18
BRANCH  15  20
ATOM     20  O   UNL     1     -33.291  14.951  -0.293  0.00  0.00    -0.503 OA
ATOM     21  H   UNL     1     -34.109  14.622   0.024  0.00  0.00    +0.292 HD
ENDBRANCH  15  20
ENDBRANCH   5  12
BRANCH   6  22
ATOM     22  O   UNL     1     -35.058  19.546  -1.471  0.00  0.00    -0.465 OA
ATOM     23  C   UNL     1     -34.124  20.282  -2.237  0.00  0.00    +0.253 C 
ENDBRANCH   6  22
BRANCH  10  24
ATOM     24  O   UNL     1     -37.936  24.037   3.559  0.00  0.00    -0.465 OA
ATOM     25  C   UNL     1     -37.432  25.370   3.529  0.00  0.00    +0.253 C 
ENDBRANCH  10  24
BRANCH  11  26
ATOM     26  O   UNL     1     -36.266  22.879   5.433  0.00  0.00    -0.468 OA
ATOM     27  C   UNL     1     -35.401  22.208   6.348  0.00  0.00    +0.253 C 
ENDBRANCH  11  26
BRANCH   8  28
ATOM     28  O   UNL     1     -37.879  23.204   0.962  0.00  0.00    -0.503 OA
ATOM     29  H   UNL     1     -38.053  24.123   1.018  0.00  0.00    +0.292 HD
ENDBRANCH   8  28
TORSDOF 7
ENDMDL
MODEL 5
REMARK VINA RESULT:      -5.9      6.010      9.247
REMARK  Name = 5315263
REMARK  7 active torsions:
REMARK  status: ('A' for Active; 'I' for Inactive)
REMARK    1  A    between atoms: C_5  and  C_12
REMARK    2  A    between atoms: C_6  and  O_22
REMARK    3  A    between atoms: C_8  and  O_28
REMARK    4  A    between atoms: C_10  and  O_24
REMARK    5  A    between atoms: C_11  and  O_26
REMARK    6  A    between atoms: C_15  and  O_20
REMARK    7  A    between atoms: C_17  and  O_18
REMARK                            x       y       z     vdW  Elec       q    Type
REMARK                         _______ _______ _______ _____ _____    ______ ____
ROOT
ATOM      1  O   UNL     1     -33.966  19.839   1.922  0.00  0.00    -0.450 OA
ATOM      2  O   UNL     1     -36.876  18.499  -0.596  0.00  0.00    -0.283 OA
ATOM      3  C   UNL     1     -34.682  18.249   0.234  0.00  0.00    +0.113 A 
ATOM      4  C   UNL     1     -33.729  18.757   1.113  0.00  0.00    +0.155 A 
ATOM      5  C   UNL     1     -35.211  20.445   1.869  0.00  0.00    +0.182 A 
ATOM      6  C   UNL     1     -36.214  20.058   1.059  0.00  0.00    +0.212 A 
ATOM      7  C   UNL     1     -36.001  18.896   0.163  0.00  0.00    +0.238 A 
ATOM      8  C   UNL     1     -34.385  17.144  -0.568  0.00  0.00    +0.177 C 
ATOM      9  C   UNL     1     -32.469  18.162   1.198  0.00  0.00    +0.078 C 
ATOM     10  C   UNL     1     -33.124  16.551  -0.482  0.00  0.00    +0.206 C 
ATOM     11  C   UNL     1     -32.168  17.059   0.399  0.00  0.00    +0.178 C 
ENDROOT
BRANCH   5  12
ATOM     12  C   UNL     1     -35.332  21.592   2.786  0.00  0.00    +0.041 C 
ATOM     13  C   UNL     1     -35.637  21.383   4.130  0.00  0.00    +0.043 C 
ATOM     14  C   UNL     1     -35.140  22.889   2.308  0.00  0.00    +0.006 C 
ATOM     15  C   UNL     1     -35.750  22.470   4.997  0.00  0.00    +0.168 C 
ATOM     16  C   UNL     1     -35.254  23.976   3.174  0.00  0.00    +0.040 C 
ATOM     17  C   UNL     1     -35.559  23.767   4.520  0.00  0.00    +0.172 C 
BRANCH  17  18
ATOM     18  O   UNL     1     -35.666  24.836   5.356  0.00  0.00    -0.468 OA
ATOM     19  C   UNL     1     -34.483  25.597   5.591  0.00  0.00    +0.253 C 
ENDBRANCH  17  18
BRANCH  15  20
ATOM     20  O   UNL     1     -36.050  22.254   6.308  0.00  0.00    -0.503 OA
ATOM     21  H   UNL     1     -36.597  22.858   6.770  0.00  0.00    +0.292 HD
ENDBRANCH  15  20
ENDBRANCH   5  12
BRANCH   6  22
ATOM     22  O   UNL     1     -37.431  20.703   1.007  0.00  0.00    -0.465 OA
ATOM     23  C   UNL     1     -37.491  21.574  -0.105  0.00  0.00    +0.253 C 
ENDBRANCH   6  22
BRANCH  10  24
ATOM     24  O   UNL     1     -32.821  15.472  -1.260  0.00  0.00    -0.465 OA
ATOM     25  C   UNL     1     -32.203  15.736  -2.518  0.00  0.00    +0.253 C 
ENDBRANCH  10  24
BRANCH  11  26
ATOM     26  O   UNL     1     -30.935  16.487   0.489  0.00  0.00    -0.468 OA
ATOM     27  C   UNL     1     -29.832  17.359   0.724  0.00  0.00    +0.253 C 
ENDBRANCH  11  26
BRANCH   8  28
ATOM     28  O   UNL     1     -35.289  16.618  -1.441  0.00  0.00    -0.503 OA
ATOM     29  H   UNL     1     -35.938  16.014  -1.137  0.00  0.00    +0.292 HD
ENDBRANCH   8  28
TORSDOF 7
ENDMDL
MODEL 6
REMARK VINA RESULT:      -5.9      5.152      8.437
REMARK  Name = 5315263
REMARK  7 active torsions:
REMARK  status: ('A' for Active; 'I' for Inactive)
REMARK    1  A    between atoms: C_5  and  C_12
REMARK    2  A    between atoms: C_6  and  O_22
REMARK    3  A    between atoms: C_8  and  O_28
REMARK    4  A    between atoms: C_10  and  O_24
REMARK    5  A    between atoms: C_11  and  O_26
REMARK    6  A    between atoms: C_15  and  O_20
REMARK    7  A    between atoms: C_17  and  O_18
REMARK                            x       y       z     vdW  Elec       q    Type
REMARK                         _______ _______ _______ _____ _____    ______ ____
ROOT
ATOM      1  O   UNL     1     -34.767  21.728   2.108  0.00  0.00    -0.450 OA
ATOM      2  O   UNL     1     -38.377  20.605   0.589  0.00  0.00    -0.283 OA
ATOM      3  C   UNL     1     -37.162  22.088   1.963  0.00  0.00    +0.113 A 
ATOM      4  C   UNL     1     -35.900  22.419   2.450  0.00  0.00    +0.155 A 
ATOM      5  C   UNL     1     -34.881  20.661   1.231  0.00  0.00    +0.182 A 
ATOM      6  C   UNL     1     -36.041  20.234   0.697  0.00  0.00    +0.212 A 
ATOM      7  C   UNL     1     -37.293  20.948   1.043  0.00  0.00    +0.238 A 
ATOM      8  C   UNL     1     -38.284  22.828   2.347  0.00  0.00    +0.177 C 
ATOM      9  C   UNL     1     -35.750  23.495   3.326  0.00  0.00    +0.078 C 
ATOM     10  C   UNL     1     -38.131  23.904   3.224  0.00  0.00    +0.206 C 
ATOM     11  C   UNL     1     -36.867  24.237   3.712  0.00  0.00    +0.178 C 
ENDROOT
BRANCH   5  12
ATOM     12  C   UNL     1     -33.591  20.007   0.949  0.00  0.00    +0.041 C 
ATOM     13  C   UNL     1     -32.646  20.645   0.146  0.00  0.00    +0.043 C 
ATOM     14  C   UNL     1     -33.315  18.749   1.486  0.00  0.00    +0.006 C 
ATOM     15  C   UNL     1     -31.425  20.025  -0.120  0.00  0.00    +0.168 C 
ATOM     16  C   UNL     1     -32.094  18.129   1.219  0.00  0.00    +0.040 C 
ATOM     17  C   UNL     1     -31.149  18.768   0.416  0.00  0.00    +0.172 C 
BRANCH  17  18
ATOM     18  O   UNL     1     -29.960  18.153   0.165  0.00  0.00    -0.468 OA
ATOM     19  C   UNL     1     -29.242  17.645   1.288  0.00  0.00    +0.253 C 
ENDBRANCH  17  18
BRANCH  15  20
ATOM     20  O   UNL     1     -30.510  20.657  -0.906  0.00  0.00    -0.503 OA
ATOM     21  H   UNL     1     -29.667  20.875  -0.562  0.00  0.00    +0.292 HD
ENDBRANCH  15  20
ENDBRANCH   5  12
BRANCH   6  22
ATOM     22  O   UNL     1     -36.125  19.148  -0.148  0.00  0.00    -0.465 OA
ATOM     23  C   UNL     1     -36.007  19.552  -1.498  0.00  0.00    +0.253 C 
ENDBRANCH   6  22
BRANCH  10  24
ATOM     24  O   UNL     1     -39.218  24.633   3.607  0.00  0.00    -0.465 OA
ATOM     25  C   UNL     1     -39.532  25.784   2.826  0.00  0.00    +0.253 C 
ENDBRANCH  10  24
BRANCH  11  26
ATOM     26  O   UNL     1     -36.709  25.284   4.569  0.00  0.00    -0.468 OA
ATOM     27  C   UNL     1     -35.595  25.232   5.457  0.00  0.00    +0.253 C 
ENDBRANCH  11  26
BRANCH   8  28
ATOM     28  O   UNL     1     -39.535  22.534   1.894  0.00  0.00    -0.503 OA
ATOM     29  H   UNL     1     -40.214  22.316   2.501  0.00  0.00    +0.292 HD
ENDBRANCH   8  28
TORSDOF 7
ENDMDL
MODEL 7
REMARK VINA RESULT:      -5.8      2.408      8.754
REMARK  Name = 5315263
REMARK  7 active torsions:
REMARK  status: ('A' for Active; 'I' for Inactive)
REMARK    1  A    between atoms: C_5  and  C_12
REMARK    2  A    between atoms: C_6  and  O_22
REMARK    3  A    between atoms: C_8  and  O_28
REMARK    4  A    between atoms: C_10  and  O_24
REMARK    5  A    between atoms: C_11  and  O_26
REMARK    6  A    between atoms: C_15  and  O_20
REMARK    7  A    between atoms: C_17  and  O_18
REMARK                            x       y       z     vdW  Elec       q    Type
REMARK                         _______ _______ _______ _____ _____    ______ ____
ROOT
ATOM      1  O   UNL     1     -35.771  25.441   2.433  0.00  0.00    -0.450 OA
ATOM      2  O   UNL     1     -34.316  25.443   6.239  0.00  0.00    -0.283 OA
ATOM      3  C   UNL     1     -34.267  26.396   4.082  0.00  0.00    +0.113 A 
ATOM      4  C   UNL     1     -34.803  26.341   2.797  0.00  0.00    +0.155 A 
ATOM      5  C   UNL     1     -36.243  24.555   3.388  0.00  0.00    +0.182 A 
ATOM      6  C   UNL     1     -35.804  24.497   4.659  0.00  0.00    +0.212 A 
ATOM      7  C   UNL     1     -34.755  25.448   5.097  0.00  0.00    +0.238 A 
ATOM      8  C   UNL     1     -33.282  27.335   4.396  0.00  0.00    +0.177 C 
ATOM      9  C   UNL     1     -34.356  27.228   1.817  0.00  0.00    +0.078 C 
ATOM     10  C   UNL     1     -32.836  28.220   3.413  0.00  0.00    +0.206 C 
ATOM     11  C   UNL     1     -33.372  28.167   2.126  0.00  0.00    +0.178 C 
ENDROOT
BRANCH   5  12
ATOM     12  C   UNL     1     -37.277  23.644   2.865  0.00  0.00    +0.041 C 
ATOM     13  C   UNL     1     -36.929  22.361   2.443  0.00  0.00    +0.043 C 
ATOM     14  C   UNL     1     -38.606  24.065   2.794  0.00  0.00    +0.006 C 
ATOM     15  C   UNL     1     -37.909  21.499   1.950  0.00  0.00    +0.168 C 
ATOM     16  C   UNL     1     -39.585  23.203   2.300  0.00  0.00    +0.040 C 
ATOM     17  C   UNL     1     -39.236  21.919   1.878  0.00  0.00    +0.172 C 
BRANCH  17  18
ATOM     18  O   UNL     1     -40.202  21.087   1.400  0.00  0.00    -0.468 OA
ATOM     19  C   UNL     1     -40.598  21.266   0.042  0.00  0.00    +0.253 C 
ENDBRANCH  17  18
BRANCH  15  20
ATOM     20  O   UNL     1     -37.557  20.249   1.539  0.00  0.00    -0.503 OA
ATOM     21  H   UNL     1     -37.296  20.104   0.651  0.00  0.00    +0.292 HD
ENDBRANCH  15  20
ENDBRANCH   5  12
BRANCH   6  22
ATOM     22  O   UNL     1     -36.273  23.581   5.576  0.00  0.00    -0.465 OA
ATOM     23  C   UNL     1     -35.361  22.510   5.727  0.00  0.00    +0.253 C 
ENDBRANCH   6  22
BRANCH  10  24
ATOM     24  O   UNL     1     -31.873  29.140   3.708  0.00  0.00    -0.465 OA
ATOM     25  C   UNL     1     -32.316  30.400   4.208  0.00  0.00    +0.253 C 
ENDBRANCH  10  24
BRANCH  11  26
ATOM     26  O   UNL     1     -32.942  29.027   1.161  0.00  0.00    -0.468 OA
ATOM     27  C   UNL     1     -33.842  30.061   0.768  0.00  0.00    +0.253 C 
ENDBRANCH  11  26
BRANCH   8  28
ATOM     28  O   UNL     1     -32.732  27.418   5.641  0.00  0.00    -0.503 OA
ATOM     29  H   UNL     1     -32.133  28.110   5.843  0.00  0.00    +0.292 HD
ENDBRANCH   8  28
TORSDOF 7
ENDMDL
MODEL 8
REMARK VINA RESULT:      -5.6      2.405      5.087
REMARK  Name = 5315263
REMARK  7 active torsions:
REMARK  status: ('A' for Active; 'I' for Inactive)
REMARK    1  A    between atoms: C_5  and  C_12
REMARK    2  A    between atoms: C_6  and  O_22
REMARK    3  A    between atoms: C_8  and  O_28
REMARK    4  A    between atoms: C_10  and  O_24
REMARK    5  A    between atoms: C_11  and  O_26
REMARK    6  A    between atoms: C_15  and  O_20
REMARK    7  A    between atoms: C_17  and  O_18
REMARK                            x       y       z     vdW  Elec       q    Type
REMARK                         _______ _______ _______ _____ _____    ______ ____
ROOT
ATOM      1  O   UNL     1     -36.516  26.084   3.504  0.00  0.00    -0.450 OA
ATOM      2  O   UNL     1     -36.589  22.013   3.637  0.00  0.00    -0.283 OA
ATOM      3  C   UNL     1     -37.671  24.010   3.001  0.00  0.00    +0.113 A 
ATOM      4  C   UNL     1     -37.587  25.400   2.990  0.00  0.00    +0.155 A 
ATOM      5  C   UNL     1     -35.468  25.361   4.050  0.00  0.00    +0.182 A 
ATOM      6  C   UNL     1     -35.429  24.017   4.130  0.00  0.00    +0.212 A 
ATOM      7  C   UNL     1     -36.568  23.236   3.591  0.00  0.00    +0.238 A 
ATOM      8  C   UNL     1     -38.788  23.366   2.463  0.00  0.00    +0.177 C 
ATOM      9  C   UNL     1     -38.621  26.157   2.438  0.00  0.00    +0.078 C 
ATOM     10  C   UNL     1     -39.822  24.125   1.912  0.00  0.00    +0.206 C 
ATOM     11  C   UNL     1     -39.738  25.518   1.899  0.00  0.00    +0.178 C 
ENDROOT
BRANCH   5  12
ATOM     12  C   UNL     1     -34.385  26.216   4.566  0.00  0.00    +0.041 C 
ATOM     13  C   UNL     1     -34.083  26.214   5.927  0.00  0.00    +0.043 C 
ATOM     14  C   UNL     1     -33.661  27.028   3.692  0.00  0.00    +0.006 C 
ATOM     15  C   UNL     1     -33.057  27.024   6.416  0.00  0.00    +0.168 C 
ATOM     16  C   UNL     1     -32.635  27.838   4.181  0.00  0.00    +0.040 C 
ATOM     17  C   UNL     1     -32.333  27.835   5.543  0.00  0.00    +0.172 C 
BRANCH  17  18
ATOM     18  O   UNL     1     -31.328  28.629   6.007  0.00  0.00    -0.468 OA
ATOM     19  C   UNL     1     -31.651  29.991   6.279  0.00  0.00    +0.253 C 
ENDBRANCH  17  18
BRANCH  15  20
ATOM     20  O   UNL     1     -32.772  27.015   7.748  0.00  0.00    -0.503 OA
ATOM     21  H   UNL     1     -33.312  26.530   8.339  0.00  0.00    +0.292 HD
ENDBRANCH  15  20
ENDBRANCH   5  12
BRANCH   6  22
ATOM     22  O   UNL     1     -34.385  23.328   4.708  0.00  0.00    -0.465 OA
ATOM     23  C   UNL     1     -34.812  22.657   5.878  0.00  0.00    +0.253 C 
ENDBRANCH   6  22
BRANCH  10  24
ATOM     24  O   UNL     1     -40.917  23.508   1.385  0.00  0.00    -0.465 OA
ATOM     25  C   UNL     1     -40.890  23.227  -0.013  0.00  0.00    +0.253 C 
ENDBRANCH  10  24
BRANCH  11  26
ATOM     26  O   UNL     1     -40.743  26.267   1.364  0.00  0.00    -0.468 OA
ATOM     27  C   UNL     1     -40.405  27.114   0.268  0.00  0.00    +0.253 C 
ENDBRANCH  11  26
BRANCH   8  28
ATOM     28  O   UNL     1     -38.907  22.008   2.457  0.00  0.00    -0.503 OA
ATOM     29  H   UNL     1     -38.142  21.470   2.513  0.00  0.00    +0.292 HD
ENDBRANCH   8  28
TORSDOF 7
ENDMDL
MODEL 9
REMARK VINA RESULT:      -5.5      2.862      8.825
REMARK  Name = 5315263
REMARK  7 active torsions:
REMARK  status: ('A' for Active; 'I' for Inactive)
REMARK    1  A    between atoms: C_5  and  C_12
REMARK    2  A    between atoms: C_6  and  O_22
REMARK    3  A    between atoms: C_8  and  O_28
REMARK    4  A    between atoms: C_10  and  O_24
REMARK    5  A    between atoms: C_11  and  O_26
REMARK    6  A    between atoms: C_15  and  O_20
REMARK    7  A    between atoms: C_17  and  O_18
REMARK                            x       y       z     vdW  Elec       q    Type
REMARK                         _______ _______ _______ _____ _____    ______ ____
ROOT
ATOM      1  O   UNL     1     -34.438  24.026   2.038  0.00  0.00    -0.450 OA
ATOM      2  O   UNL     1     -34.946  24.964   5.971  0.00  0.00    -0.283 OA
ATOM      3  C   UNL     1     -34.042  25.562   3.875  0.00  0.00    +0.113 A 
ATOM      4  C   UNL     1     -33.901  25.183   2.543  0.00  0.00    +0.155 A 
ATOM      5  C   UNL     1     -35.160  23.205   2.889  0.00  0.00    +0.182 A 
ATOM      6  C   UNL     1     -35.362  23.451   4.198  0.00  0.00    +0.212 A 
ATOM      7  C   UNL     1     -34.796  24.688   4.788  0.00  0.00    +0.238 A 
ATOM      8  C   UNL     1     -33.472  26.752   4.335  0.00  0.00    +0.177 C 
ATOM      9  C   UNL     1     -33.189  25.994   1.658  0.00  0.00    +0.078 C 
ATOM     10  C   UNL     1     -32.759  27.561   3.448  0.00  0.00    +0.206 C 
ATOM     11  C   UNL     1     -32.618  27.183   2.112  0.00  0.00    +0.178 C 
ENDROOT
BRANCH   5  12
ATOM     12  C   UNL     1     -35.679  21.998   2.222  0.00  0.00    +0.041 C 
ATOM     13  C   UNL     1     -37.046  21.864   1.986  0.00  0.00    +0.043 C 
ATOM     14  C   UNL     1     -34.801  20.989   1.825  0.00  0.00    +0.006 C 
ATOM     15  C   UNL     1     -37.537  20.722   1.353  0.00  0.00    +0.168 C 
ATOM     16  C   UNL     1     -35.291  19.846   1.193  0.00  0.00    +0.040 C 
ATOM     17  C   UNL     1     -36.660  19.713   0.957  0.00  0.00    +0.172 C 
BRANCH  17  18
ATOM     18  O   UNL     1     -37.126  18.593   0.337  0.00  0.00    -0.468 OA
ATOM     19  C   UNL     1     -36.237  17.931  -0.561  0.00  0.00    +0.253 C 
ENDBRANCH  17  18
BRANCH  15  20
ATOM     20  O   UNL     1     -38.875  20.601   1.130  0.00  0.00    -0.503 OA
ATOM     21  H   UNL     1     -39.274  19.754   1.116  0.00  0.00    +0.292 HD
ENDBRANCH  15  20
ENDBRANCH   5  12
BRANCH   6  22
ATOM     22  O   UNL     1     -36.059  22.598   5.025  0.00  0.00    -0.465 OA
ATOM     23  C   UNL     1     -35.177  21.724   5.704  0.00  0.00    +0.253 C 
ENDBRANCH   6  22
BRANCH  10  24
ATOM     24  O   UNL     1     -32.198  28.725   3.885  0.00  0.00    -0.465 OA
ATOM     25  C   UNL     1     -32.960  29.917   3.705  0.00  0.00    +0.253 C 
ENDBRANCH  10  24
BRANCH  11  26
ATOM     26  O   UNL     1     -31.924  27.966   1.240  0.00  0.00    -0.468 OA
ATOM     27  C   UNL     1     -32.611  28.394   0.067  0.00  0.00    +0.253 C 
ENDBRANCH  11  26
BRANCH   8  28
ATOM     28  O   UNL     1     -33.587  27.156   5.631  0.00  0.00    -0.503 OA
ATOM     29  H   UNL     1     -33.170  27.946   5.915  0.00  0.00    +0.292 HD
ENDBRANCH   8  28
TORSDOF 7
ENDMDL
