MODEL 1
REMARK VINA RESULT:      -6.6      0.000      0.000
REMARK  Name = 5031329
REMARK  7 active torsions:
REMARK  status: ('A' for Active; 'I' for Inactive)
REMARK    1  A    between atoms: N_2  and  N_5
REMARK    2  A    between atoms: C_3  and  C_16
REMARK    3  A    between atoms: N_5  and  C_6
REMARK    4  A    between atoms: C_6  and  C_8
REMARK    5  A    between atoms: C_9  and  O_14
REMARK    6  A    between atoms: C_16  and  S_18
REMARK    7  A    between atoms: S_18  and  C_23
REMARK                            x       y       z     vdW  Elec       q    Type
REMARK                         _______ _______ _______ _____ _____    ______ ____
ROOT
ATOM      1  O   UNL     1     -35.175  23.781   2.781  0.00  0.00    -0.273 OA
ATOM      2  N   UNL     1     -35.941  21.770   3.641  0.00  0.00    -0.231 N 
ATOM      3  C   UNL     1     -35.361  23.024   3.731  0.00  0.00    +0.246 C 
ATOM      4  H   UNL     1     -36.060  21.214   4.444  0.00  0.00    +0.171 HD
ENDROOT
BRANCH   3   5
ATOM      5  C   UNL     1     -34.950  23.371   5.155  0.00  0.00    +0.128 C 
ATOM      6  C   UNL     1     -35.364  22.285   6.138  0.00  0.00    +0.022 C 
BRANCH   5   7
ATOM      7  S   UNL     1     -35.762  24.942   5.594  0.00  0.00    -0.093 S 
BRANCH   7  12
ATOM      8  N   UNL     1     -33.752  26.574   6.319  0.00  0.00    -0.309 N 
ATOM      9  N   UNL     1     -34.033  26.451   4.118  0.00  0.00    -0.309 N 
ATOM     10  C   UNL     1     -32.794  27.395   5.780  0.00  0.00    +0.060 C 
ATOM     11  C   UNL     1     -32.991  27.302   4.405  0.00  0.00    +0.060 C 
ATOM     12  C   UNL     1     -34.434  26.060   5.278  0.00  0.00    +0.196 C 
ATOM     13  C   UNL     1     -31.804  28.189   6.360  0.00  0.00    +0.016 C 
ATOM     14  C   UNL     1     -32.159  28.034   3.542  0.00  0.00    +0.016 C 
ATOM     15  C   UNL     1     -30.986  28.912   5.487  0.00  0.00    +0.001 C 
ATOM     16  C   UNL     1     -31.158  28.837   4.103  0.00  0.00    +0.001 C 
ATOM     17  H   UNL     1     -33.908  26.395   7.274  0.00  0.00    +0.149 HD
ATOM     18  H   UNL     1     -34.389  26.200   3.234  0.00  0.00    +0.149 HD
ENDBRANCH   7  12
ENDBRANCH   5   7
ENDBRANCH   3   5
BRANCH   2  19
ATOM     19  N   UNL     1     -36.339  21.324   2.428  0.00  0.00    -0.126 NA
BRANCH  19  20
ATOM     20  C   UNL     1     -35.731  20.250   2.039  0.00  0.00    +0.141 C 
BRANCH  20  22
ATOM     21 BR   UNL     1     -31.137  17.834   0.932  0.00  0.00    -0.049 Br
ATOM     22  C   UNL     1     -34.454  20.299   1.306  0.00  0.00    +0.031 C 
ATOM     23  C   UNL     1     -34.154  21.385   0.499  0.00  0.00    +0.131 C 
ATOM     24  C   UNL     1     -33.569  19.240   1.445  0.00  0.00    +0.007 C 
ATOM     25  C   UNL     1     -32.939  21.413  -0.187  0.00  0.00    +0.037 C 
ATOM     26  C   UNL     1     -32.355  19.269   0.758  0.00  0.00    +0.034 C 
ATOM     27  C   UNL     1     -32.040  20.355  -0.057  0.00  0.00    +0.010 C 
BRANCH  23  28
ATOM     28  O   UNL     1     -35.020  22.428   0.359  0.00  0.00    -0.506 OA
ATOM     29  H   UNL     1     -35.474  22.555  -0.449  0.00  0.00    +0.292 HD
ENDBRANCH  23  28
ENDBRANCH  20  22
ENDBRANCH  19  20
ENDBRANCH   2  19
TORSDOF 7
ENDMDL
MODEL 2
REMARK VINA RESULT:      -6.4      3.973      6.673
REMARK  Name = 5031329
REMARK  7 active torsions:
REMARK  status: ('A' for Active; 'I' for Inactive)
REMARK    1  A    between atoms: N_2  and  N_5
REMARK    2  A    between atoms: C_3  and  C_16
REMARK    3  A    between atoms: N_5  and  C_6
REMARK    4  A    between atoms: C_6  and  C_8
REMARK    5  A    between atoms: C_9  and  O_14
REMARK    6  A    between atoms: C_16  and  S_18
REMARK    7  A    between atoms: S_18  and  C_23
REMARK                            x       y       z     vdW  Elec       q    Type
REMARK                         _______ _______ _______ _____ _____    ______ ____
ROOT
ATOM      1  O   UNL     1     -35.806  25.389   5.708  0.00  0.00    -0.273 OA
ATOM      2  N   UNL     1     -34.062  24.383   4.561  0.00  0.00    -0.231 N 
ATOM      3  C   UNL     1     -35.268  24.388   5.241  0.00  0.00    +0.246 C 
ATOM      4  H   UNL     1     -33.687  23.542   4.213  0.00  0.00    +0.171 HD
ENDROOT
BRANCH   3   5
ATOM      5  C   UNL     1     -35.865  22.994   5.371  0.00  0.00    +0.128 C 
ATOM      6  C   UNL     1     -35.074  22.135   6.347  0.00  0.00    +0.022 C 
BRANCH   5   7
ATOM      7  S   UNL     1     -35.843  22.229   3.718  0.00  0.00    -0.093 S 
BRANCH   7  12
ATOM      8  N   UNL     1     -37.864  24.000   3.660  0.00  0.00    -0.309 N 
ATOM      9  N   UNL     1     -37.927  22.542   1.984  0.00  0.00    -0.309 N 
ATOM     10  C   UNL     1     -38.973  24.336   2.924  0.00  0.00    +0.060 C 
ATOM     11  C   UNL     1     -38.991  23.410   1.884  0.00  0.00    +0.060 C 
ATOM     12  C   UNL     1     -37.310  22.941   3.042  0.00  0.00    +0.196 C 
ATOM     13  C   UNL     1     -39.932  25.337   3.074  0.00  0.00    +0.016 C 
ATOM     14  C   UNL     1     -40.017  23.473   0.928  0.00  0.00    +0.016 C 
ATOM     15  C   UNL     1     -40.948  25.385   2.115  0.00  0.00    +0.001 C 
ATOM     16  C   UNL     1     -40.991  24.471   1.060  0.00  0.00    +0.001 C 
ATOM     17  H   UNL     1     -37.539  24.446   4.475  0.00  0.00    +0.149 HD
ATOM     18  H   UNL     1     -37.694  21.793   1.389  0.00  0.00    +0.149 HD
ENDBRANCH   7  12
ENDBRANCH   5   7
ENDBRANCH   3   5
BRANCH   2  19
ATOM     19  N   UNL     1     -33.408  25.553   4.387  0.00  0.00    -0.126 NA
BRANCH  19  20
ATOM     20  C   UNL     1     -33.373  25.956   3.158  0.00  0.00    +0.141 C 
BRANCH  20  22
ATOM     21 BR   UNL     1     -36.137  24.191  -1.014  0.00  0.00    -0.049 Br
ATOM     22  C   UNL     1     -34.594  26.079   2.343  0.00  0.00    +0.031 C 
ATOM     23  C   UNL     1     -35.557  27.023   2.665  0.00  0.00    +0.131 C 
ATOM     24  C   UNL     1     -34.752  25.234   1.255  0.00  0.00    +0.007 C 
ATOM     25  C   UNL     1     -36.707  27.124   1.881  0.00  0.00    +0.037 C 
ATOM     26  C   UNL     1     -35.902  25.336   0.471  0.00  0.00    +0.034 C 
ATOM     27  C   UNL     1     -36.879  26.281   0.784  0.00  0.00    +0.010 C 
BRANCH  23  28
ATOM     28  O   UNL     1     -35.407  27.856   3.734  0.00  0.00    -0.506 OA
ATOM     29  H   UNL     1     -35.020  28.701   3.619  0.00  0.00    +0.292 HD
ENDBRANCH  23  28
ENDBRANCH  20  22
ENDBRANCH  19  20
ENDBRANCH   2  19
TORSDOF 7
ENDMDL
MODEL 3
REMARK VINA RESULT:      -6.3      3.405      8.431
REMARK  Name = 5031329
REMARK  7 active torsions:
REMARK  status: ('A' for Active; 'I' for Inactive)
REMARK    1  A    between atoms: N_2  and  N_5
REMARK    2  A    between atoms: C_3  and  C_16
REMARK    3  A    between atoms: N_5  and  C_6
REMARK    4  A    between atoms: C_6  and  C_8
REMARK    5  A    between atoms: C_9  and  O_14
REMARK    6  A    between atoms: C_16  and  S_18
REMARK    7  A    between atoms: S_18  and  C_23
REMARK                            x       y       z     vdW  Elec       q    Type
REMARK                         _______ _______ _______ _____ _____    ______ ____
ROOT
ATOM      1  O   UNL     1     -33.374  24.771   4.451  0.00  0.00    -0.273 OA
ATOM      2  N   UNL     1     -34.055  26.651   5.621  0.00  0.00    -0.231 N 
ATOM      3  C   UNL     1     -34.181  25.346   5.178  0.00  0.00    +0.246 C 
ATOM      4  H   UNL     1     -34.740  27.051   6.203  0.00  0.00    +0.171 HD
ENDROOT
BRANCH   3   5
ATOM      5  C   UNL     1     -35.456  24.684   5.679  0.00  0.00    +0.128 C 
ATOM      6  C   UNL     1     -35.241  23.207   5.976  0.00  0.00    +0.022 C 
BRANCH   5   7
ATOM      7  S   UNL     1     -36.721  24.874   4.381  0.00  0.00    -0.093 S 
BRANCH   7  12
ATOM      8  N   UNL     1     -35.312  23.530   2.527  0.00  0.00    -0.309 N 
ATOM      9  N   UNL     1     -36.968  22.337   3.406  0.00  0.00    -0.309 N 
ATOM     10  C   UNL     1     -35.254  22.309   1.905  0.00  0.00    +0.060 C 
ATOM     11  C   UNL     1     -36.298  21.582   2.470  0.00  0.00    +0.060 C 
ATOM     12  C   UNL     1     -36.342  23.463   3.390  0.00  0.00    +0.196 C 
ATOM     13  C   UNL     1     -34.405  21.793   0.925  0.00  0.00    +0.016 C 
ATOM     14  C   UNL     1     -36.522  20.261   2.048  0.00  0.00    +0.016 C 
ATOM     15  C   UNL     1     -34.643  20.478   0.515  0.00  0.00    +0.001 C 
ATOM     16  C   UNL     1     -35.682  19.724   1.065  0.00  0.00    +0.001 C 
ATOM     17  H   UNL     1     -34.719  24.300   2.373  0.00  0.00    +0.149 HD
ATOM     18  H   UNL     1     -37.742  22.078   3.957  0.00  0.00    +0.149 HD
ENDBRANCH   7  12
ENDBRANCH   5   7
ENDBRANCH   3   5
BRANCH   2  19
ATOM     19  N   UNL     1     -32.974  27.367   5.236  0.00  0.00    -0.126 NA
BRANCH  19  20
ATOM     20  C   UNL     1     -32.316  27.892   6.219  0.00  0.00    +0.141 C 
BRANCH  20  22
ATOM     21 BR   UNL     1     -27.255  29.367   6.832  0.00  0.00    -0.049 Br
ATOM     22  C   UNL     1     -31.298  28.936   6.007  0.00  0.00    +0.031 C 
ATOM     23  C   UNL     1     -31.639  30.127   5.386  0.00  0.00    +0.131 C 
ATOM     24  C   UNL     1     -30.003  28.697   6.441  0.00  0.00    +0.007 C 
ATOM     25  C   UNL     1     -30.662  31.104   5.194  0.00  0.00    +0.037 C 
ATOM     26  C   UNL     1     -29.026  29.674   6.249  0.00  0.00    +0.034 C 
ATOM     27  C   UNL     1     -29.355  30.877   5.626  0.00  0.00    +0.010 C 
BRANCH  23  28
ATOM     28  O   UNL     1     -32.910  30.367   4.956  0.00  0.00    -0.506 OA
ATOM     29  H   UNL     1     -33.146  30.190   4.068  0.00  0.00    +0.292 HD
ENDBRANCH  23  28
ENDBRANCH  20  22
ENDBRANCH  19  20
ENDBRANCH   2  19
TORSDOF 7
ENDMDL
MODEL 4
REMARK VINA RESULT:      -6.3      2.655      3.514
REMARK  Name = 5031329
REMARK  7 active torsions:
REMARK  status: ('A' for Active; 'I' for Inactive)
REMARK    1  A    between atoms: N_2  and  N_5
REMARK    2  A    between atoms: C_3  and  C_16
REMARK    3  A    between atoms: N_5  and  C_6
REMARK    4  A    between atoms: C_6  and  C_8
REMARK    5  A    between atoms: C_9  and  O_14
REMARK    6  A    between atoms: C_16  and  S_18
REMARK    7  A    between atoms: S_18  and  C_23
REMARK                            x       y       z     vdW  Elec       q    Type
REMARK                         _______ _______ _______ _____ _____    ______ ____
ROOT
ATOM      1  O   UNL     1     -37.463  21.921   0.310  0.00  0.00    -0.273 OA
ATOM      2  N   UNL     1     -37.212  20.386   2.027  0.00  0.00    -0.231 N 
ATOM      3  C   UNL     1     -37.811  21.462   1.396  0.00  0.00    +0.246 C 
ATOM      4  H   UNL     1     -37.542  20.069   2.899  0.00  0.00    +0.171 HD
ENDROOT
BRANCH   3   5
ATOM      5  C   UNL     1     -38.957  22.047   2.208  0.00  0.00    +0.128 C 
ATOM      6  C   UNL     1     -40.292  21.426   1.820  0.00  0.00    +0.022 C 
BRANCH   5   7
ATOM      7  S   UNL     1     -38.997  23.841   1.893  0.00  0.00    -0.093 S 
BRANCH   7  12
ATOM      8  N   UNL     1     -37.732  24.905   4.013  0.00  0.00    -0.309 N 
ATOM      9  N   UNL     1     -36.345  24.200   2.426  0.00  0.00    -0.309 N 
ATOM     10  C   UNL     1     -36.471  25.177   4.481  0.00  0.00    +0.060 C 
ATOM     11  C   UNL     1     -35.623  24.729   3.472  0.00  0.00    +0.060 C 
ATOM     12  C   UNL     1     -37.569  24.334   2.806  0.00  0.00    +0.196 C 
ATOM     13  C   UNL     1     -36.013  25.760   5.663  0.00  0.00    +0.016 C 
ATOM     14  C   UNL     1     -34.234  24.860   3.635  0.00  0.00    +0.016 C 
ATOM     15  C   UNL     1     -34.629  25.885   5.808  0.00  0.00    +0.001 C 
ATOM     16  C   UNL     1     -33.753  25.443   4.814  0.00  0.00    +0.001 C 
ATOM     17  H   UNL     1     -38.584  25.089   4.470  0.00  0.00    +0.149 HD
ATOM     18  H   UNL     1     -36.007  23.812   1.587  0.00  0.00    +0.149 HD
ENDBRANCH   7  12
ENDBRANCH   5   7
ENDBRANCH   3   5
BRANCH   2  19
ATOM     19  N   UNL     1     -36.165  19.778   1.425  0.00  0.00    -0.126 NA
BRANCH  19  20
ATOM     20  C   UNL     1     -35.019  20.058   1.958  0.00  0.00    +0.141 C 
BRANCH  20  22
ATOM     21 BR   UNL     1     -30.404  18.054   0.270  0.00  0.00    -0.049 Br
ATOM     22  C   UNL     1     -33.808  20.259   1.143  0.00  0.00    +0.031 C 
ATOM     23  C   UNL     1     -33.632  21.438   0.435  0.00  0.00    +0.131 C 
ATOM     24  C   UNL     1     -32.860  19.249   1.104  0.00  0.00    +0.007 C 
ATOM     25  C   UNL     1     -32.479  21.611  -0.331  0.00  0.00    +0.037 C 
ATOM     26  C   UNL     1     -31.707  19.421   0.338  0.00  0.00    +0.034 C 
ATOM     27  C   UNL     1     -31.516  20.602  -0.379  0.00  0.00    +0.010 C 
BRANCH  23  28
ATOM     28  O   UNL     1     -34.561  22.434   0.469  0.00  0.00    -0.506 OA
ATOM     29  H   UNL     1     -35.396  22.283   0.864  0.00  0.00    +0.292 HD
ENDBRANCH  23  28
ENDBRANCH  20  22
ENDBRANCH  19  20
ENDBRANCH   2  19
TORSDOF 7
ENDMDL
MODEL 5
REMARK VINA RESULT:      -6.2      3.518      7.474
REMARK  Name = 5031329
REMARK  7 active torsions:
REMARK  status: ('A' for Active; 'I' for Inactive)
REMARK    1  A    between atoms: N_2  and  N_5
REMARK    2  A    between atoms: C_3  and  C_16
REMARK    3  A    between atoms: N_5  and  C_6
REMARK    4  A    between atoms: C_6  and  C_8
REMARK    5  A    between atoms: C_9  and  O_14
REMARK    6  A    between atoms: C_16  and  S_18
REMARK    7  A    between atoms: S_18  and  C_23
REMARK                            x       y       z     vdW  Elec       q    Type
REMARK                         _______ _______ _______ _____ _____    ______ ____
ROOT
ATOM      1  O   UNL     1     -39.089  24.376   3.005  0.00  0.00    -0.273 OA
ATOM      2  N   UNL     1     -37.974  25.061   1.093  0.00  0.00    -0.231 N 
ATOM      3  C   UNL     1     -38.877  24.284   1.798  0.00  0.00    +0.246 C 
ATOM      4  H   UNL     1     -37.853  24.934   0.125  0.00  0.00    +0.171 HD
ENDROOT
BRANCH   3   5
ATOM      5  C   UNL     1     -39.584  23.269   0.912  0.00  0.00    +0.128 C 
ATOM      6  C   UNL     1     -40.941  23.780   0.448  0.00  0.00    +0.022 C 
BRANCH   5   7
ATOM      7  S   UNL     1     -39.800  21.744   1.885  0.00  0.00    -0.093 S 
BRANCH   7  12
ATOM      8  N   UNL     1     -37.218  21.177   2.374  0.00  0.00    -0.309 N 
ATOM      9  N   UNL     1     -38.010  20.167   0.560  0.00  0.00    -0.309 N 
ATOM     10  C   UNL     1     -36.169  20.448   1.873  0.00  0.00    +0.060 C 
ATOM     11  C   UNL     1     -36.688  19.828   0.740  0.00  0.00    +0.060 C 
ATOM     12  C   UNL     1     -38.256  20.957   1.548  0.00  0.00    +0.196 C 
ATOM     13  C   UNL     1     -34.850  20.285   2.299  0.00  0.00    +0.016 C 
ATOM     14  C   UNL     1     -35.859  18.990  -0.023  0.00  0.00    +0.016 C 
ATOM     15  C   UNL     1     -34.038  19.449   1.527  0.00  0.00    +0.001 C 
ATOM     16  C   UNL     1     -34.532  18.812   0.386  0.00  0.00    +0.001 C 
ATOM     17  H   UNL     1     -37.212  21.745   3.178  0.00  0.00    +0.149 HD
ATOM     18  H   UNL     1     -38.621  19.876  -0.154  0.00  0.00    +0.149 HD
ENDBRANCH   7  12
ENDBRANCH   5   7
ENDBRANCH   3   5
BRANCH   2  19
ATOM     19  N   UNL     1     -37.259  25.995   1.760  0.00  0.00    -0.126 NA
BRANCH  19  20
ATOM     20  C   UNL     1     -36.052  25.627   2.046  0.00  0.00    +0.141 C 
BRANCH  20  22
ATOM     21 BR   UNL     1     -35.143  21.916   5.730  0.00  0.00    -0.049 Br
ATOM     22  C   UNL     1     -35.634  25.333   3.428  0.00  0.00    +0.031 C 
ATOM     23  C   UNL     1     -35.288  26.365   4.287  0.00  0.00    +0.131 C 
ATOM     24  C   UNL     1     -35.597  24.011   3.843  0.00  0.00    +0.007 C 
ATOM     25  C   UNL     1     -34.894  26.067   5.592  0.00  0.00    +0.037 C 
ATOM     26  C   UNL     1     -35.203  23.713   5.147  0.00  0.00    +0.034 C 
ATOM     27  C   UNL     1     -34.852  24.741   6.022  0.00  0.00    +0.010 C 
BRANCH  23  28
ATOM     28  O   UNL     1     -35.322  27.667   3.885  0.00  0.00    -0.506 OA
ATOM     29  H   UNL     1     -34.524  28.134   3.740  0.00  0.00    +0.292 HD
ENDBRANCH  23  28
ENDBRANCH  20  22
ENDBRANCH  19  20
ENDBRANCH   2  19
TORSDOF 7
ENDMDL
MODEL 6
REMARK VINA RESULT:      -6.2      2.944      4.285
REMARK  Name = 5031329
REMARK  7 active torsions:
REMARK  status: ('A' for Active; 'I' for Inactive)
REMARK    1  A    between atoms: N_2  and  N_5
REMARK    2  A    between atoms: C_3  and  C_16
REMARK    3  A    between atoms: N_5  and  C_6
REMARK    4  A    between atoms: C_6  and  C_8
REMARK    5  A    between atoms: C_9  and  O_14
REMARK    6  A    between atoms: C_16  and  S_18
REMARK    7  A    between atoms: S_18  and  C_23
REMARK                            x       y       z     vdW  Elec       q    Type
REMARK                         _______ _______ _______ _____ _____    ______ ____
ROOT
ATOM      1  O   UNL     1     -34.771  23.809   2.683  0.00  0.00    -0.273 OA
ATOM      2  N   UNL     1     -35.988  22.050   3.575  0.00  0.00    -0.231 N 
ATOM      3  C   UNL     1     -35.176  23.169   3.651  0.00  0.00    +0.246 C 
ATOM      4  H   UNL     1     -36.275  21.584   4.392  0.00  0.00    +0.171 HD
ENDROOT
BRANCH   3   5
ATOM      5  C   UNL     1     -34.811  23.524   5.085  0.00  0.00    +0.128 C 
ATOM      6  C   UNL     1     -35.543  22.640   6.084  0.00  0.00    +0.022 C 
BRANCH   5   7
ATOM      7  S   UNL     1     -35.267  25.268   5.353  0.00  0.00    -0.093 S 
BRANCH   7  12
ATOM      8  N   UNL     1     -36.605  26.176   3.205  0.00  0.00    -0.309 N 
ATOM      9  N   UNL     1     -37.783  24.746   4.432  0.00  0.00    -0.309 N 
ATOM     10  C   UNL     1     -37.817  26.060   2.571  0.00  0.00    +0.060 C 
ATOM     11  C   UNL     1     -38.534  25.162   3.357  0.00  0.00    +0.060 C 
ATOM     12  C   UNL     1     -36.668  25.374   4.284  0.00  0.00    +0.196 C 
ATOM     13  C   UNL     1     -38.331  26.646   1.414  0.00  0.00    +0.016 C 
ATOM     14  C   UNL     1     -39.842  24.816   2.982  0.00  0.00    +0.016 C 
ATOM     15  C   UNL     1     -39.635  26.291   1.056  0.00  0.00    +0.001 C 
ATOM     16  C   UNL     1     -40.378  25.392   1.824  0.00  0.00    +0.001 C 
ATOM     17  H   UNL     1     -35.843  26.732   2.925  0.00  0.00    +0.149 HD
ATOM     18  H   UNL     1     -38.037  24.116   5.146  0.00  0.00    +0.149 HD
ENDBRANCH   7  12
ENDBRANCH   5   7
ENDBRANCH   3   5
BRANCH   2  19
ATOM     19  N   UNL     1     -36.376  21.609   2.357  0.00  0.00    -0.126 NA
BRANCH  19  20
ATOM     20  C   UNL     1     -35.834  20.487   2.008  0.00  0.00    +0.141 C 
BRANCH  20  22
ATOM     21 BR   UNL     1     -31.323  17.842   1.102  0.00  0.00    -0.049 Br
ATOM     22  C   UNL     1     -34.558  20.434   1.272  0.00  0.00    +0.031 C 
ATOM     23  C   UNL     1     -34.226  21.439   0.377  0.00  0.00    +0.131 C 
ATOM     24  C   UNL     1     -33.707  19.363   1.498  0.00  0.00    +0.007 C 
ATOM     25  C   UNL     1     -33.014  21.371  -0.311  0.00  0.00    +0.037 C 
ATOM     26  C   UNL     1     -32.495  19.295   0.810  0.00  0.00    +0.034 C 
ATOM     27  C   UNL     1     -32.149  20.299  -0.094  0.00  0.00    +0.010 C 
BRANCH  23  28
ATOM     28  O   UNL     1     -35.059  22.494   0.151  0.00  0.00    -0.506 OA
ATOM     29  H   UNL     1     -35.774  22.407  -0.447  0.00  0.00    +0.292 HD
ENDBRANCH  23  28
ENDBRANCH  20  22
ENDBRANCH  19  20
ENDBRANCH   2  19
TORSDOF 7
ENDMDL
MODEL 7
REMARK VINA RESULT:      -6.2      3.107      4.155
REMARK  Name = 5031329
REMARK  7 active torsions:
REMARK  status: ('A' for Active; 'I' for Inactive)
REMARK    1  A    between atoms: N_2  and  N_5
REMARK    2  A    between atoms: C_3  and  C_16
REMARK    3  A    between atoms: N_5  and  C_6
REMARK    4  A    between atoms: C_6  and  C_8
REMARK    5  A    between atoms: C_9  and  O_14
REMARK    6  A    between atoms: C_16  and  S_18
REMARK    7  A    between atoms: S_18  and  C_23
REMARK                            x       y       z     vdW  Elec       q    Type
REMARK                         _______ _______ _______ _____ _____    ______ ____
ROOT
ATOM      1  O   UNL     1     -39.262  23.300   0.050  0.00  0.00    -0.273 OA
ATOM      2  N   UNL     1     -38.920  22.612   2.236  0.00  0.00    -0.231 N 
ATOM      3  C   UNL     1     -39.426  23.451   1.258  0.00  0.00    +0.246 C 
ATOM      4  H   UNL     1     -39.090  22.792   3.188  0.00  0.00    +0.171 HD
ENDROOT
BRANCH   3   5
ATOM      5  C   UNL     1     -40.209  24.617   1.844  0.00  0.00    +0.128 C 
ATOM      6  C   UNL     1     -41.590  24.737   1.214  0.00  0.00    +0.022 C 
BRANCH   5   7
ATOM      7  S   UNL     1     -39.254  26.137   1.529  0.00  0.00    -0.093 S 
BRANCH   7  12
ATOM      8  N   UNL     1     -36.737  25.377   2.090  0.00  0.00    -0.309 N 
ATOM      9  N   UNL     1     -37.866  26.062   3.877  0.00  0.00    -0.309 N 
ATOM     10  C   UNL     1     -35.864  25.259   3.143  0.00  0.00    +0.060 C 
ATOM     11  C   UNL     1     -36.593  25.692   4.247  0.00  0.00    +0.060 C 
ATOM     12  C   UNL     1     -37.885  25.854   2.606  0.00  0.00    +0.196 C 
ATOM     13  C   UNL     1     -34.541  24.823   3.221  0.00  0.00    +0.016 C 
ATOM     14  C   UNL     1     -35.982  25.699   5.512  0.00  0.00    +0.016 C 
ATOM     15  C   UNL     1     -33.949  24.835   4.488  0.00  0.00    +0.001 C 
ATOM     16  C   UNL     1     -34.655  25.265   5.614  0.00  0.00    +0.001 C 
ATOM     17  H   UNL     1     -36.558  25.158   1.147  0.00  0.00    +0.149 HD
ATOM     18  H   UNL     1     -38.591  26.405   4.449  0.00  0.00    +0.149 HD
ENDBRANCH   7  12
ENDBRANCH   5   7
ENDBRANCH   3   5
BRANCH   2  19
ATOM     19  N   UNL     1     -38.186  21.541   1.857  0.00  0.00    -0.126 NA
BRANCH  19  20
ATOM     20  C   UNL     1     -36.998  21.513   2.368  0.00  0.00    +0.141 C 
BRANCH  20  22
ATOM     21 BR   UNL     1     -32.814  18.406   1.360  0.00  0.00    -0.049 Br
ATOM     22  C   UNL     1     -35.800  21.283   1.542  0.00  0.00    +0.031 C 
ATOM     23  C   UNL     1     -35.465  22.173   0.533  0.00  0.00    +0.131 C 
ATOM     24  C   UNL     1     -35.023  20.163   1.799  0.00  0.00    +0.007 C 
ATOM     25  C   UNL     1     -34.327  21.938  -0.239  0.00  0.00    +0.037 C 
ATOM     26  C   UNL     1     -33.885  19.928   1.027  0.00  0.00    +0.034 C 
ATOM     27  C   UNL     1     -33.537  20.816   0.009  0.00  0.00    +0.010 C 
BRANCH  23  28
ATOM     28  O   UNL     1     -36.225  23.274   0.276  0.00  0.00    -0.506 OA
ATOM     29  H   UNL     1     -36.333  23.575  -0.604  0.00  0.00    +0.292 HD
ENDBRANCH  23  28
ENDBRANCH  20  22
ENDBRANCH  19  20
ENDBRANCH   2  19
TORSDOF 7
ENDMDL
MODEL 8
REMARK VINA RESULT:      -6.2      3.024      4.466
REMARK  Name = 5031329
REMARK  7 active torsions:
REMARK  status: ('A' for Active; 'I' for Inactive)
REMARK    1  A    between atoms: N_2  and  N_5
REMARK    2  A    between atoms: C_3  and  C_16
REMARK    3  A    between atoms: N_5  and  C_6
REMARK    4  A    between atoms: C_6  and  C_8
REMARK    5  A    between atoms: C_9  and  O_14
REMARK    6  A    between atoms: C_16  and  S_18
REMARK    7  A    between atoms: S_18  and  C_23
REMARK                            x       y       z     vdW  Elec       q    Type
REMARK                         _______ _______ _______ _____ _____    ______ ____
ROOT
ATOM      1  O   UNL     1     -39.223  23.009   0.386  0.00  0.00    -0.273 OA
ATOM      2  N   UNL     1     -37.430  24.434   0.036  0.00  0.00    -0.231 N 
ATOM      3  C   UNL     1     -38.719  24.128   0.438  0.00  0.00    +0.246 C 
ATOM      4  H   UNL     1     -37.089  25.354   0.105  0.00  0.00    +0.171 HD
ENDROOT
BRANCH   3   5
ATOM      5  C   UNL     1     -39.473  25.349   0.945  0.00  0.00    +0.128 C 
ATOM      6  C   UNL     1     -38.602  26.597   0.916  0.00  0.00    +0.022 C 
BRANCH   5   7
ATOM      7  S   UNL     1     -39.996  25.002   2.656  0.00  0.00    -0.093 S 
BRANCH   7  12
ATOM      8  N   UNL     1     -37.739  23.815   3.507  0.00  0.00    -0.309 N 
ATOM      9  N   UNL     1     -37.829  25.982   3.994  0.00  0.00    -0.309 N 
ATOM     10  C   UNL     1     -36.568  24.091   4.167  0.00  0.00    +0.060 C 
ATOM     11  C   UNL     1     -36.649  25.450   4.461  0.00  0.00    +0.060 C 
ATOM     12  C   UNL     1     -38.419  24.975   3.447  0.00  0.00    +0.196 C 
ATOM     13  C   UNL     1     -35.480  23.294   4.522  0.00  0.00    +0.016 C 
ATOM     14  C   UNL     1     -35.590  26.066   5.147  0.00  0.00    +0.016 C 
ATOM     15  C   UNL     1     -34.436  23.923   5.206  0.00  0.00    +0.001 C 
ATOM     16  C   UNL     1     -34.487  25.285   5.514  0.00  0.00    +0.001 C 
ATOM     17  H   UNL     1     -38.023  22.944   3.147  0.00  0.00    +0.149 HD
ATOM     18  H   UNL     1     -38.147  26.911   4.061  0.00  0.00    +0.149 HD
ENDBRANCH   7  12
ENDBRANCH   5   7
ENDBRANCH   3   5
BRANCH   2  19
ATOM     19  N   UNL     1     -36.649  23.445  -0.454  0.00  0.00    -0.126 NA
BRANCH  19  20
ATOM     20  C   UNL     1     -35.513  23.323   0.154  0.00  0.00    +0.141 C 
BRANCH  20  22
ATOM     21 BR   UNL     1     -31.508  19.844   0.033  0.00  0.00    -0.049 Br
ATOM     22  C   UNL     1     -35.000  22.013   0.592  0.00  0.00    +0.031 C 
ATOM     23  C   UNL     1     -35.774  21.195   1.399  0.00  0.00    +0.131 C 
ATOM     24  C   UNL     1     -33.734  21.625   0.179  0.00  0.00    +0.007 C 
ATOM     25  C   UNL     1     -35.271  19.958   1.804  0.00  0.00    +0.037 C 
ATOM     26  C   UNL     1     -33.231  20.389   0.583  0.00  0.00    +0.034 C 
ATOM     27  C   UNL     1     -34.000  19.555   1.396  0.00  0.00    +0.010 C 
BRANCH  23  28
ATOM     28  O   UNL     1     -37.018  21.571   1.809  0.00  0.00    -0.506 OA
ATOM     29  H   UNL     1     -37.172  21.781   2.708  0.00  0.00    +0.292 HD
ENDBRANCH  23  28
ENDBRANCH  20  22
ENDBRANCH  19  20
ENDBRANCH   2  19
TORSDOF 7
ENDMDL
MODEL 9
REMARK VINA RESULT:      -6.1      5.364      7.700
REMARK  Name = 5031329
REMARK  7 active torsions:
REMARK  status: ('A' for Active; 'I' for Inactive)
REMARK    1  A    between atoms: N_2  and  N_5
REMARK    2  A    between atoms: C_3  and  C_16
REMARK    3  A    between atoms: N_5  and  C_6
REMARK    4  A    between atoms: C_6  and  C_8
REMARK    5  A    between atoms: C_9  and  O_14
REMARK    6  A    between atoms: C_16  and  S_18
REMARK    7  A    between atoms: S_18  and  C_23
REMARK                            x       y       z     vdW  Elec       q    Type
REMARK                         _______ _______ _______ _____ _____    ______ ____
ROOT
ATOM      1  O   UNL     1     -33.154  25.317   4.460  0.00  0.00    -0.273 OA
ATOM      2  N   UNL     1     -33.528  27.037   5.968  0.00  0.00    -0.231 N 
ATOM      3  C   UNL     1     -33.922  26.049   5.081  0.00  0.00    +0.246 C 
ATOM      4  H   UNL     1     -34.197  27.589   6.432  0.00  0.00    +0.171 HD
ENDROOT
BRANCH   3   5
ATOM      5  C   UNL     1     -35.434  25.973   4.933  0.00  0.00    +0.128 C 
ATOM      6  C   UNL     1     -35.966  24.600   5.321  0.00  0.00    +0.022 C 
BRANCH   5   7
ATOM      7  S   UNL     1     -35.835  26.318   3.189  0.00  0.00    -0.093 S 
BRANCH   7  12
ATOM      8  N   UNL     1     -33.739  27.752   2.308  0.00  0.00    -0.309 N 
ATOM      9  N   UNL     1     -35.256  28.979   3.372  0.00  0.00    -0.309 N 
ATOM     10  C   UNL     1     -33.255  29.036   2.284  0.00  0.00    +0.060 C 
ATOM     11  C   UNL     1     -34.220  29.782   2.955  0.00  0.00    +0.060 C 
ATOM     12  C   UNL     1     -34.913  27.806   2.963  0.00  0.00    +0.196 C 
ATOM     13  C   UNL     1     -32.092  29.591   1.750  0.00  0.00    +0.016 C 
ATOM     14  C   UNL     1     -34.031  31.166   3.110  0.00  0.00    +0.016 C 
ATOM     15  C   UNL     1     -31.919  30.969   1.915  0.00  0.00    +0.001 C 
ATOM     16  C   UNL     1     -32.870  31.744   2.582  0.00  0.00    +0.001 C 
ATOM     17  H   UNL     1     -33.313  26.953   1.923  0.00  0.00    +0.149 HD
ATOM     18  H   UNL     1     -36.068  29.238   3.866  0.00  0.00    +0.149 HD
ENDBRANCH   7  12
ENDBRANCH   5   7
ENDBRANCH   3   5
BRANCH   2  19
ATOM     19  N   UNL     1     -32.207  27.229   6.183  0.00  0.00    -0.126 NA
BRANCH  19  20
ATOM     20  C   UNL     1     -31.891  28.457   6.439  0.00  0.00    +0.141 C 
BRANCH  20  22
ATOM     21 BR   UNL     1     -29.288  32.439   4.087  0.00  0.00    -0.049 Br
ATOM     22  C   UNL     1     -30.586  29.023   6.052  0.00  0.00    +0.031 C 
ATOM     23  C   UNL     1     -29.414  28.349   6.357  0.00  0.00    +0.131 C 
ATOM     24  C   UNL     1     -30.564  30.235   5.378  0.00  0.00    +0.007 C 
ATOM     25  C   UNL     1     -28.189  28.901   5.982  0.00  0.00    +0.037 C 
ATOM     26  C   UNL     1     -29.339  30.787   5.003  0.00  0.00    +0.034 C 
ATOM     27  C   UNL     1     -28.152  30.120   5.305  0.00  0.00    +0.010 C 
BRANCH  23  28
ATOM     28  O   UNL     1     -29.430  27.158   7.019  0.00  0.00    -0.506 OA
ATOM     29  H   UNL     1     -29.481  27.142   7.954  0.00  0.00    +0.292 HD
ENDBRANCH  23  28
ENDBRANCH  20  22
ENDBRANCH  19  20
ENDBRANCH   2  19
TORSDOF 7
ENDMDL
