MODEL 1
REMARK VINA RESULT:      -7.0      0.000      0.000
REMARK  Name = 193324
REMARK  5 active torsions:
REMARK  status: ('A' for Active; 'I' for Inactive)
REMARK    1  A    between atoms: C_8  and  C_24
REMARK    2  A    between atoms: C_9  and  O_21
REMARK    3  A    between atoms: C_24  and  C_25
REMARK    4  A    between atoms: C_25  and  O_26
REMARK    5  A    between atoms: O_26  and  S_27
REMARK                            x       y       z     vdW  Elec       q    Type
REMARK                         _______ _______ _______ _____ _____    ______ ____
ROOT
ATOM      1  O   UNL     1     -34.598  21.755   6.325  0.00  0.00    -0.291 OA
ATOM      2  C   UNL     1     -40.456  25.434   1.486  0.00  0.00    +0.009 C 
ATOM      3  C   UNL     1     -40.045  23.949   1.505  0.00  0.00    +0.001 C 
ATOM      4  C   UNL     1     -38.542  23.735   1.732  0.00  0.00    +0.003 C 
ATOM      5  C   UNL     1     -38.152  24.358   3.112  0.00  0.00    +0.030 C 
ATOM      6  C   UNL     1     -36.639  24.099   3.499  0.00  0.00    +0.018 C 
ATOM      7  C   UNL     1     -40.121  26.031   2.865  0.00  0.00    +0.030 C 
ATOM      8  C   UNL     1     -41.970  25.267   1.215  0.00  0.00    +0.060 C 
ATOM      9  C   UNL     1     -38.642  25.834   3.262  0.00  0.00    +0.111 C 
ATOM     10  C   UNL     1     -40.700  23.386   0.247  0.00  0.00    +0.000 C 
ATOM     11  C   UNL     1     -38.206  22.236   1.708  0.00  0.00    +0.004 C 
ATOM     12  C   UNL     1     -42.048  24.126   0.178  0.00  0.00    +0.007 C 
ATOM     13  C   UNL     1     -39.791  26.252   0.349  0.00  0.00    +0.001 C 
ATOM     14  C   UNL     1     -36.324  22.606   3.328  0.00  0.00    -0.042 C 
ATOM     15  C   UNL     1     -36.739  21.980   2.019  0.00  0.00    +0.022 C 
ATOM     16  C   UNL     1     -36.443  24.517   4.985  0.00  0.00    +0.012 C 
ATOM     17  C   UNL     1     -35.633  24.879   2.622  0.00  0.00    +0.004 C 
ATOM     18  C   UNL     1     -35.169  23.967   5.608  0.00  0.00    +0.069 C 
ATOM     19  C   UNL     1     -35.684  21.862   4.244  0.00  0.00    +0.029 C 
ATOM     20  C   UNL     1     -35.133  22.467   5.478  0.00  0.00    +0.173 C 
ENDROOT
BRANCH   9  21
ATOM     21  O   UNL     1     -37.832  26.724   2.506  0.00  0.00    -0.384 OA
ATOM     22  H   UNL     1     -38.239  27.605   2.500  0.00  0.00    +0.210 HD
ENDBRANCH   9  21
BRANCH   8  24
ATOM     23  O   UNL     1     -42.518  26.926  -0.402  0.00  0.00    -0.293 OA
ATOM     24  C   UNL     1     -42.655  26.514   0.749  0.00  0.00    +0.183 C 
BRANCH  24  25
ATOM     25  C   UNL     1     -43.516  27.228   1.770  0.00  0.00    +0.241 C 
BRANCH  25  26
ATOM     26  O   UNL     1     -42.776  28.230   2.433  0.00  0.00    -0.192 OA
BRANCH  26  27
ATOM     27  S   UNL     1     -43.165  28.660   3.967  0.00  0.00    +0.239 S 
ATOM     28  O   UNL     1     -43.852  30.129   3.788  0.00  0.00    -0.022 OA
ATOM     29  O   UNL     1     -44.194  27.750   4.434  0.00  0.00    -0.116 OA
ATOM     30  O   UNL     1     -41.941  28.830   4.727  0.00  0.00    -0.116 OA
ENDBRANCH  26  27
ENDBRANCH  25  26
ENDBRANCH  24  25
ENDBRANCH   8  24
TORSDOF 5
ENDMDL
MODEL 2
REMARK VINA RESULT:      -6.6      4.593      7.434
REMARK  Name = 193324
REMARK  5 active torsions:
REMARK  status: ('A' for Active; 'I' for Inactive)
REMARK    1  A    between atoms: C_8  and  C_24
REMARK    2  A    between atoms: C_9  and  O_21
REMARK    3  A    between atoms: C_24  and  C_25
REMARK    4  A    between atoms: C_25  and  O_26
REMARK    5  A    between atoms: O_26  and  S_27
REMARK                            x       y       z     vdW  Elec       q    Type
REMARK                         _______ _______ _______ _____ _____    ______ ____
ROOT
ATOM      1  O   UNL     1     -33.454  16.659  -3.056  0.00  0.00    -0.291 OA
ATOM      2  C   UNL     1     -35.760  22.895   2.147  0.00  0.00    +0.009 C 
ATOM      3  C   UNL     1     -34.810  22.980   0.937  0.00  0.00    +0.001 C 
ATOM      4  C   UNL     1     -33.929  21.734   0.764  0.00  0.00    +0.003 C 
ATOM      5  C   UNL     1     -34.856  20.491   0.561  0.00  0.00    +0.030 C 
ATOM      6  C   UNL     1     -34.048  19.162   0.265  0.00  0.00    +0.018 C 
ATOM      7  C   UNL     1     -36.708  21.703   1.918  0.00  0.00    +0.030 C 
ATOM      8  C   UNL     1     -36.438  24.281   2.025  0.00  0.00    +0.060 C 
ATOM      9  C   UNL     1     -35.956  20.378   1.665  0.00  0.00    +0.111 C 
ATOM     10  C   UNL     1     -34.151  24.346   1.100  0.00  0.00    +0.000 C 
ATOM     11  C   UNL     1     -32.992  21.904  -0.440  0.00  0.00    +0.004 C 
ATOM     12  C   UNL     1     -35.289  25.235   1.637  0.00  0.00    +0.007 C 
ATOM     13  C   UNL     1     -35.028  22.770   3.508  0.00  0.00    +0.001 C 
ATOM     14  C   UNL     1     -33.034  19.429  -0.857  0.00  0.00    -0.042 C 
ATOM     15  C   UNL     1     -32.166  20.653  -0.696  0.00  0.00    +0.022 C 
ATOM     16  C   UNL     1     -35.063  18.070  -0.183  0.00  0.00    +0.012 C 
ATOM     17  C   UNL     1     -33.252  18.638   1.482  0.00  0.00    +0.004 C 
ATOM     18  C   UNL     1     -34.411  16.882  -0.872  0.00  0.00    +0.069 C 
ATOM     19  C   UNL     1     -32.862  18.630  -1.922  0.00  0.00    +0.029 C 
ATOM     20  C   UNL     1     -33.589  17.346  -2.046  0.00  0.00    +0.173 C 
ENDROOT
BRANCH   9  21
ATOM     21  O   UNL     1     -35.410  19.909   2.890  0.00  0.00    -0.384 OA
ATOM     22  H   UNL     1     -35.879  20.323   3.633  0.00  0.00    +0.210 HD
ENDBRANCH   9  21
BRANCH   8  24
ATOM     23  O   UNL     1     -38.175  24.146   3.647  0.00  0.00    -0.293 OA
ATOM     24  C   UNL     1     -37.161  24.725   3.259  0.00  0.00    +0.183 C 
BRANCH  24  25
ATOM     25  C   UNL     1     -36.575  25.914   3.990  0.00  0.00    +0.241 C 
BRANCH  25  26
ATOM     26  O   UNL     1     -35.662  25.490   4.979  0.00  0.00    -0.192 OA
BRANCH  26  27
ATOM     27  S   UNL     1     -34.188  26.200   5.093  0.00  0.00    +0.239 S 
ATOM     28  O   UNL     1     -34.368  27.590   4.259  0.00  0.00    -0.022 OA
ATOM     29  O   UNL     1     -33.971  26.549   6.484  0.00  0.00    -0.116 OA
ATOM     30  O   UNL     1     -33.220  25.379   4.388  0.00  0.00    -0.116 OA
ENDBRANCH  26  27
ENDBRANCH  25  26
ENDBRANCH  24  25
ENDBRANCH   8  24
TORSDOF 5
ENDMDL
MODEL 3
REMARK VINA RESULT:      -6.6      5.148      7.698
REMARK  Name = 193324
REMARK  5 active torsions:
REMARK  status: ('A' for Active; 'I' for Inactive)
REMARK    1  A    between atoms: C_8  and  C_24
REMARK    2  A    between atoms: C_9  and  O_21
REMARK    3  A    between atoms: C_24  and  C_25
REMARK    4  A    between atoms: C_25  and  O_26
REMARK    5  A    between atoms: O_26  and  S_27
REMARK                            x       y       z     vdW  Elec       q    Type
REMARK                         _______ _______ _______ _____ _____    ______ ____
ROOT
ATOM      1  O   UNL     1     -34.192  18.711  -2.879  0.00  0.00    -0.291 OA
ATOM      2  C   UNL     1     -35.196  24.213   3.445  0.00  0.00    +0.009 C 
ATOM      3  C   UNL     1     -35.210  22.674   3.523  0.00  0.00    +0.001 C 
ATOM      4  C   UNL     1     -35.869  22.008   2.307  0.00  0.00    +0.003 C 
ATOM      5  C   UNL     1     -35.076  22.416   1.023  0.00  0.00    +0.030 C 
ATOM      6  C   UNL     1     -35.606  21.696  -0.284  0.00  0.00    +0.018 C 
ATOM      7  C   UNL     1     -34.368  24.613   2.211  0.00  0.00    +0.030 C 
ATOM      8  C   UNL     1     -34.512  24.521   4.799  0.00  0.00    +0.060 C 
ATOM      9  C   UNL     1     -34.880  23.961   0.907  0.00  0.00    +0.111 C 
ATOM     10  C   UNL     1     -35.761  22.396   4.918  0.00  0.00    +0.000 C 
ATOM     11  C   UNL     1     -35.872  20.481   2.470  0.00  0.00    +0.004 C 
ATOM     12  C   UNL     1     -35.139  23.510   5.781  0.00  0.00    +0.007 C 
ATOM     13  C   UNL     1     -36.609  24.849   3.397  0.00  0.00    +0.001 C 
ATOM     14  C   UNL     1     -35.716  20.188  -0.018  0.00  0.00    -0.042 C 
ATOM     15  C   UNL     1     -36.438  19.781   1.243  0.00  0.00    +0.022 C 
ATOM     16  C   UNL     1     -34.586  21.962  -1.429  0.00  0.00    +0.012 C 
ATOM     17  C   UNL     1     -37.003  22.181  -0.734  0.00  0.00    +0.004 C 
ATOM     18  C   UNL     1     -34.748  21.025  -2.616  0.00  0.00    +0.069 C 
ATOM     19  C   UNL     1     -35.247  19.242  -0.847  0.00  0.00    +0.029 C 
ATOM     20  C   UNL     1     -34.662  19.592  -2.162  0.00  0.00    +0.173 C 
ENDROOT
BRANCH   9  21
ATOM     21  O   UNL     1     -36.081  24.605   0.503  0.00  0.00    -0.384 OA
ATOM     22  H   UNL     1     -36.283  24.364  -0.415  0.00  0.00    +0.210 HD
ENDBRANCH   9  21
BRANCH   8  24
ATOM     23  O   UNL     1     -35.643  26.296   5.912  0.00  0.00    -0.293 OA
ATOM     24  C   UNL     1     -34.664  25.939   5.258  0.00  0.00    +0.183 C 
BRANCH  24  25
ATOM     25  C   UNL     1     -33.553  26.892   4.872  0.00  0.00    +0.241 C 
BRANCH  25  26
ATOM     26  O   UNL     1     -32.952  27.448   6.022  0.00  0.00    -0.192 OA
BRANCH  26  27
ATOM     27  S   UNL     1     -31.837  28.640   5.871  0.00  0.00    +0.239 S 
ATOM     28  O   UNL     1     -32.542  29.693   4.843  0.00  0.00    -0.022 OA
ATOM     29  O   UNL     1     -31.716  29.300   7.157  0.00  0.00    -0.116 OA
ATOM     30  O   UNL     1     -30.661  28.098   5.216  0.00  0.00    -0.116 OA
ENDBRANCH  26  27
ENDBRANCH  25  26
ENDBRANCH  24  25
ENDBRANCH   8  24
TORSDOF 5
ENDMDL
MODEL 4
REMARK VINA RESULT:      -6.6      5.914      9.972
REMARK  Name = 193324
REMARK  5 active torsions:
REMARK  status: ('A' for Active; 'I' for Inactive)
REMARK    1  A    between atoms: C_8  and  C_24
REMARK    2  A    between atoms: C_9  and  O_21
REMARK    3  A    between atoms: C_24  and  C_25
REMARK    4  A    between atoms: C_25  and  O_26
REMARK    5  A    between atoms: O_26  and  S_27
REMARK                            x       y       z     vdW  Elec       q    Type
REMARK                         _______ _______ _______ _____ _____    ______ ____
ROOT
ATOM      1  O   UNL     1     -35.128  26.611   5.249  0.00  0.00    -0.291 OA
ATOM      2  C   UNL     1     -34.711  19.756   0.339  0.00  0.00    +0.009 C 
ATOM      3  C   UNL     1     -34.459  21.221  -0.064  0.00  0.00    +0.001 C 
ATOM      4  C   UNL     1     -35.388  22.217   0.645  0.00  0.00    +0.003 C 
ATOM      5  C   UNL     1     -35.164  22.099   2.188  0.00  0.00    +0.030 C 
ATOM      6  C   UNL     1     -35.996  23.162   3.014  0.00  0.00    +0.018 C 
ATOM      7  C   UNL     1     -34.436  19.630   1.849  0.00  0.00    +0.030 C 
ATOM      8  C   UNL     1     -33.656  19.068  -0.560  0.00  0.00    +0.060 C 
ATOM      9  C   UNL     1     -35.261  20.625   2.695  0.00  0.00    +0.111 C 
ATOM     10  C   UNL     1     -34.440  21.170  -1.588  0.00  0.00    +0.000 C 
ATOM     11  C   UNL     1     -35.097  23.649   0.171  0.00  0.00    +0.004 C 
ATOM     12  C   UNL     1     -33.737  19.834  -1.897  0.00  0.00    +0.007 C 
ATOM     13  C   UNL     1     -36.133  19.247  -0.011  0.00  0.00    +0.001 C 
ATOM     14  C   UNL     1     -35.772  24.556   2.412  0.00  0.00    -0.042 C 
ATOM     15  C   UNL     1     -35.938  24.674   0.917  0.00  0.00    +0.022 C 
ATOM     16  C   UNL     1     -35.493  23.130   4.487  0.00  0.00    +0.012 C 
ATOM     17  C   UNL     1     -37.520  22.901   3.000  0.00  0.00    +0.004 C 
ATOM     18  C   UNL     1     -35.909  24.348   5.297  0.00  0.00    +0.069 C 
ATOM     19  C   UNL     1     -35.480  25.650   3.134  0.00  0.00    +0.029 C 
ATOM     20  C   UNL     1     -35.450  25.609   4.614  0.00  0.00    +0.173 C 
ENDROOT
BRANCH   9  21
ATOM     21  O   UNL     1     -36.612  20.186   2.746  0.00  0.00    -0.384 OA
ATOM     22  H   UNL     1     -36.636  19.218   2.801  0.00  0.00    +0.210 HD
ENDBRANCH   9  21
BRANCH   8  24
ATOM     23  O   UNL     1     -34.432  17.137  -1.716  0.00  0.00    -0.293 OA
ATOM     24  C   UNL     1     -33.856  17.594  -0.729  0.00  0.00    +0.183 C 
BRANCH  24  25
ATOM     25  C   UNL     1     -33.314  16.711   0.375  0.00  0.00    +0.241 C 
BRANCH  25  26
ATOM     26  O   UNL     1     -31.981  17.060   0.682  0.00  0.00    -0.192 OA
BRANCH  26  27
ATOM     27  S   UNL     1     -30.739  16.212   0.029  0.00  0.00    +0.239 S 
ATOM     28  O   UNL     1     -31.118  14.661   0.365  0.00  0.00    -0.022 OA
ATOM     29  O   UNL     1     -30.799  16.375  -1.411  0.00  0.00    -0.116 OA
ATOM     30  O   UNL     1     -29.522  16.540   0.750  0.00  0.00    -0.116 OA
ENDBRANCH  26  27
ENDBRANCH  25  26
ENDBRANCH  24  25
ENDBRANCH   8  24
TORSDOF 5
ENDMDL
MODEL 5
REMARK VINA RESULT:      -6.5      4.033      7.849
REMARK  Name = 193324
REMARK  5 active torsions:
REMARK  status: ('A' for Active; 'I' for Inactive)
REMARK    1  A    between atoms: C_8  and  C_24
REMARK    2  A    between atoms: C_9  and  O_21
REMARK    3  A    between atoms: C_24  and  C_25
REMARK    4  A    between atoms: C_25  and  O_26
REMARK    5  A    between atoms: O_26  and  S_27
REMARK                            x       y       z     vdW  Elec       q    Type
REMARK                         _______ _______ _______ _____ _____    ______ ____
ROOT
ATOM      1  O   UNL     1     -41.006  22.768  -2.139  0.00  0.00    -0.291 OA
ATOM      2  C   UNL     1     -35.758  25.358   3.945  0.00  0.00    +0.009 C 
ATOM      3  C   UNL     1     -35.992  23.917   3.452  0.00  0.00    +0.001 C 
ATOM      4  C   UNL     1     -37.453  23.631   3.076  0.00  0.00    +0.003 C 
ATOM      5  C   UNL     1     -37.873  24.605   1.928  0.00  0.00    +0.030 C 
ATOM      6  C   UNL     1     -39.334  24.325   1.386  0.00  0.00    +0.018 C 
ATOM      7  C   UNL     1     -36.120  26.313   2.793  0.00  0.00    +0.030 C 
ATOM      8  C   UNL     1     -34.243  25.271   4.248  0.00  0.00    +0.060 C 
ATOM      9  C   UNL     1     -37.554  26.097   2.263  0.00  0.00    +0.111 C 
ATOM     10  C   UNL     1     -35.313  23.064   4.520  0.00  0.00    +0.000 C 
ATOM     11  C   UNL     1     -37.613  22.172   2.625  0.00  0.00    +0.004 C 
ATOM     12  C   UNL     1     -34.062  23.881   4.894  0.00  0.00    +0.007 C 
ATOM     13  C   UNL     1     -36.546  25.715   5.232  0.00  0.00    +0.001 C 
ATOM     14  C   UNL     1     -39.478  22.827   1.077  0.00  0.00    -0.042 C 
ATOM     15  C   UNL     1     -39.031  21.876   2.159  0.00  0.00    +0.022 C 
ATOM     16  C   UNL     1     -39.535  25.158   0.086  0.00  0.00    +0.012 C 
ATOM     17  C   UNL     1     -40.448  24.690   2.393  0.00  0.00    +0.004 C 
ATOM     18  C   UNL     1     -40.717  24.699  -0.753  0.00  0.00    +0.069 C 
ATOM     19  C   UNL     1     -40.000  22.340  -0.059  0.00  0.00    +0.029 C 
ATOM     20  C   UNL     1     -40.582  23.236  -1.084  0.00  0.00    +0.173 C 
ENDROOT
BRANCH   9  21
ATOM     21  O   UNL     1     -38.483  26.625   3.200  0.00  0.00    -0.384 OA
ATOM     22  H   UNL     1     -38.033  27.260   3.779  0.00  0.00    +0.210 HD
ENDBRANCH   9  21
BRANCH   8  24
ATOM     23  O   UNL     1     -33.744  26.295   6.338  0.00  0.00    -0.293 OA
ATOM     24  C   UNL     1     -33.721  26.378   5.111  0.00  0.00    +0.183 C 
BRANCH  24  25
ATOM     25  C   UNL     1     -33.171  27.590   4.389  0.00  0.00    +0.241 C 
BRANCH  25  26
ATOM     26  O   UNL     1     -31.760  27.599   4.435  0.00  0.00    -0.192 OA
BRANCH  26  27
ATOM     27  S   UNL     1     -30.979  28.584   5.488  0.00  0.00    +0.239 S 
ATOM     28  O   UNL     1     -32.187  29.234   6.370  0.00  0.00    -0.022 OA
ATOM     29  O   UNL     1     -30.190  27.750   6.374  0.00  0.00    -0.116 OA
ATOM     30  O   UNL     1     -30.347  29.656   4.740  0.00  0.00    -0.116 OA
ENDBRANCH  26  27
ENDBRANCH  25  26
ENDBRANCH  24  25
ENDBRANCH   8  24
TORSDOF 5
ENDMDL
MODEL 6
REMARK VINA RESULT:      -6.4      5.794      8.866
REMARK  Name = 193324
REMARK  5 active torsions:
REMARK  status: ('A' for Active; 'I' for Inactive)
REMARK    1  A    between atoms: C_8  and  C_24
REMARK    2  A    between atoms: C_9  and  O_21
REMARK    3  A    between atoms: C_24  and  C_25
REMARK    4  A    between atoms: C_25  and  O_26
REMARK    5  A    between atoms: O_26  and  S_27
REMARK                            x       y       z     vdW  Elec       q    Type
REMARK                         _______ _______ _______ _____ _____    ______ ____
ROOT
ATOM      1  O   UNL     1     -35.112  19.120   1.053  0.00  0.00    -0.291 OA
ATOM      2  C   UNL     1     -33.329  26.853   3.934  0.00  0.00    +0.009 C 
ATOM      3  C   UNL     1     -33.687  25.600   4.756  0.00  0.00    +0.001 C 
ATOM      4  C   UNL     1     -34.743  24.711   4.084  0.00  0.00    +0.003 C 
ATOM      5  C   UNL     1     -34.189  24.235   2.701  0.00  0.00    +0.030 C 
ATOM      6  C   UNL     1     -35.156  23.221   1.966  0.00  0.00    +0.018 C 
ATOM      7  C   UNL     1     -32.733  26.382   2.595  0.00  0.00    +0.030 C 
ATOM      8  C   UNL     1     -32.303  27.495   4.898  0.00  0.00    +0.060 C 
ATOM      9  C   UNL     1     -33.666  25.420   1.827  0.00  0.00    +0.111 C 
ATOM     10  C   UNL     1     -33.956  26.157   6.150  0.00  0.00    +0.000 C 
ATOM     11  C   UNL     1     -35.069  23.502   4.973  0.00  0.00    +0.004 C 
ATOM     12  C   UNL     1     -32.910  27.278   6.300  0.00  0.00    +0.007 C 
ATOM     13  C   UNL     1     -34.526  27.812   3.703  0.00  0.00    +0.001 C 
ATOM     14  C   UNL     1     -35.555  22.106   2.944  0.00  0.00    -0.042 C 
ATOM     15  C   UNL     1     -36.046  22.550   4.300  0.00  0.00    +0.022 C 
ATOM     16  C   UNL     1     -34.390  22.616   0.753  0.00  0.00    +0.012 C 
ATOM     17  C   UNL     1     -36.464  23.869   1.459  0.00  0.00    +0.004 C 
ATOM     18  C   UNL     1     -35.032  21.355   0.197  0.00  0.00    +0.069 C 
ATOM     19  C   UNL     1     -35.523  20.797   2.647  0.00  0.00    +0.029 C 
ATOM     20  C   UNL     1     -35.186  20.325   1.285  0.00  0.00    +0.173 C 
ENDROOT
BRANCH   9  21
ATOM     21  O   UNL     1     -34.741  26.160   1.266  0.00  0.00    -0.384 OA
ATOM     22  H   UNL     1     -34.397  26.773   0.597  0.00  0.00    +0.210 HD
ENDBRANCH   9  21
BRANCH   8  24
ATOM     23  O   UNL     1     -32.728  29.832   5.055  0.00  0.00    -0.293 OA
ATOM     24  C   UNL     1     -32.008  28.936   4.616  0.00  0.00    +0.183 C 
BRANCH  24  25
ATOM     25  C   UNL     1     -30.786  29.218   3.769  0.00  0.00    +0.241 C 
BRANCH  25  26
ATOM     26  O   UNL     1     -29.640  29.364   4.580  0.00  0.00    -0.192 OA
BRANCH  26  27
ATOM     27  S   UNL     1     -28.659  28.079   4.855  0.00  0.00    +0.239 S 
ATOM     28  O   UNL     1     -29.152  27.526   6.308  0.00  0.00    -0.022 OA
ATOM     29  O   UNL     1     -28.974  27.062   3.869  0.00  0.00    -0.116 OA
ATOM     30  O   UNL     1     -27.296  28.557   4.999  0.00  0.00    -0.116 OA
ENDBRANCH  26  27
ENDBRANCH  25  26
ENDBRANCH  24  25
ENDBRANCH   8  24
TORSDOF 5
ENDMDL
MODEL 7
REMARK VINA RESULT:      -6.4      5.808      9.212
REMARK  Name = 193324
REMARK  5 active torsions:
REMARK  status: ('A' for Active; 'I' for Inactive)
REMARK    1  A    between atoms: C_8  and  C_24
REMARK    2  A    between atoms: C_9  and  O_21
REMARK    3  A    between atoms: C_24  and  C_25
REMARK    4  A    between atoms: C_25  and  O_26
REMARK    5  A    between atoms: O_26  and  S_27
REMARK                            x       y       z     vdW  Elec       q    Type
REMARK                         _______ _______ _______ _____ _____    ______ ____
ROOT
ATOM      1  O   UNL     1     -35.094  26.800   4.810  0.00  0.00    -0.291 OA
ATOM      2  C   UNL     1     -34.859  19.607   0.395  0.00  0.00    +0.009 C 
ATOM      3  C   UNL     1     -34.658  21.042  -0.128  0.00  0.00    +0.001 C 
ATOM      4  C   UNL     1     -35.559  22.076   0.562  0.00  0.00    +0.003 C 
ATOM      5  C   UNL     1     -35.238  22.074   2.093  0.00  0.00    +0.030 C 
ATOM      6  C   UNL     1     -36.037  23.184   2.890  0.00  0.00    +0.018 C 
ATOM      7  C   UNL     1     -34.489  19.597   1.890  0.00  0.00    +0.030 C 
ATOM      8  C   UNL     1     -33.849  18.869  -0.515  0.00  0.00    +0.060 C 
ATOM      9  C   UNL     1     -35.278  20.640   2.711  0.00  0.00    +0.111 C 
ATOM     10  C   UNL     1     -34.732  20.878  -1.643  0.00  0.00    +0.000 C 
ATOM     11  C   UNL     1     -35.324  23.472  -0.032  0.00  0.00    +0.004 C 
ATOM     12  C   UNL     1     -34.026  19.533  -1.897  0.00  0.00    +0.007 C 
ATOM     13  C   UNL     1     -36.291  19.056   0.173  0.00  0.00    +0.001 C 
ATOM     14  C   UNL     1     -35.875  24.533   2.175  0.00  0.00    -0.042 C 
ATOM     15  C   UNL     1     -36.135  24.538   0.689  0.00  0.00    +0.022 C 
ATOM     16  C   UNL     1     -35.443  23.268   4.327  0.00  0.00    +0.012 C 
ATOM     17  C   UNL     1     -37.554  22.903   2.991  0.00  0.00    +0.004 C 
ATOM     18  C   UNL     1     -35.830  24.536   5.071  0.00  0.00    +0.069 C 
ATOM     19  C   UNL     1     -35.559  25.681   2.796  0.00  0.00    +0.029 C 
ATOM     20  C   UNL     1     -35.437  25.750   4.270  0.00  0.00    +0.173 C 
ENDROOT
BRANCH   9  21
ATOM     21  O   UNL     1     -36.616  20.189   2.879  0.00  0.00    -0.384 OA
ATOM     22  H   UNL     1     -36.911  19.744   2.068  0.00  0.00    +0.210 HD
ENDBRANCH   9  21
BRANCH   8  24
ATOM     23  O   UNL     1     -33.527  16.649   0.283  0.00  0.00    -0.293 OA
ATOM     24  C   UNL     1     -34.034  17.383  -0.564  0.00  0.00    +0.183 C 
BRANCH  24  25
ATOM     25  C   UNL     1     -34.872  16.848  -1.705  0.00  0.00    +0.241 C 
BRANCH  25  26
ATOM     26  O   UNL     1     -35.433  15.598  -1.367  0.00  0.00    -0.192 OA
BRANCH  26  27
ATOM     27  S   UNL     1     -37.062  15.420  -1.298  0.00  0.00    +0.239 S 
ATOM     28  O   UNL     1     -37.404  15.657   0.279  0.00  0.00    -0.022 OA
ATOM     29  O   UNL     1     -37.659  16.511  -2.044  0.00  0.00    -0.116 OA
ATOM     30  O   UNL     1     -37.394  14.045  -1.625  0.00  0.00    -0.116 OA
ENDBRANCH  26  27
ENDBRANCH  25  26
ENDBRANCH  24  25
ENDBRANCH   8  24
TORSDOF 5
ENDMDL
MODEL 8
REMARK VINA RESULT:      -6.3      7.442     11.017
REMARK  Name = 193324
REMARK  5 active torsions:
REMARK  status: ('A' for Active; 'I' for Inactive)
REMARK    1  A    between atoms: C_8  and  C_24
REMARK    2  A    between atoms: C_9  and  O_21
REMARK    3  A    between atoms: C_24  and  C_25
REMARK    4  A    between atoms: C_25  and  O_26
REMARK    5  A    between atoms: O_26  and  S_27
REMARK                            x       y       z     vdW  Elec       q    Type
REMARK                         _______ _______ _______ _____ _____    ______ ____
ROOT
ATOM      1  O   UNL     1     -39.947  35.950   1.723  0.00  0.00    -0.291 OA
ATOM      2  C   UNL     1     -33.195  30.974   2.682  0.00  0.00    +0.009 C 
ATOM      3  C   UNL     1     -33.238  32.514   2.674  0.00  0.00    +0.001 C 
ATOM      4  C   UNL     1     -34.256  33.090   1.679  0.00  0.00    +0.003 C 
ATOM      5  C   UNL     1     -35.680  32.573   2.066  0.00  0.00    +0.030 C 
ATOM      6  C   UNL     1     -36.825  33.194   1.167  0.00  0.00    +0.018 C 
ATOM      7  C   UNL     1     -34.583  30.468   3.117  0.00  0.00    +0.030 C 
ATOM      8  C   UNL     1     -32.082  30.764   3.737  0.00  0.00    +0.060 C 
ATOM      9  C   UNL     1     -35.726  31.021   2.238  0.00  0.00    +0.111 C 
ATOM     10  C   UNL     1     -31.769  32.907   2.554  0.00  0.00    +0.000 C 
ATOM     11  C   UNL     1     -34.219  34.625   1.706  0.00  0.00    +0.004 C 
ATOM     12  C   UNL     1     -31.041  31.857   3.415  0.00  0.00    +0.007 C 
ATOM     13  C   UNL     1     -32.777  30.352   1.325  0.00  0.00    +0.001 C 
ATOM     14  C   UNL     1     -36.659  34.720   1.123  0.00  0.00    -0.042 C 
ATOM     15  C   UNL     1     -35.277  35.233   0.798  0.00  0.00    +0.022 C 
ATOM     16  C   UNL     1     -38.195  32.827   1.809  0.00  0.00    +0.012 C 
ATOM     17  C   UNL     1     -36.806  32.692  -0.295  0.00  0.00    +0.004 C 
ATOM     18  C   UNL     1     -39.352  33.670   1.296  0.00  0.00    +0.069 C 
ATOM     19  C   UNL     1     -37.661  35.592   1.316  0.00  0.00    +0.029 C 
ATOM     20  C   UNL     1     -39.057  35.133   1.494  0.00  0.00    +0.173 C 
ENDROOT
BRANCH   9  21
ATOM     21  O   UNL     1     -35.708  30.362   0.978  0.00  0.00    -0.384 OA
ATOM     22  H   UNL     1     -36.223  30.877   0.337  0.00  0.00    +0.210 HD
ENDBRANCH   9  21
BRANCH   8  24
ATOM     23  O   UNL     1     -30.610  29.070   2.943  0.00  0.00    -0.293 OA
ATOM     24  C   UNL     1     -31.489  29.389   3.743  0.00  0.00    +0.183 C 
BRANCH  24  25
ATOM     25  C   UNL     1     -32.029  28.429   4.782  0.00  0.00    +0.241 C 
BRANCH  25  26
ATOM     26  O   UNL     1     -32.489  27.242   4.172  0.00  0.00    -0.192 OA
BRANCH  26  27
ATOM     27  S   UNL     1     -33.739  26.411   4.832  0.00  0.00    +0.239 S 
ATOM     28  O   UNL     1     -33.576  26.685   6.432  0.00  0.00    -0.022 OA
ATOM     29  O   UNL     1     -34.970  27.047   4.402  0.00  0.00    -0.116 OA
ATOM     30  O   UNL     1     -33.530  24.994   4.599  0.00  0.00    -0.116 OA
ENDBRANCH  26  27
ENDBRANCH  25  26
ENDBRANCH  24  25
ENDBRANCH   8  24
TORSDOF 5
ENDMDL
MODEL 9
REMARK VINA RESULT:      -6.3      5.496      7.670
REMARK  Name = 193324
REMARK  5 active torsions:
REMARK  status: ('A' for Active; 'I' for Inactive)
REMARK    1  A    between atoms: C_8  and  C_24
REMARK    2  A    between atoms: C_9  and  O_21
REMARK    3  A    between atoms: C_24  and  C_25
REMARK    4  A    between atoms: C_25  and  O_26
REMARK    5  A    between atoms: O_26  and  S_27
REMARK                            x       y       z     vdW  Elec       q    Type
REMARK                         _______ _______ _______ _____ _____    ______ ____
ROOT
ATOM      1  O   UNL     1     -27.386  18.089   0.230  0.00  0.00    -0.291 OA
ATOM      2  C   UNL     1     -34.890  21.926   0.719  0.00  0.00    +0.009 C 
ATOM      3  C   UNL     1     -34.425  20.664   1.471  0.00  0.00    +0.001 C 
ATOM      4  C   UNL     1     -33.522  19.751   0.630  0.00  0.00    +0.003 C 
ATOM      5  C   UNL     1     -32.248  20.556   0.212  0.00  0.00    +0.030 C 
ATOM      6  C   UNL     1     -31.192  19.675  -0.572  0.00  0.00    +0.018 C 
ATOM      7  C   UNL     1     -33.637  22.745   0.358  0.00  0.00    +0.030 C 
ATOM      8  C   UNL     1     -35.768  22.561   1.824  0.00  0.00    +0.060 C 
ATOM      9  C   UNL     1     -32.598  21.930  -0.444  0.00  0.00    +0.111 C 
ATOM     10  C   UNL     1     -35.719  20.104   2.055  0.00  0.00    +0.000 C 
ATOM     11  C   UNL     1     -33.125  18.504   1.434  0.00  0.00    +0.004 C 
ATOM     12  C   UNL     1     -36.509  21.364   2.456  0.00  0.00    +0.007 C 
ATOM     13  C   UNL     1     -35.741  21.625  -0.541  0.00  0.00    +0.001 C 
ATOM     14  C   UNL     1     -30.936  18.380   0.213  0.00  0.00    -0.042 C 
ATOM     15  C   UNL     1     -32.157  17.618   0.664  0.00  0.00    +0.022 C 
ATOM     16  C   UNL     1     -29.874  20.495  -0.692  0.00  0.00    +0.012 C 
ATOM     17  C   UNL     1     -31.658  19.264  -1.987  0.00  0.00    +0.004 C 
ATOM     18  C   UNL     1     -28.665  19.649  -1.060  0.00  0.00    +0.069 C 
ATOM     19  C   UNL     1     -29.714  17.890   0.476  0.00  0.00    +0.029 C 
ATOM     20  C   UNL     1     -28.494  18.527  -0.070  0.00  0.00    +0.173 C 
ENDROOT
BRANCH   9  21
ATOM     21  O   UNL     1     -33.063  21.761  -1.776  0.00  0.00    -0.384 OA
ATOM     22  H   UNL     1     -32.584  21.028  -2.196  0.00  0.00    +0.210 HD
ENDBRANCH   9  21
BRANCH   8  24
ATOM     23  O   UNL     1     -37.607  23.361   0.540  0.00  0.00    -0.293 OA
ATOM     24  C   UNL     1     -36.704  23.623   1.334  0.00  0.00    +0.183 C 
BRANCH  24  25
ATOM     25  C   UNL     1     -36.473  25.020   1.869  0.00  0.00    +0.241 C 
BRANCH  25  26
ATOM     26  O   UNL     1     -35.748  24.977   3.079  0.00  0.00    -0.192 OA
BRANCH  26  27
ATOM     27  S   UNL     1     -36.545  24.938   4.512  0.00  0.00    +0.239 S 
ATOM     28  O   UNL     1     -38.116  24.934   4.075  0.00  0.00    -0.022 OA
ATOM     29  O   UNL     1     -36.263  23.662   5.142  0.00  0.00    -0.116 OA
ATOM     30  O   UNL     1     -36.283  26.176   5.224  0.00  0.00    -0.116 OA
ENDBRANCH  26  27
ENDBRANCH  25  26
ENDBRANCH  24  25
ENDBRANCH   8  24
TORSDOF 5
ENDMDL
