MODEL 1
REMARK VINA RESULT:      -6.6      0.000      0.000
REMARK  Name = 192219
REMARK  5 active torsions:
REMARK  status: ('A' for Active; 'I' for Inactive)
REMARK    1  A    between atoms: N_2  and  N_7
REMARK    2  A    between atoms: N_3  and  S_15
REMARK    3  A    between atoms: S_15  and  C_18
REMARK    4  A    between atoms: C_21  and  C_24
REMARK    5  A    between atoms: C_24  and  O_25
REMARK                            x       y       z     vdW  Elec       q    Type
REMARK                         _______ _______ _______ _____ _____    ______ ____
ROOT
ATOM      1  O   UNL     1     -32.567  26.740   3.460  0.00  0.00    -0.250 OA
ATOM      2  N   UNL     1     -32.938  28.735   4.573  0.00  0.00    -0.230 N 
ATOM      3  N   UNL     1     -34.706  27.675   3.474  0.00  0.00    -0.168 N 
ATOM      4  C   UNL     1     -33.316  27.645   3.816  0.00  0.00    +0.333 C 
ATOM      5  H   UNL     1     -33.600  29.422   4.819  0.00  0.00    +0.171 HD
ATOM      6  H   UNL     1     -35.234  28.439   3.799  0.00  0.00    +0.178 HD
ENDROOT
BRANCH   2   7
ATOM      7  N   UNL     1     -31.629  28.853   4.981  0.00  0.00    -0.205 NA
ATOM      8  C   UNL     1     -30.121  29.250   6.749  0.00  0.00    +0.019 C 
ATOM      9  C   UNL     1     -29.863  30.276   5.626  0.00  0.00    +0.019 C 
ATOM     10  C   UNL     1     -28.970  28.241   6.663  0.00  0.00    +0.001 C 
ATOM     11  C   UNL     1     -28.573  29.821   4.933  0.00  0.00    +0.001 C 
ATOM     12  C   UNL     1     -31.494  28.656   6.425  0.00  0.00    +0.092 C 
ATOM     13  C   UNL     1     -31.108  30.199   4.737  0.00  0.00    +0.092 C 
ATOM     14  C   UNL     1     -28.453  28.338   5.238  0.00  0.00    +0.000 C 
ENDBRANCH   2   7
BRANCH   3  15
ATOM     15  S   UNL     1     -35.525  26.494   2.548  0.00  0.00    +0.077 S 
ATOM     16  O   UNL     1     -36.902  26.905   2.353  0.00  0.00    -0.150 OA
ATOM     17  O   UNL     1     -34.701  26.122   1.414  0.00  0.00    -0.150 OA
BRANCH  15  18
ATOM     18  C   UNL     1     -35.513  25.122   3.662  0.00  0.00    +0.125 C 
ATOM     19  C   UNL     1     -35.462  23.836   3.151  0.00  0.00    +0.020 C 
ATOM     20  C   UNL     1     -35.552  25.358   5.026  0.00  0.00    +0.020 C 
ATOM     21  C   UNL     1     -35.492  22.973   5.407  0.00  0.00    +0.007 C 
ATOM     22  C   UNL     1     -35.453  22.754   4.030  0.00  0.00    -0.000 C 
ATOM     23  C   UNL     1     -35.543  24.275   5.904  0.00  0.00    -0.000 C 
BRANCH  21  24
ATOM     24  C   UNL     1     -35.480  21.817   6.347  0.00  0.00    +0.164 C 
BRANCH  24  25
ATOM     25  O   UNL     1     -35.188  20.625   5.628  0.00  0.00    -0.377 OA
ATOM     26  H   UNL     1     -35.064  19.893   6.251  0.00  0.00    +0.211 HD
ENDBRANCH  24  25
ENDBRANCH  21  24
ENDBRANCH  15  18
ENDBRANCH   3  15
TORSDOF 5
ENDMDL
MODEL 2
REMARK VINA RESULT:      -6.4      6.167      9.365
REMARK  Name = 192219
REMARK  5 active torsions:
REMARK  status: ('A' for Active; 'I' for Inactive)
REMARK    1  A    between atoms: N_2  and  N_7
REMARK    2  A    between atoms: N_3  and  S_15
REMARK    3  A    between atoms: S_15  and  C_18
REMARK    4  A    between atoms: C_21  and  C_24
REMARK    5  A    between atoms: C_24  and  O_25
REMARK                            x       y       z     vdW  Elec       q    Type
REMARK                         _______ _______ _______ _____ _____    ______ ____
ROOT
ATOM      1  O   UNL     1     -40.808  27.187   1.865  0.00  0.00    -0.250 OA
ATOM      2  N   UNL     1     -41.657  26.703   3.963  0.00  0.00    -0.230 N 
ATOM      3  N   UNL     1     -39.553  25.895   3.351  0.00  0.00    -0.168 N 
ATOM      4  C   UNL     1     -40.705  26.654   2.966  0.00  0.00    +0.333 C 
ATOM      5  H   UNL     1     -41.501  26.248   4.822  0.00  0.00    +0.171 HD
ATOM      6  H   UNL     1     -39.554  25.500   4.252  0.00  0.00    +0.178 HD
ENDROOT
BRANCH   2   7
ATOM      7  N   UNL     1     -42.828  27.395   3.745  0.00  0.00    -0.205 NA
ATOM      8  C   UNL     1     -44.297  29.098   4.453  0.00  0.00    +0.019 C 
ATOM      9  C   UNL     1     -45.070  27.764   4.373  0.00  0.00    +0.019 C 
ATOM     10  C   UNL     1     -44.745  29.913   3.234  0.00  0.00    +0.001 C 
ATOM     11  C   UNL     1     -45.936  27.860   3.111  0.00  0.00    +0.001 C 
ATOM     12  C   UNL     1     -42.821  28.693   4.422  0.00  0.00    +0.092 C 
ATOM     13  C   UNL     1     -43.982  26.689   4.303  0.00  0.00    +0.092 C 
ATOM     14  C   UNL     1     -45.252  28.892   2.230  0.00  0.00    +0.000 C 
ENDBRANCH   2   7
BRANCH   3  15
ATOM     15  S   UNL     1     -38.177  25.620   2.375  0.00  0.00    +0.077 S 
ATOM     16  O   UNL     1     -38.559  24.844   1.212  0.00  0.00    -0.150 OA
ATOM     17  O   UNL     1     -37.443  26.862   2.223  0.00  0.00    -0.150 OA
BRANCH  15  18
ATOM     18  C   UNL     1     -37.213  24.582   3.435  0.00  0.00    +0.125 C 
ATOM     19  C   UNL     1     -37.041  23.250   3.101  0.00  0.00    +0.020 C 
ATOM     20  C   UNL     1     -36.648  25.122   4.577  0.00  0.00    +0.020 C 
ATOM     21  C   UNL     1     -35.704  22.959   5.092  0.00  0.00    +0.007 C 
ATOM     22  C   UNL     1     -36.281  22.431   3.937  0.00  0.00    -0.000 C 
ATOM     23  C   UNL     1     -35.888  24.304   5.412  0.00  0.00    -0.000 C 
BRANCH  21  24
ATOM     24  C   UNL     1     -34.890  22.085   5.985  0.00  0.00    +0.164 C 
BRANCH  24  25
ATOM     25  O   UNL     1     -35.214  20.722   5.737  0.00  0.00    -0.377 OA
ATOM     26  H   UNL     1     -35.653  20.646   4.875  0.00  0.00    +0.211 HD
ENDBRANCH  24  25
ENDBRANCH  21  24
ENDBRANCH  15  18
ENDBRANCH   3  15
TORSDOF 5
ENDMDL
MODEL 3
REMARK VINA RESULT:      -6.3      6.689      8.852
REMARK  Name = 192219
REMARK  5 active torsions:
REMARK  status: ('A' for Active; 'I' for Inactive)
REMARK    1  A    between atoms: N_2  and  N_7
REMARK    2  A    between atoms: N_3  and  S_15
REMARK    3  A    between atoms: S_15  and  C_18
REMARK    4  A    between atoms: C_21  and  C_24
REMARK    5  A    between atoms: C_24  and  O_25
REMARK                            x       y       z     vdW  Elec       q    Type
REMARK                         _______ _______ _______ _____ _____    ______ ____
ROOT
ATOM      1  O   UNL     1     -39.143  26.689   2.434  0.00  0.00    -0.250 OA
ATOM      2  N   UNL     1     -39.055  24.822   3.798  0.00  0.00    -0.230 N 
ATOM      3  N   UNL     1     -40.962  26.170   3.803  0.00  0.00    -0.168 N 
ATOM      4  C   UNL     1     -39.652  25.946   3.268  0.00  0.00    +0.333 C 
ATOM      5  H   UNL     1     -39.529  24.275   4.466  0.00  0.00    +0.171 HD
ATOM      6  H   UNL     1     -41.293  25.526   4.470  0.00  0.00    +0.178 HD
ENDROOT
BRANCH   2   7
ATOM      7  N   UNL     1     -37.789  24.471   3.386  0.00  0.00    -0.205 NA
ATOM      8  C   UNL     1     -36.214  22.753   3.029  0.00  0.00    +0.019 C 
ATOM      9  C   UNL     1     -35.611  23.800   3.989  0.00  0.00    +0.019 C 
ATOM     10  C   UNL     1     -35.522  22.979   1.679  0.00  0.00    +0.001 C 
ATOM     11  C   UNL     1     -34.593  24.591   3.158  0.00  0.00    +0.001 C 
ATOM     12  C   UNL     1     -37.714  23.057   3.017  0.00  0.00    +0.092 C 
ATOM     13  C   UNL     1     -36.808  24.629   4.461  0.00  0.00    +0.092 C 
ATOM     14  C   UNL     1     -35.029  24.416   1.713  0.00  0.00    +0.000 C 
ENDBRANCH   2   7
BRANCH   3  15
ATOM     15  S   UNL     1     -41.997  27.463   3.381  0.00  0.00    +0.077 S 
ATOM     16  O   UNL     1     -41.940  28.481   4.411  0.00  0.00    -0.150 OA
ATOM     17  O   UNL     1     -41.781  27.812   1.989  0.00  0.00    -0.150 OA
BRANCH  15  18
ATOM     18  C   UNL     1     -43.577  26.676   3.472  0.00  0.00    +0.125 C 
ATOM     19  C   UNL     1     -44.003  25.890   2.414  0.00  0.00    +0.020 C 
ATOM     20  C   UNL     1     -44.358  26.857   4.600  0.00  0.00    +0.020 C 
ATOM     21  C   UNL     1     -46.050  25.441   3.615  0.00  0.00    +0.007 C 
ATOM     22  C   UNL     1     -45.250  25.269   2.486  0.00  0.00    -0.000 C 
ATOM     23  C   UNL     1     -45.605  26.235   4.671  0.00  0.00    -0.000 C 
BRANCH  21  24
ATOM     24  C   UNL     1     -47.382  24.776   3.694  0.00  0.00    +0.164 C 
BRANCH  24  25
ATOM     25  O   UNL     1     -47.578  24.262   5.006  0.00  0.00    -0.377 OA
ATOM     26  H   UNL     1     -48.481  24.458   5.298  0.00  0.00    +0.211 HD
ENDBRANCH  24  25
ENDBRANCH  21  24
ENDBRANCH  15  18
ENDBRANCH   3  15
TORSDOF 5
ENDMDL
MODEL 4
REMARK VINA RESULT:      -6.1      2.580      3.634
REMARK  Name = 192219
REMARK  5 active torsions:
REMARK  status: ('A' for Active; 'I' for Inactive)
REMARK    1  A    between atoms: N_2  and  N_7
REMARK    2  A    between atoms: N_3  and  S_15
REMARK    3  A    between atoms: S_15  and  C_18
REMARK    4  A    between atoms: C_21  and  C_24
REMARK    5  A    between atoms: C_24  and  O_25
REMARK                            x       y       z     vdW  Elec       q    Type
REMARK                         _______ _______ _______ _____ _____    ______ ____
ROOT
ATOM      1  O   UNL     1     -34.705  26.442   5.613  0.00  0.00    -0.250 OA
ATOM      2  N   UNL     1     -33.544  26.839   3.650  0.00  0.00    -0.230 N 
ATOM      3  N   UNL     1     -35.127  25.123   3.733  0.00  0.00    -0.168 N 
ATOM      4  C   UNL     1     -34.464  26.178   4.438  0.00  0.00    +0.333 C 
ATOM      5  H   UNL     1     -33.407  26.568   2.714  0.00  0.00    +0.171 HD
ATOM      6  H   UNL     1     -34.872  24.978   2.794  0.00  0.00    +0.178 HD
ENDROOT
BRANCH   2   7
ATOM      7  N   UNL     1     -32.821  27.881   4.185  0.00  0.00    -0.205 NA
ATOM      8  C   UNL     1     -32.113  30.122   3.991  0.00  0.00    +0.019 C 
ATOM      9  C   UNL     1     -30.874  29.208   4.096  0.00  0.00    +0.019 C 
ATOM     10  C   UNL     1     -32.240  30.808   5.356  0.00  0.00    +0.001 C 
ATOM     11  C   UNL     1     -30.332  29.401   5.517  0.00  0.00    +0.001 C 
ATOM     12  C   UNL     1     -33.268  29.173   3.662  0.00  0.00    +0.092 C 
ATOM     13  C   UNL     1     -31.406  27.799   3.818  0.00  0.00    +0.092 C 
ATOM     14  C   UNL     1     -31.511  29.901   6.334  0.00  0.00    +0.000 C 
ENDBRANCH   2   7
BRANCH   3  15
ATOM     15  S   UNL     1     -36.324  24.093   4.388  0.00  0.00    +0.077 S 
ATOM     16  O   UNL     1     -35.888  23.611   5.683  0.00  0.00    -0.150 OA
ATOM     17  O   UNL     1     -37.625  24.716   4.234  0.00  0.00    -0.150 OA
BRANCH  15  18
ATOM     18  C   UNL     1     -36.266  22.741   3.250  0.00  0.00    +0.125 C 
ATOM     19  C   UNL     1     -37.013  22.805   2.086  0.00  0.00    +0.020 C 
ATOM     20  C   UNL     1     -35.474  21.645   3.543  0.00  0.00    +0.020 C 
ATOM     21  C   UNL     1     -36.175  20.625   1.468  0.00  0.00    +0.007 C 
ATOM     22  C   UNL     1     -36.968  21.738   1.189  0.00  0.00    -0.000 C 
ATOM     23  C   UNL     1     -35.429  20.579   2.645  0.00  0.00    -0.000 C 
BRANCH  21  24
ATOM     24  C   UNL     1     -36.125  19.486   0.508  0.00  0.00    +0.164 C 
BRANCH  24  25
ATOM     25  O   UNL     1     -37.078  18.502   0.891  0.00  0.00    -0.377 OA
ATOM     26  H   UNL     1     -37.949  18.917   0.991  0.00  0.00    +0.211 HD
ENDBRANCH  24  25
ENDBRANCH  21  24
ENDBRANCH  15  18
ENDBRANCH   3  15
TORSDOF 5
ENDMDL
MODEL 5
REMARK VINA RESULT:      -6.1      5.887      8.782
REMARK  Name = 192219
REMARK  5 active torsions:
REMARK  status: ('A' for Active; 'I' for Inactive)
REMARK    1  A    between atoms: N_2  and  N_7
REMARK    2  A    between atoms: N_3  and  S_15
REMARK    3  A    between atoms: S_15  and  C_18
REMARK    4  A    between atoms: C_21  and  C_24
REMARK    5  A    between atoms: C_24  and  O_25
REMARK                            x       y       z     vdW  Elec       q    Type
REMARK                         _______ _______ _______ _____ _____    ______ ____
ROOT
ATOM      1  O   UNL     1     -35.881  21.347   0.300  0.00  0.00    -0.250 OA
ATOM      2  N   UNL     1     -35.762  19.179   1.101  0.00  0.00    -0.230 N 
ATOM      3  N   UNL     1     -37.659  20.472   1.534  0.00  0.00    -0.168 N 
ATOM      4  C   UNL     1     -36.369  20.404   0.917  0.00  0.00    +0.333 C 
ATOM      5  H   UNL     1     -36.219  18.470   1.609  0.00  0.00    +0.171 HD
ATOM      6  H   UNL     1     -37.974  19.670   2.010  0.00  0.00    +0.178 HD
ENDROOT
BRANCH   2   7
ATOM      7  N   UNL     1     -34.512  18.957   0.568  0.00  0.00    -0.205 NA
ATOM      8  C   UNL     1     -32.901  17.391  -0.146  0.00  0.00    +0.019 C 
ATOM      9  C   UNL     1     -32.278  18.300   0.934  0.00  0.00    +0.019 C 
ATOM     10  C   UNL     1     -32.303  17.858  -1.479  0.00  0.00    +0.001 C 
ATOM     11  C   UNL     1     -31.344  19.258   0.184  0.00  0.00    +0.001 C 
ATOM     12  C   UNL     1     -34.409  17.623  -0.026  0.00  0.00    +0.092 C 
ATOM     13  C   UNL     1     -33.474  18.989   1.598  0.00  0.00    +0.092 C 
ATOM     14  C   UNL     1     -31.863  19.293  -1.243  0.00  0.00    +0.000 C 
ENDBRANCH   2   7
BRANCH   3  15
ATOM     15  S   UNL     1     -38.698  21.829   1.513  0.00  0.00    +0.077 S 
ATOM     16  O   UNL     1     -38.671  22.435   0.197  0.00  0.00    -0.150 OA
ATOM     17  O   UNL     1     -39.960  21.473   2.134  0.00  0.00    -0.150 OA
BRANCH  15  18
ATOM     18  C   UNL     1     -37.863  22.911   2.635  0.00  0.00    +0.125 C 
ATOM     19  C   UNL     1     -36.790  22.431   3.365  0.00  0.00    +0.020 C 
ATOM     20  C   UNL     1     -38.297  24.220   2.760  0.00  0.00    +0.020 C 
ATOM     21  C   UNL     1     -36.556  24.606   4.389  0.00  0.00    +0.007 C 
ATOM     22  C   UNL     1     -36.132  23.284   4.250  0.00  0.00    -0.000 C 
ATOM     23  C   UNL     1     -37.638  25.073   3.645  0.00  0.00    -0.000 C 
BRANCH  21  24
ATOM     24  C   UNL     1     -35.851  25.520   5.333  0.00  0.00    +0.164 C 
BRANCH  24  25
ATOM     25  O   UNL     1     -36.591  26.728   5.463  0.00  0.00    -0.377 OA
ATOM     26  H   UNL     1     -36.839  26.857   6.392  0.00  0.00    +0.211 HD
ENDBRANCH  24  25
ENDBRANCH  21  24
ENDBRANCH  15  18
ENDBRANCH   3  15
TORSDOF 5
ENDMDL
MODEL 6
REMARK VINA RESULT:      -6.1      2.375      7.209
REMARK  Name = 192219
REMARK  5 active torsions:
REMARK  status: ('A' for Active; 'I' for Inactive)
REMARK    1  A    between atoms: N_2  and  N_7
REMARK    2  A    between atoms: N_3  and  S_15
REMARK    3  A    between atoms: S_15  and  C_18
REMARK    4  A    between atoms: C_21  and  C_24
REMARK    5  A    between atoms: C_24  and  O_25
REMARK                            x       y       z     vdW  Elec       q    Type
REMARK                         _______ _______ _______ _____ _____    ______ ____
ROOT
ATOM      1  O   UNL     1     -32.794  27.065   3.291  0.00  0.00    -0.250 OA
ATOM      2  N   UNL     1     -34.899  27.452   4.171  0.00  0.00    -0.230 N 
ATOM      3  N   UNL     1     -33.476  29.253   3.739  0.00  0.00    -0.168 N 
ATOM      4  C   UNL     1     -33.660  27.833   3.700  0.00  0.00    +0.333 C 
ATOM      5  H   UNL     1     -35.542  28.129   4.483  0.00  0.00    +0.171 HD
ATOM      6  H   UNL     1     -34.222  29.795   4.084  0.00  0.00    +0.178 HD
ENDROOT
BRANCH   2   7
ATOM      7  N   UNL     1     -35.229  26.115   4.200  0.00  0.00    -0.205 NA
ATOM      8  C   UNL     1     -36.927  24.484   4.325  0.00  0.00    +0.019 C 
ATOM      9  C   UNL     1     -35.928  24.263   5.481  0.00  0.00    +0.019 C 
ATOM     10  C   UNL     1     -36.635  23.377   3.306  0.00  0.00    +0.001 C 
ATOM     11  C   UNL     1     -35.097  23.037   5.084  0.00  0.00    +0.001 C 
ATOM     12  C   UNL     1     -36.624  25.895   3.816  0.00  0.00    +0.092 C 
ATOM     13  C   UNL     1     -35.123  25.564   5.552  0.00  0.00    +0.092 C 
ATOM     14  C   UNL     1     -35.202  22.950   3.571  0.00  0.00    +0.000 C 
ENDBRANCH   2   7
BRANCH   3  15
ATOM     15  S   UNL     1     -32.070  30.084   3.236  0.00  0.00    +0.077 S 
ATOM     16  O   UNL     1     -31.612  29.536   1.974  0.00  0.00    -0.150 OA
ATOM     17  O   UNL     1     -32.280  31.512   3.386  0.00  0.00    -0.150 OA
BRANCH  15  18
ATOM     18  C   UNL     1     -30.924  29.601   4.493  0.00  0.00    +0.125 C 
ATOM     19  C   UNL     1     -29.785  28.900   4.136  0.00  0.00    +0.020 C 
ATOM     20  C   UNL     1     -31.186  29.934   5.811  0.00  0.00    +0.020 C 
ATOM     21  C   UNL     1     -29.130  28.845   6.460  0.00  0.00    +0.007 C 
ATOM     22  C   UNL     1     -28.881  28.519   5.127  0.00  0.00    -0.000 C 
ATOM     23  C   UNL     1     -30.282  29.552   6.802  0.00  0.00    -0.000 C 
BRANCH  21  24
ATOM     24  C   UNL     1     -28.163  28.440   7.520  0.00  0.00    +0.164 C 
BRANCH  24  25
ATOM     25  O   UNL     1     -28.424  29.179   8.707  0.00  0.00    -0.377 OA
ATOM     26  H   UNL     1     -29.273  28.898   9.083  0.00  0.00    +0.211 HD
ENDBRANCH  24  25
ENDBRANCH  21  24
ENDBRANCH  15  18
ENDBRANCH   3  15
TORSDOF 5
ENDMDL
MODEL 7
REMARK VINA RESULT:      -6.0      5.420      7.685
REMARK  Name = 192219
REMARK  5 active torsions:
REMARK  status: ('A' for Active; 'I' for Inactive)
REMARK    1  A    between atoms: N_2  and  N_7
REMARK    2  A    between atoms: N_3  and  S_15
REMARK    3  A    between atoms: S_15  and  C_18
REMARK    4  A    between atoms: C_21  and  C_24
REMARK    5  A    between atoms: C_24  and  O_25
REMARK                            x       y       z     vdW  Elec       q    Type
REMARK                         _______ _______ _______ _____ _____    ______ ____
ROOT
ATOM      1  O   UNL     1     -34.930  22.047   1.226  0.00  0.00    -0.250 OA
ATOM      2  N   UNL     1     -35.840  21.566   3.298  0.00  0.00    -0.230 N 
ATOM      3  N   UNL     1     -35.743  19.903   1.662  0.00  0.00    -0.168 N 
ATOM      4  C   UNL     1     -35.457  21.262   2.009  0.00  0.00    +0.333 C 
ATOM      5  H   UNL     1     -36.257  20.880   3.868  0.00  0.00    +0.171 HD
ATOM      6  H   UNL     1     -36.169  19.342   2.350  0.00  0.00    +0.178 HD
ENDROOT
BRANCH   2   7
ATOM      7  N   UNL     1     -35.632  22.839   3.783  0.00  0.00    -0.205 NA
ATOM      8  C   UNL     1     -35.576  24.274   5.653  0.00  0.00    +0.019 C 
ATOM      9  C   UNL     1     -36.577  24.831   4.617  0.00  0.00    +0.019 C 
ATOM     10  C   UNL     1     -34.337  25.172   5.558  0.00  0.00    +0.001 C 
ATOM     11  C   UNL     1     -35.877  26.030   3.965  0.00  0.00    +0.001 C 
ATOM     12  C   UNL     1     -35.331  22.828   5.215  0.00  0.00    +0.092 C 
ATOM     13  C   UNL     1     -36.835  23.664   3.660  0.00  0.00    +0.092 C 
ATOM     14  C   UNL     1     -34.391  25.792   4.172  0.00  0.00    +0.000 C 
ENDBRANCH   2   7
BRANCH   3  15
ATOM     15  S   UNL     1     -35.409  19.174   0.152  0.00  0.00    +0.077 S 
ATOM     16  O   UNL     1     -35.989  17.845   0.120  0.00  0.00    -0.150 OA
ATOM     17  O   UNL     1     -35.686  20.123  -0.908  0.00  0.00    -0.150 OA
BRANCH  15  18
ATOM     18  C   UNL     1     -33.651  19.004   0.241  0.00  0.00    +0.125 C 
ATOM     19  C   UNL     1     -33.106  18.042   1.075  0.00  0.00    +0.020 C 
ATOM     20  C   UNL     1     -32.853  19.834  -0.527  0.00  0.00    +0.020 C 
ATOM     21  C   UNL     1     -30.900  18.737   0.378  0.00  0.00    +0.007 C 
ATOM     22  C   UNL     1     -31.720  17.909   1.145  0.00  0.00    -0.000 C 
ATOM     23  C   UNL     1     -31.466  19.699  -0.457  0.00  0.00    -0.000 C 
BRANCH  21  24
ATOM     24  C   UNL     1     -29.418  18.593   0.451  0.00  0.00    +0.164 C 
BRANCH  24  25
ATOM     25  O   UNL     1     -29.085  17.615   1.428  0.00  0.00    -0.377 OA
ATOM     26  H   UNL     1     -29.881  17.120   1.675  0.00  0.00    +0.211 HD
ENDBRANCH  24  25
ENDBRANCH  21  24
ENDBRANCH  15  18
ENDBRANCH   3  15
TORSDOF 5
ENDMDL
MODEL 8
REMARK VINA RESULT:      -6.0      4.133      5.074
REMARK  Name = 192219
REMARK  5 active torsions:
REMARK  status: ('A' for Active; 'I' for Inactive)
REMARK    1  A    between atoms: N_2  and  N_7
REMARK    2  A    between atoms: N_3  and  S_15
REMARK    3  A    between atoms: S_15  and  C_18
REMARK    4  A    between atoms: C_21  and  C_24
REMARK    5  A    between atoms: C_24  and  O_25
REMARK                            x       y       z     vdW  Elec       q    Type
REMARK                         _______ _______ _______ _____ _____    ______ ____
ROOT
ATOM      1  O   UNL     1     -37.104  28.839   0.926  0.00  0.00    -0.250 OA
ATOM      2  N   UNL     1     -35.202  29.411   2.113  0.00  0.00    -0.230 N 
ATOM      3  N   UNL     1     -36.216  27.340   2.480  0.00  0.00    -0.168 N 
ATOM      4  C   UNL     1     -36.241  28.577   1.759  0.00  0.00    +0.333 C 
ATOM      5  H   UNL     1     -34.547  29.129   2.792  0.00  0.00    +0.171 HD
ATOM      6  H   UNL     1     -35.490  27.212   3.131  0.00  0.00    +0.178 HD
ENDROOT
BRANCH   2   7
ATOM      7  N   UNL     1     -35.088  30.643   1.508  0.00  0.00    -0.205 NA
ATOM      8  C   UNL     1     -33.796  32.095   0.172  0.00  0.00    +0.019 C 
ATOM      9  C   UNL     1     -34.101  32.784   1.519  0.00  0.00    +0.019 C 
ATOM     10  C   UNL     1     -34.708  32.772  -0.858  0.00  0.00    +0.001 C 
ATOM     11  C   UNL     1     -35.178  33.834   1.215  0.00  0.00    +0.001 C 
ATOM     12  C   UNL     1     -34.118  30.618   0.412  0.00  0.00    +0.092 C 
ATOM     13  C   UNL     1     -34.576  31.653   2.435  0.00  0.00    +0.092 C 
ATOM     14  C   UNL     1     -35.858  33.358  -0.057  0.00  0.00    +0.000 C 
ENDBRANCH   2   7
BRANCH   3  15
ATOM     15  S   UNL     1     -37.344  26.067   2.304  0.00  0.00    +0.077 S 
ATOM     16  O   UNL     1     -38.636  26.498   2.800  0.00  0.00    -0.150 OA
ATOM     17  O   UNL     1     -37.219  25.498   0.975  0.00  0.00    -0.150 OA
BRANCH  15  18
ATOM     18  C   UNL     1     -36.690  24.876   3.435  0.00  0.00    +0.125 C 
ATOM     19  C   UNL     1     -36.239  25.297   4.674  0.00  0.00    +0.020 C 
ATOM     20  C   UNL     1     -36.641  23.544   3.060  0.00  0.00    +0.020 C 
ATOM     21  C   UNL     1     -35.666  23.011   5.205  0.00  0.00    +0.007 C 
ATOM     22  C   UNL     1     -35.722  24.358   5.566  0.00  0.00    -0.000 C 
ATOM     23  C   UNL     1     -36.125  22.605   3.953  0.00  0.00    -0.000 C 
BRANCH  21  24
ATOM     24  C   UNL     1     -35.116  22.006   6.159  0.00  0.00    +0.164 C 
BRANCH  24  25
ATOM     25  O   UNL     1     -35.169  20.714   5.567  0.00  0.00    -0.377 OA
ATOM     26  H   UNL     1     -34.490  20.148   5.966  0.00  0.00    +0.211 HD
ENDBRANCH  24  25
ENDBRANCH  21  24
ENDBRANCH  15  18
ENDBRANCH   3  15
TORSDOF 5
ENDMDL
MODEL 9
REMARK VINA RESULT:      -5.9      6.304      8.606
REMARK  Name = 192219
REMARK  5 active torsions:
REMARK  status: ('A' for Active; 'I' for Inactive)
REMARK    1  A    between atoms: N_2  and  N_7
REMARK    2  A    between atoms: N_3  and  S_15
REMARK    3  A    between atoms: S_15  and  C_18
REMARK    4  A    between atoms: C_21  and  C_24
REMARK    5  A    between atoms: C_24  and  O_25
REMARK                            x       y       z     vdW  Elec       q    Type
REMARK                         _______ _______ _______ _____ _____    ______ ____
ROOT
ATOM      1  O   UNL     1     -39.046  25.805   1.802  0.00  0.00    -0.250 OA
ATOM      2  N   UNL     1     -38.667  25.128   3.982  0.00  0.00    -0.230 N 
ATOM      3  N   UNL     1     -40.737  26.037   3.395  0.00  0.00    -0.168 N 
ATOM      4  C   UNL     1     -39.426  25.659   2.960  0.00  0.00    +0.333 C 
ATOM      5  H   UNL     1     -39.044  25.043   4.888  0.00  0.00    +0.171 HD
ATOM      6  H   UNL     1     -40.959  25.886   4.342  0.00  0.00    +0.178 HD
ENDROOT
BRANCH   2   7
ATOM      7  N   UNL     1     -37.378  24.718   3.724  0.00  0.00    -0.205 NA
ATOM      8  C   UNL     1     -35.841  22.933   3.605  0.00  0.00    +0.019 C 
ATOM      9  C   UNL     1     -35.306  23.997   4.587  0.00  0.00    +0.019 C 
ATOM     10  C   UNL     1     -34.999  23.081   2.333  0.00  0.00    +0.001 C 
ATOM     11  C   UNL     1     -34.175  24.718   3.845  0.00  0.00    +0.001 C 
ATOM     12  C   UNL     1     -37.318  23.288   3.418  0.00  0.00    +0.092 C 
ATOM     13  C   UNL     1     -36.515  24.885   4.894  0.00  0.00    +0.092 C 
ATOM     14  C   UNL     1     -34.458  24.500   2.368  0.00  0.00    +0.000 C 
ENDBRANCH   2   7
BRANCH   3  15
ATOM     15  S   UNL     1     -41.949  26.727   2.406  0.00  0.00    +0.077 S 
ATOM     16  O   UNL     1     -41.383  27.827   1.650  0.00  0.00    -0.150 OA
ATOM     17  O   UNL     1     -42.676  25.668   1.733  0.00  0.00    -0.150 OA
BRANCH  15  18
ATOM     18  C   UNL     1     -43.038  27.400   3.626  0.00  0.00    +0.125 C 
ATOM     19  C   UNL     1     -44.167  26.687   3.990  0.00  0.00    +0.020 C 
ATOM     20  C   UNL     1     -42.740  28.626   4.194  0.00  0.00    +0.020 C 
ATOM     21  C   UNL     1     -44.742  28.453   5.535  0.00  0.00    +0.007 C 
ATOM     22  C   UNL     1     -45.026  27.219   4.952  0.00  0.00    -0.000 C 
ATOM     23  C   UNL     1     -43.599  29.157   5.156  0.00  0.00    -0.000 C 
BRANCH  21  24
ATOM     24  C   UNL     1     -45.659  29.021   6.565  0.00  0.00    +0.164 C 
BRANCH  24  25
ATOM     25  O   UNL     1     -46.667  28.067   6.878  0.00  0.00    -0.377 OA
ATOM     26  H   UNL     1     -46.271  27.325   7.361  0.00  0.00    +0.211 HD
ENDBRANCH  24  25
ENDBRANCH  21  24
ENDBRANCH  15  18
ENDBRANCH   3  15
TORSDOF 5
ENDMDL
