MODEL 1
REMARK VINA RESULT:      -6.6      0.000      0.000
REMARK  Name = 5311337
REMARK  11 active torsions:
REMARK  status: ('A' for Active; 'I' for Inactive)
REMARK    1  A    between atoms: C_1  and  C_4
REMARK    2  A    between atoms: C_1  and  C_18
REMARK    3  A    between atoms: C_1  and  C_28
REMARK    4  A    between atoms: N_3  and  C_6
REMARK    5  A    between atoms: C_6  and  C_9
REMARK    6  A    between atoms: C_9  and  O_10
REMARK    7  A    between atoms: O_10  and  C_11
REMARK    8  A    between atoms: C_11  and  C_12
REMARK    9  A    between atoms: C_18  and  C_21
REMARK   10  A    between atoms: C_28  and  S_29
REMARK   11  A    between atoms: S_29  and  C_31
REMARK                            x       y       z     vdW  Elec       q    Type
REMARK                         _______ _______ _______ _____ _____    ______ ____
ROOT
ATOM      1  C   UNL     1     -35.872  20.838   1.150  0.00  0.00    +0.092 C 
ENDROOT
BRANCH   1   4
ATOM      2  O   UNL     1     -37.681  21.815   2.445  0.00  0.00    -0.275 OA
ATOM      3  N   UNL     1     -35.558  21.765   3.378  0.00  0.00    -0.297 N 
ATOM      4  C   UNL     1     -36.488  21.524   2.377  0.00  0.00    +0.224 C 
ATOM      5  H   UNL     1     -34.625  21.493   3.227  0.00  0.00    +0.150 HD
BRANCH   3   6
ATOM      6  C   UNL     1     -35.902  22.396   4.630  0.00  0.00    +0.172 C 
ATOM      7  C   UNL     1     -34.963  21.923   5.728  0.00  0.00    +0.033 C 
BRANCH   6   9
ATOM      8  O   UNL     1     -36.878  24.604   4.689  0.00  0.00    -0.248 OA
ATOM      9  C   UNL     1     -35.877  23.914   4.529  0.00  0.00    +0.335 C 
BRANCH   9  10
ATOM     10  O   UNL     1     -34.631  24.392   4.255  0.00  0.00    -0.442 OA
BRANCH  10  11
ATOM     11  C   UNL     1     -34.572  25.743   3.786  0.00  0.00    +0.235 C 
BRANCH  11  12
ATOM     12  C   UNL     1     -33.715  26.549   4.718  0.00  0.00    +0.021 C 
ATOM     13  C   UNL     1     -32.909  27.572   4.217  0.00  0.00    -0.001 C 
ATOM     14  C   UNL     1     -33.725  26.276   6.085  0.00  0.00    -0.001 C 
ATOM     15  C   UNL     1     -32.113  28.321   5.083  0.00  0.00    -0.000 C 
ATOM     16  C   UNL     1     -32.929  27.025   6.952  0.00  0.00    -0.000 C 
ATOM     17  C   UNL     1     -32.123  28.048   6.451  0.00  0.00    -0.000 C 
ENDBRANCH  11  12
ENDBRANCH  10  11
ENDBRANCH   9  10
ENDBRANCH   6   9
ENDBRANCH   3   6
ENDBRANCH   1   4
BRANCH   1  18
ATOM     18  C   UNL     1     -34.458  21.396   0.874  0.00  0.00    +0.036 C 
BRANCH  18  21
ATOM     19  O   UNL     1     -30.024  19.681  -0.516  0.00  0.00    -0.435 OA
ATOM     20  O   UNL     1     -30.378  17.554   0.561  0.00  0.00    -0.435 OA
ATOM     21  C   UNL     1     -33.383  20.339   0.809  0.00  0.00    -0.018 C 
ATOM     22  C   UNL     1     -32.192  20.603   0.128  0.00  0.00    +0.036 C 
ATOM     23  C   UNL     1     -33.589  19.098   1.437  0.00  0.00    -0.001 C 
ATOM     24  C   UNL     1     -31.238  19.607   0.097  0.00  0.00    +0.176 C 
ATOM     25  C   UNL     1     -31.439  18.392   0.712  0.00  0.00    +0.176 C 
ATOM     26  C   UNL     1     -32.606  18.107   1.391  0.00  0.00    +0.040 C 
ATOM     27  C   UNL     1     -29.485  18.377  -0.217  0.00  0.00    +0.429 C 
ENDBRANCH  18  21
ENDBRANCH   1  18
BRANCH   1  28
ATOM     28  C   UNL     1     -36.832  20.894  -0.056  0.00  0.00    +0.074 C 
BRANCH  28  29
ATOM     29  S   UNL     1     -37.759  19.357  -0.367  0.00  0.00    -0.077 S 
BRANCH  29  31
ATOM     30  O   UNL     1     -40.331  19.343  -0.980  0.00  0.00    -0.285 OA
ATOM     31  C   UNL     1     -39.352  20.025  -0.704  0.00  0.00    +0.199 C 
ATOM     32  C   UNL     1     -39.395  21.525  -0.621  0.00  0.00    +0.085 C 
ENDBRANCH  29  31
ENDBRANCH  28  29
ENDBRANCH   1  28
TORSDOF 11
ENDMDL
MODEL 2
REMARK VINA RESULT:      -6.5      2.411      6.856
REMARK  Name = 5311337
REMARK  11 active torsions:
REMARK  status: ('A' for Active; 'I' for Inactive)
REMARK    1  A    between atoms: C_1  and  C_4
REMARK    2  A    between atoms: C_1  and  C_18
REMARK    3  A    between atoms: C_1  and  C_28
REMARK    4  A    between atoms: N_3  and  C_6
REMARK    5  A    between atoms: C_6  and  C_9
REMARK    6  A    between atoms: C_9  and  O_10
REMARK    7  A    between atoms: O_10  and  C_11
REMARK    8  A    between atoms: C_11  and  C_12
REMARK    9  A    between atoms: C_18  and  C_21
REMARK   10  A    between atoms: C_28  and  S_29
REMARK   11  A    between atoms: S_29  and  C_31
REMARK                            x       y       z     vdW  Elec       q    Type
REMARK                         _______ _______ _______ _____ _____    ______ ____
ROOT
ATOM      1  C   UNL     1     -35.688  21.834   1.859  0.00  0.00    +0.092 C 
ENDROOT
BRANCH   1   4
ATOM      2  O   UNL     1     -37.370  23.026   0.572  0.00  0.00    -0.275 OA
ATOM      3  N   UNL     1     -38.077  21.587   2.248  0.00  0.00    -0.297 N 
ATOM      4  C   UNL     1     -37.120  22.228   1.475  0.00  0.00    +0.224 C 
ATOM      5  H   UNL     1     -37.776  20.964   2.948  0.00  0.00    +0.150 HD
BRANCH   3   6
ATOM      6  C   UNL     1     -39.495  21.794   2.070  0.00  0.00    +0.172 C 
ATOM      7  C   UNL     1     -39.837  23.262   2.270  0.00  0.00    +0.033 C 
BRANCH   6   9
ATOM      8  O   UNL     1     -40.840  21.908   0.067  0.00  0.00    -0.248 OA
ATOM      9  C   UNL     1     -39.973  21.320   0.705  0.00  0.00    +0.335 C 
BRANCH   9  10
ATOM     10  O   UNL     1     -39.323  20.196   0.292  0.00  0.00    -0.442 OA
BRANCH  10  11
ATOM     11  C   UNL     1     -38.863  20.205  -1.063  0.00  0.00    +0.235 C 
BRANCH  11  12
ATOM     12  C   UNL     1     -37.649  19.330  -1.174  0.00  0.00    +0.021 C 
ATOM     13  C   UNL     1     -37.584  18.133  -0.459  0.00  0.00    -0.001 C 
ATOM     14  C   UNL     1     -36.586  19.712  -1.991  0.00  0.00    -0.001 C 
ATOM     15  C   UNL     1     -36.456  17.319  -0.563  0.00  0.00    -0.000 C 
ATOM     16  C   UNL     1     -35.458  18.898  -2.095  0.00  0.00    -0.000 C 
ATOM     17  C   UNL     1     -35.393  17.702  -1.380  0.00  0.00    -0.000 C 
ENDBRANCH  11  12
ENDBRANCH  10  11
ENDBRANCH   9  10
ENDBRANCH   6   9
ENDBRANCH   3   6
ENDBRANCH   1   4
BRANCH   1  18
ATOM     18  C   UNL     1     -35.457  20.328   1.607  0.00  0.00    +0.036 C 
BRANCH  18  21
ATOM     19  O   UNL     1     -31.450  17.420   1.449  0.00  0.00    -0.435 OA
ATOM     20  O   UNL     1     -30.257  18.942   0.010  0.00  0.00    -0.435 OA
ATOM     21  C   UNL     1     -34.057  19.987   1.158  0.00  0.00    -0.018 C 
ATOM     22  C   UNL     1     -33.465  18.794   1.579  0.00  0.00    +0.036 C 
ATOM     23  C   UNL     1     -33.361  20.874   0.319  0.00  0.00    -0.001 C 
ATOM     24  C   UNL     1     -32.184  18.526   1.143  0.00  0.00    +0.176 C 
ATOM     25  C   UNL     1     -31.503  19.394   0.320  0.00  0.00    +0.176 C 
ATOM     26  C   UNL     1     -32.065  20.578  -0.109  0.00  0.00    +0.040 C 
ATOM     27  C   UNL     1     -30.231  17.691   0.727  0.00  0.00    +0.429 C 
ENDBRANCH  18  21
ENDBRANCH   1  18
BRANCH   1  28
ATOM     28  C   UNL     1     -35.349  22.305   3.288  0.00  0.00    +0.074 C 
BRANCH  28  29
ATOM     29  S   UNL     1     -35.219  24.112   3.486  0.00  0.00    -0.077 S 
BRANCH  29  31
ATOM     30  O   UNL     1     -36.049  23.328   5.871  0.00  0.00    -0.285 OA
ATOM     31  C   UNL     1     -35.777  24.277   5.147  0.00  0.00    +0.199 C 
ATOM     32  C   UNL     1     -35.892  25.707   5.594  0.00  0.00    +0.085 C 
ENDBRANCH  29  31
ENDBRANCH  28  29
ENDBRANCH   1  28
TORSDOF 11
ENDMDL
MODEL 3
REMARK VINA RESULT:      -6.5      2.047      3.366
REMARK  Name = 5311337
REMARK  11 active torsions:
REMARK  status: ('A' for Active; 'I' for Inactive)
REMARK    1  A    between atoms: C_1  and  C_4
REMARK    2  A    between atoms: C_1  and  C_18
REMARK    3  A    between atoms: C_1  and  C_28
REMARK    4  A    between atoms: N_3  and  C_6
REMARK    5  A    between atoms: C_6  and  C_9
REMARK    6  A    between atoms: C_9  and  O_10
REMARK    7  A    between atoms: O_10  and  C_11
REMARK    8  A    between atoms: C_11  and  C_12
REMARK    9  A    between atoms: C_18  and  C_21
REMARK   10  A    between atoms: C_28  and  S_29
REMARK   11  A    between atoms: S_29  and  C_31
REMARK                            x       y       z     vdW  Elec       q    Type
REMARK                         _______ _______ _______ _____ _____    ______ ____
ROOT
ATOM      1  C   UNL     1     -36.710  21.501   1.913  0.00  0.00    +0.092 C 
ENDROOT
BRANCH   1   4
ATOM      2  O   UNL     1     -37.835  23.136   3.315  0.00  0.00    -0.275 OA
ATOM      3  N   UNL     1     -35.799  22.284   4.029  0.00  0.00    -0.297 N 
ATOM      4  C   UNL     1     -36.863  22.402   3.146  0.00  0.00    +0.224 C 
ATOM      5  H   UNL     1     -35.067  21.667   3.804  0.00  0.00    +0.150 HD
BRANCH   3   6
ATOM      6  C   UNL     1     -35.721  23.029   5.264  0.00  0.00    +0.172 C 
ATOM      7  C   UNL     1     -35.103  22.167   6.354  0.00  0.00    +0.033 C 
BRANCH   6   9
ATOM      8  O   UNL     1     -33.714  24.343   4.991  0.00  0.00    -0.248 OA
ATOM      9  C   UNL     1     -34.936  24.321   5.102  0.00  0.00    +0.335 C 
BRANCH   9  10
ATOM     10  O   UNL     1     -35.743  25.419   5.088  0.00  0.00    -0.442 OA
BRANCH  10  11
ATOM     11  C   UNL     1     -35.340  26.478   4.213  0.00  0.00    +0.235 C 
BRANCH  11  12
ATOM     12  C   UNL     1     -35.839  26.186   2.828  0.00  0.00    +0.021 C 
ATOM     13  C   UNL     1     -37.202  26.277   2.545  0.00  0.00    -0.001 C 
ATOM     14  C   UNL     1     -34.940  25.826   1.825  0.00  0.00    -0.001 C 
ATOM     15  C   UNL     1     -37.666  26.007   1.257  0.00  0.00    -0.000 C 
ATOM     16  C   UNL     1     -35.404  25.556   0.537  0.00  0.00    -0.000 C 
ATOM     17  C   UNL     1     -36.768  25.646   0.254  0.00  0.00    -0.000 C 
ENDBRANCH  11  12
ENDBRANCH  10  11
ENDBRANCH   9  10
ENDBRANCH   6   9
ENDBRANCH   3   6
ENDBRANCH   1   4
BRANCH   1  18
ATOM     18  C   UNL     1     -35.714  22.124   0.911  0.00  0.00    +0.036 C 
BRANCH  18  21
ATOM     19  O   UNL     1     -32.858  18.141   1.622  0.00  0.00    -0.435 OA
ATOM     20  O   UNL     1     -31.062  19.044   0.292  0.00  0.00    -0.435 OA
ATOM     21  C   UNL     1     -34.448  21.324   0.723  0.00  0.00    -0.018 C 
ATOM     22  C   UNL     1     -34.329  20.067   1.320  0.00  0.00    +0.036 C 
ATOM     23  C   UNL     1     -33.401  21.851  -0.052  0.00  0.00    -0.001 C 
ATOM     24  C   UNL     1     -33.153  19.372   1.120  0.00  0.00    +0.176 C 
ATOM     25  C   UNL     1     -32.128  19.887   0.361  0.00  0.00    +0.176 C 
ATOM     26  C   UNL     1     -32.222  21.126  -0.239  0.00  0.00    +0.040 C 
ATOM     27  C   UNL     1     -31.531  17.940   1.092  0.00  0.00    +0.429 C 
ENDBRANCH  18  21
ENDBRANCH   1  18
BRANCH   1  28
ATOM     28  C   UNL     1     -38.086  21.144   1.314  0.00  0.00    +0.074 C 
BRANCH  28  29
ATOM     29  S   UNL     1     -38.544  22.098  -0.169  0.00  0.00    -0.077 S 
BRANCH  29  31
ATOM     30  O   UNL     1     -40.499  22.695   1.510  0.00  0.00    -0.285 OA
ATOM     31  C   UNL     1     -39.952  22.957   0.446  0.00  0.00    +0.199 C 
ATOM     32  C   UNL     1     -40.424  24.052  -0.469  0.00  0.00    +0.085 C 
ENDBRANCH  29  31
ENDBRANCH  28  29
ENDBRANCH   1  28
TORSDOF 11
ENDMDL
MODEL 4
REMARK VINA RESULT:      -6.5      1.949      3.258
REMARK  Name = 5311337
REMARK  11 active torsions:
REMARK  status: ('A' for Active; 'I' for Inactive)
REMARK    1  A    between atoms: C_1  and  C_4
REMARK    2  A    between atoms: C_1  and  C_18
REMARK    3  A    between atoms: C_1  and  C_28
REMARK    4  A    between atoms: N_3  and  C_6
REMARK    5  A    between atoms: C_6  and  C_9
REMARK    6  A    between atoms: C_9  and  O_10
REMARK    7  A    between atoms: O_10  and  C_11
REMARK    8  A    between atoms: C_11  and  C_12
REMARK    9  A    between atoms: C_18  and  C_21
REMARK   10  A    between atoms: C_28  and  S_29
REMARK   11  A    between atoms: S_29  and  C_31
REMARK                            x       y       z     vdW  Elec       q    Type
REMARK                         _______ _______ _______ _____ _____    ______ ____
ROOT
ATOM      1  C   UNL     1     -36.363  21.294   1.643  0.00  0.00    +0.092 C 
ENDROOT
BRANCH   1   4
ATOM      2  O   UNL     1     -37.766  22.637   3.104  0.00  0.00    -0.275 OA
ATOM      3  N   UNL     1     -35.575  22.231   3.745  0.00  0.00    -0.297 N 
ATOM      4  C   UNL     1     -36.666  22.128   2.895  0.00  0.00    +0.224 C 
ATOM      5  H   UNL     1     -34.735  21.787   3.489  0.00  0.00    +0.150 HD
BRANCH   3   6
ATOM      6  C   UNL     1     -35.618  22.962   4.990  0.00  0.00    +0.172 C 
ATOM      7  C   UNL     1     -34.994  22.135   6.103  0.00  0.00    +0.033 C 
BRANCH   6   9
ATOM      8  O   UNL     1     -33.706  24.428   4.825  0.00  0.00    -0.248 OA
ATOM      9  C   UNL     1     -34.926  24.313   4.882  0.00  0.00    +0.335 C 
BRANCH   9  10
ATOM     10  O   UNL     1     -35.813  25.347   4.850  0.00  0.00    -0.442 OA
BRANCH  10  11
ATOM     11  C   UNL     1     -35.632  26.290   3.788  0.00  0.00    +0.235 C 
BRANCH  11  12
ATOM     12  C   UNL     1     -36.513  25.906   2.636  0.00  0.00    +0.021 C 
ATOM     13  C   UNL     1     -35.947  25.417   1.457  0.00  0.00    -0.001 C 
ATOM     14  C   UNL     1     -37.897  26.036   2.743  0.00  0.00    -0.001 C 
ATOM     15  C   UNL     1     -36.767  25.059   0.387  0.00  0.00    -0.000 C 
ATOM     16  C   UNL     1     -38.716  25.678   1.672  0.00  0.00    -0.000 C 
ATOM     17  C   UNL     1     -38.151  25.190   0.494  0.00  0.00    -0.000 C 
ENDBRANCH  11  12
ENDBRANCH  10  11
ENDBRANCH   9  10
ENDBRANCH   6   9
ENDBRANCH   3   6
ENDBRANCH   1   4
BRANCH   1  18
ATOM     18  C   UNL     1     -35.080  21.804   0.952  0.00  0.00    +0.036 C 
BRANCH  18  21
ATOM     19  O   UNL     1     -30.629  20.204  -0.517  0.00  0.00    -0.435 OA
ATOM     20  O   UNL     1     -30.885  18.090   0.611  0.00  0.00    -0.435 OA
ATOM     21  C   UNL     1     -33.972  20.782   0.882  0.00  0.00    -0.018 C 
ATOM     22  C   UNL     1     -32.809  21.069   0.164  0.00  0.00    +0.036 C 
ATOM     23  C   UNL     1     -34.121  19.549   1.540  0.00  0.00    -0.001 C 
ATOM     24  C   UNL     1     -31.823  20.103   0.129  0.00  0.00    +0.176 C 
ATOM     25  C   UNL     1     -31.969  18.896   0.774  0.00  0.00    +0.176 C 
ATOM     26  C   UNL     1     -33.108  18.589   1.489  0.00  0.00    +0.040 C 
ATOM     27  C   UNL     1     -30.040  18.924  -0.206  0.00  0.00    +0.429 C 
ENDBRANCH  18  21
ENDBRANCH   1  18
BRANCH   1  28
ATOM     28  C   UNL     1     -37.598  21.210   0.722  0.00  0.00    +0.074 C 
BRANCH  28  29
ATOM     29  S   UNL     1     -37.229  20.805  -1.015  0.00  0.00    -0.077 S 
BRANCH  29  31
ATOM     30  O   UNL     1     -37.467  18.329  -0.117  0.00  0.00    -0.285 OA
ATOM     31  C   UNL     1     -36.857  19.091  -0.856  0.00  0.00    +0.199 C 
ATOM     32  C   UNL     1     -35.709  18.652  -1.720  0.00  0.00    +0.085 C 
ENDBRANCH  29  31
ENDBRANCH  28  29
ENDBRANCH   1  28
TORSDOF 11
ENDMDL
MODEL 5
REMARK VINA RESULT:      -6.5      3.480      7.371
REMARK  Name = 5311337
REMARK  11 active torsions:
REMARK  status: ('A' for Active; 'I' for Inactive)
REMARK    1  A    between atoms: C_1  and  C_4
REMARK    2  A    between atoms: C_1  and  C_18
REMARK    3  A    between atoms: C_1  and  C_28
REMARK    4  A    between atoms: N_3  and  C_6
REMARK    5  A    between atoms: C_6  and  C_9
REMARK    6  A    between atoms: C_9  and  O_10
REMARK    7  A    between atoms: O_10  and  C_11
REMARK    8  A    between atoms: C_11  and  C_12
REMARK    9  A    between atoms: C_18  and  C_21
REMARK   10  A    between atoms: C_28  and  S_29
REMARK   11  A    between atoms: S_29  and  C_31
REMARK                            x       y       z     vdW  Elec       q    Type
REMARK                         _______ _______ _______ _____ _____    ______ ____
ROOT
ATOM      1  C   UNL     1     -37.989  23.085   2.365  0.00  0.00    +0.092 C 
ENDROOT
BRANCH   1   4
ATOM      2  O   UNL     1     -37.945  24.787   4.099  0.00  0.00    -0.275 OA
ATOM      3  N   UNL     1     -36.404  23.057   4.210  0.00  0.00    -0.297 N 
ATOM      4  C   UNL     1     -37.462  23.751   3.643  0.00  0.00    +0.224 C 
ATOM      5  H   UNL     1     -36.090  22.236   3.769  0.00  0.00    +0.150 HD
BRANCH   3   6
ATOM      6  C   UNL     1     -35.745  23.487   5.421  0.00  0.00    +0.172 C 
ATOM      7  C   UNL     1     -35.075  22.302   6.099  0.00  0.00    +0.033 C 
BRANCH   6   9
ATOM      8  O   UNL     1     -34.569  25.536   5.920  0.00  0.00    -0.248 OA
ATOM      9  C   UNL     1     -34.730  24.589   5.157  0.00  0.00    +0.335 C 
BRANCH   9  10
ATOM     10  O   UNL     1     -34.039  24.389   4.000  0.00  0.00    -0.442 OA
BRANCH  10  11
ATOM     11  C   UNL     1     -33.717  25.567   3.255  0.00  0.00    +0.235 C 
BRANCH  11  12
ATOM     12  C   UNL     1     -34.845  25.876   2.315  0.00  0.00    +0.021 C 
ATOM     13  C   UNL     1     -35.039  25.094   1.176  0.00  0.00    -0.001 C 
ATOM     14  C   UNL     1     -35.701  26.945   2.580  0.00  0.00    -0.001 C 
ATOM     15  C   UNL     1     -36.088  25.380   0.303  0.00  0.00    -0.000 C 
ATOM     16  C   UNL     1     -36.750  27.232   1.707  0.00  0.00    -0.000 C 
ATOM     17  C   UNL     1     -36.943  26.449   0.568  0.00  0.00    -0.000 C 
ENDBRANCH  11  12
ENDBRANCH  10  11
ENDBRANCH   9  10
ENDBRANCH   6   9
ENDBRANCH   3   6
ENDBRANCH   1   4
BRANCH   1  18
ATOM     18  C   UNL     1     -39.519  23.267   2.252  0.00  0.00    +0.036 C 
BRANCH  18  21
ATOM     19  O   UNL     1     -41.255  27.825   1.387  0.00  0.00    -0.435 OA
ATOM     20  O   UNL     1     -41.110  27.554  -1.004  0.00  0.00    -0.435 OA
ATOM     21  C   UNL     1     -39.938  24.399   1.347  0.00  0.00    -0.018 C 
ATOM     22  C   UNL     1     -40.406  25.593   1.901  0.00  0.00    +0.036 C 
ATOM     23  C   UNL     1     -39.854  24.241  -0.048  0.00  0.00    -0.001 C 
ATOM     24  C   UNL     1     -40.777  26.599   1.033  0.00  0.00    +0.176 C 
ATOM     25  C   UNL     1     -40.694  26.446  -0.332  0.00  0.00    +0.176 C 
ATOM     26  C   UNL     1     -40.236  25.276  -0.904  0.00  0.00    +0.040 C 
ATOM     27  C   UNL     1     -41.463  28.423   0.091  0.00  0.00    +0.429 C 
ENDBRANCH  18  21
ENDBRANCH   1  18
BRANCH   1  28
ATOM     28  C   UNL     1     -37.507  21.623   2.264  0.00  0.00    +0.074 C 
BRANCH  28  29
ATOM     29  S   UNL     1     -36.135  21.351   1.096  0.00  0.00    -0.077 S 
BRANCH  29  31
ATOM     30  O   UNL     1     -35.122  20.352   3.326  0.00  0.00    -0.285 OA
ATOM     31  C   UNL     1     -35.069  20.376   2.103  0.00  0.00    +0.199 C 
ATOM     32  C   UNL     1     -34.077  19.572   1.310  0.00  0.00    +0.085 C 
ENDBRANCH  29  31
ENDBRANCH  28  29
ENDBRANCH   1  28
TORSDOF 11
ENDMDL
MODEL 6
REMARK VINA RESULT:      -6.5      2.192      3.444
REMARK  Name = 5311337
REMARK  11 active torsions:
REMARK  status: ('A' for Active; 'I' for Inactive)
REMARK    1  A    between atoms: C_1  and  C_4
REMARK    2  A    between atoms: C_1  and  C_18
REMARK    3  A    between atoms: C_1  and  C_28
REMARK    4  A    between atoms: N_3  and  C_6
REMARK    5  A    between atoms: C_6  and  C_9
REMARK    6  A    between atoms: C_9  and  O_10
REMARK    7  A    between atoms: O_10  and  C_11
REMARK    8  A    between atoms: C_11  and  C_12
REMARK    9  A    between atoms: C_18  and  C_21
REMARK   10  A    between atoms: C_28  and  S_29
REMARK   11  A    between atoms: S_29  and  C_31
REMARK                            x       y       z     vdW  Elec       q    Type
REMARK                         _______ _______ _______ _____ _____    ______ ____
ROOT
ATOM      1  C   UNL     1     -35.351  20.394   2.207  0.00  0.00    +0.092 C 
ENDROOT
BRANCH   1   4
ATOM      2  O   UNL     1     -35.165  20.730   4.606  0.00  0.00    -0.275 OA
ATOM      3  N   UNL     1     -35.704  22.551   3.276  0.00  0.00    -0.297 N 
ATOM      4  C   UNL     1     -35.392  21.218   3.500  0.00  0.00    +0.224 C 
ATOM      5  H   UNL     1     -35.869  22.846   2.352  0.00  0.00    +0.150 HD
BRANCH   3   6
ATOM      6  C   UNL     1     -35.796  23.524   4.339  0.00  0.00    +0.172 C 
ATOM      7  C   UNL     1     -34.415  24.071   4.666  0.00  0.00    +0.033 C 
BRANCH   6   9
ATOM      8  O   UNL     1     -37.962  24.571   4.134  0.00  0.00    -0.248 OA
ATOM      9  C   UNL     1     -36.747  24.659   3.992  0.00  0.00    +0.335 C 
BRANCH   9  10
ATOM     10  O   UNL     1     -36.091  25.758   3.525  0.00  0.00    -0.442 OA
BRANCH  10  11
ATOM     11  C   UNL     1     -36.506  26.232   2.240  0.00  0.00    +0.235 C 
BRANCH  11  12
ATOM     12  C   UNL     1     -35.753  25.488   1.176  0.00  0.00    +0.021 C 
ATOM     13  C   UNL     1     -34.360  25.430   1.218  0.00  0.00    -0.001 C 
ATOM     14  C   UNL     1     -36.447  24.853   0.146  0.00  0.00    -0.001 C 
ATOM     15  C   UNL     1     -33.660  24.737   0.230  0.00  0.00    -0.000 C 
ATOM     16  C   UNL     1     -35.747  24.160  -0.842  0.00  0.00    -0.000 C 
ATOM     17  C   UNL     1     -34.353  24.103  -0.800  0.00  0.00    -0.000 C 
ENDBRANCH  11  12
ENDBRANCH  10  11
ENDBRANCH   9  10
ENDBRANCH   6   9
ENDBRANCH   3   6
ENDBRANCH   1   4
BRANCH   1  18
ATOM     18  C   UNL     1     -34.533  21.131   1.123  0.00  0.00    +0.036 C 
BRANCH  18  21
ATOM     19  O   UNL     1     -31.415  17.283   1.173  0.00  0.00    -0.435 OA
ATOM     20  O   UNL     1     -29.835  18.393  -0.269  0.00  0.00    -0.435 OA
ATOM     21  C   UNL     1     -33.260  20.424   0.728  0.00  0.00    -0.018 C 
ATOM     22  C   UNL     1     -33.008  19.134   1.201  0.00  0.00    +0.036 C 
ATOM     23  C   UNL     1     -32.338  21.072  -0.113  0.00  0.00    -0.001 C 
ATOM     24  C   UNL     1     -31.830  18.529   0.813  0.00  0.00    +0.176 C 
ATOM     25  C   UNL     1     -30.927  19.162  -0.011  0.00  0.00    +0.176 C 
ATOM     26  C   UNL     1     -31.153  20.436  -0.491  0.00  0.00    +0.040 C 
ATOM     27  C   UNL     1     -30.151  17.204   0.483  0.00  0.00    +0.429 C 
ENDBRANCH  18  21
ENDBRANCH   1  18
BRANCH   1  28
ATOM     28  C   UNL     1     -36.772  19.981   1.769  0.00  0.00    +0.074 C 
BRANCH  28  29
ATOM     29  S   UNL     1     -37.412  20.869   0.313  0.00  0.00    -0.077 S 
BRANCH  29  31
ATOM     30  O   UNL     1     -40.043  20.612   0.342  0.00  0.00    -0.285 OA
ATOM     31  C   UNL     1     -39.067  21.160   0.838  0.00  0.00    +0.199 C 
ATOM     32  C   UNL     1     -39.167  22.155   1.959  0.00  0.00    +0.085 C 
ENDBRANCH  29  31
ENDBRANCH  28  29
ENDBRANCH   1  28
TORSDOF 11
ENDMDL
MODEL 7
REMARK VINA RESULT:      -6.5      5.988      8.906
REMARK  Name = 5311337
REMARK  11 active torsions:
REMARK  status: ('A' for Active; 'I' for Inactive)
REMARK    1  A    between atoms: C_1  and  C_4
REMARK    2  A    between atoms: C_1  and  C_18
REMARK    3  A    between atoms: C_1  and  C_28
REMARK    4  A    between atoms: N_3  and  C_6
REMARK    5  A    between atoms: C_6  and  C_9
REMARK    6  A    between atoms: C_9  and  O_10
REMARK    7  A    between atoms: O_10  and  C_11
REMARK    8  A    between atoms: C_11  and  C_12
REMARK    9  A    between atoms: C_18  and  C_21
REMARK   10  A    between atoms: C_28  and  S_29
REMARK   11  A    between atoms: S_29  and  C_31
REMARK                            x       y       z     vdW  Elec       q    Type
REMARK                         _______ _______ _______ _____ _____    ______ ____
ROOT
ATOM      1  C   UNL     1     -39.764  24.904   2.017  0.00  0.00    +0.092 C 
ENDROOT
BRANCH   1   4
ATOM      2  O   UNL     1     -39.527  27.218   1.314  0.00  0.00    -0.275 OA
ATOM      3  N   UNL     1     -41.511  26.569   2.324  0.00  0.00    -0.297 N 
ATOM      4  C   UNL     1     -40.229  26.355   1.839  0.00  0.00    +0.224 C 
ATOM      5  H   UNL     1     -41.994  25.812   2.727  0.00  0.00    +0.150 HD
BRANCH   3   6
ATOM      6  C   UNL     1     -42.167  27.855   2.264  0.00  0.00    +0.172 C 
ATOM      7  C   UNL     1     -43.240  27.842   1.186  0.00  0.00    +0.033 C 
BRANCH   6   9
ATOM      8  O   UNL     1     -42.093  28.710   4.521  0.00  0.00    -0.248 OA
ATOM      9  C   UNL     1     -42.767  28.252   3.604  0.00  0.00    +0.335 C 
BRANCH   9  10
ATOM     10  O   UNL     1     -44.113  28.046   3.648  0.00  0.00    -0.442 OA
BRANCH  10  11
ATOM     11  C   UNL     1     -44.608  27.418   4.836  0.00  0.00    +0.235 C 
BRANCH  11  12
ATOM     12  C   UNL     1     -45.514  26.285   4.449  0.00  0.00    +0.021 C 
ATOM     13  C   UNL     1     -45.360  25.660   3.212  0.00  0.00    -0.001 C 
ATOM     14  C   UNL     1     -46.509  25.858   5.328  0.00  0.00    -0.001 C 
ATOM     15  C   UNL     1     -46.202  24.607   2.853  0.00  0.00    -0.000 C 
ATOM     16  C   UNL     1     -47.350  24.804   4.969  0.00  0.00    -0.000 C 
ATOM     17  C   UNL     1     -47.197  24.179   3.731  0.00  0.00    -0.000 C 
ENDBRANCH  11  12
ENDBRANCH  10  11
ENDBRANCH   9  10
ENDBRANCH   6   9
ENDBRANCH   3   6
ENDBRANCH   1   4
BRANCH   1  18
ATOM     18  C   UNL     1     -38.257  24.778   1.706  0.00  0.00    +0.036 C 
BRANCH  18  21
ATOM     19  O   UNL     1     -35.584  21.577   4.378  0.00  0.00    -0.435 OA
ATOM     20  O   UNL     1     -35.109  23.214   6.083  0.00  0.00    -0.435 OA
ATOM     21  C   UNL     1     -37.414  24.392   2.897  0.00  0.00    -0.018 C 
ATOM     22  C   UNL     1     -36.916  23.091   3.001  0.00  0.00    +0.036 C 
ATOM     23  C   UNL     1     -37.137  25.346   3.891  0.00  0.00    -0.001 C 
ATOM     24  C   UNL     1     -36.149  22.785   4.107  0.00  0.00    +0.176 C 
ATOM     25  C   UNL     1     -35.877  23.720   5.080  0.00  0.00    +0.176 C 
ATOM     26  C   UNL     1     -36.357  25.011   5.001  0.00  0.00    +0.040 C 
ATOM     27  C   UNL     1     -34.926  21.856   5.631  0.00  0.00    +0.429 C 
ENDBRANCH  18  21
ENDBRANCH   1  18
BRANCH   1  28
ATOM     28  C   UNL     1     -40.666  23.932   1.228  0.00  0.00    +0.074 C 
BRANCH  28  29
ATOM     29  S   UNL     1     -39.805  22.953  -0.044  0.00  0.00    -0.077 S 
BRANCH  29  31
ATOM     30  O   UNL     1     -40.260  21.155   1.842  0.00  0.00    -0.285 OA
ATOM     31  C   UNL     1     -39.677  21.410   0.795  0.00  0.00    +0.199 C 
ATOM     32  C   UNL     1     -38.776  20.430   0.099  0.00  0.00    +0.085 C 
ENDBRANCH  29  31
ENDBRANCH  28  29
ENDBRANCH   1  28
TORSDOF 11
ENDMDL
MODEL 8
REMARK VINA RESULT:      -6.5      2.520      7.256
REMARK  Name = 5311337
REMARK  11 active torsions:
REMARK  status: ('A' for Active; 'I' for Inactive)
REMARK    1  A    between atoms: C_1  and  C_4
REMARK    2  A    between atoms: C_1  and  C_18
REMARK    3  A    between atoms: C_1  and  C_28
REMARK    4  A    between atoms: N_3  and  C_6
REMARK    5  A    between atoms: C_6  and  C_9
REMARK    6  A    between atoms: C_9  and  O_10
REMARK    7  A    between atoms: O_10  and  C_11
REMARK    8  A    between atoms: C_11  and  C_12
REMARK    9  A    between atoms: C_18  and  C_21
REMARK   10  A    between atoms: C_28  and  S_29
REMARK   11  A    between atoms: S_29  and  C_31
REMARK                            x       y       z     vdW  Elec       q    Type
REMARK                         _______ _______ _______ _____ _____    ______ ____
ROOT
ATOM      1  C   UNL     1     -35.742  21.385   1.962  0.00  0.00    +0.092 C 
ENDROOT
BRANCH   1   4
ATOM      2  O   UNL     1     -38.119  21.807   2.242  0.00  0.00    -0.275 OA
ATOM      3  N   UNL     1     -37.285  21.572   0.090  0.00  0.00    -0.297 N 
ATOM      4  C   UNL     1     -37.179  21.611   1.473  0.00  0.00    +0.224 C 
ATOM      5  H   UNL     1     -36.472  21.408  -0.439  0.00  0.00    +0.150 HD
BRANCH   3   6
ATOM      6  C   UNL     1     -38.537  21.763  -0.604  0.00  0.00    +0.172 C 
ATOM      7  C   UNL     1     -38.281  22.317  -1.997  0.00  0.00    +0.033 C 
BRANCH   6   9
ATOM      8  O   UNL     1     -40.427  20.338  -0.124  0.00  0.00    -0.248 OA
ATOM      9  C   UNL     1     -39.345  20.477  -0.686  0.00  0.00    +0.335 C 
BRANCH   9  10
ATOM     10  O   UNL     1     -38.732  19.529  -1.450  0.00  0.00    -0.442 OA
BRANCH  10  11
ATOM     11  C   UNL     1     -38.264  18.372  -0.750  0.00  0.00    +0.235 C 
BRANCH  11  12
ATOM     12  C   UNL     1     -36.839  18.106  -1.140  0.00  0.00    +0.021 C 
ATOM     13  C   UNL     1     -36.179  16.980  -0.646  0.00  0.00    -0.001 C 
ATOM     14  C   UNL     1     -36.176  18.983  -1.997  0.00  0.00    -0.001 C 
ATOM     15  C   UNL     1     -34.855  16.732  -1.010  0.00  0.00    -0.000 C 
ATOM     16  C   UNL     1     -34.852  18.735  -2.361  0.00  0.00    -0.000 C 
ATOM     17  C   UNL     1     -34.192  17.610  -1.867  0.00  0.00    -0.000 C 
ENDBRANCH  11  12
ENDBRANCH  10  11
ENDBRANCH   9  10
ENDBRANCH   6   9
ENDBRANCH   3   6
ENDBRANCH   1   4
BRANCH   1  18
ATOM     18  C   UNL     1     -35.325  19.913   1.751  0.00  0.00    +0.036 C 
BRANCH  18  21
ATOM     19  O   UNL     1     -31.051  17.457   1.270  0.00  0.00    -0.435 OA
ATOM     20  O   UNL     1     -30.103  19.150  -0.161  0.00  0.00    -0.435 OA
ATOM     21  C   UNL     1     -33.924  19.740   1.219  0.00  0.00    -0.018 C 
ATOM     22  C   UNL     1     -33.189  18.603   1.559  0.00  0.00    +0.036 C 
ATOM     23  C   UNL     1     -33.371  20.727   0.385  0.00  0.00    -0.001 C 
ATOM     24  C   UNL     1     -31.912  18.489   1.048  0.00  0.00    +0.176 C 
ATOM     25  C   UNL     1     -31.370  19.455   0.231  0.00  0.00    +0.176 C 
ATOM     26  C   UNL     1     -32.076  20.588  -0.120  0.00  0.00    +0.040 C 
ATOM     27  C   UNL     1     -29.908  17.883   0.500  0.00  0.00    +0.429 C 
ENDBRANCH  18  21
ENDBRANCH   1  18
BRANCH   1  28
ATOM     28  C   UNL     1     -35.560  21.905   3.403  0.00  0.00    +0.074 C 
BRANCH  28  29
ATOM     29  S   UNL     1     -35.243  23.694   3.535  0.00  0.00    -0.077 S 
BRANCH  29  31
ATOM     30  O   UNL     1     -34.670  24.870   5.833  0.00  0.00    -0.285 OA
ATOM     31  C   UNL     1     -34.997  23.831   5.273  0.00  0.00    +0.199 C 
ATOM     32  C   UNL     1     -35.226  22.541   6.008  0.00  0.00    +0.085 C 
ENDBRANCH  29  31
ENDBRANCH  28  29
ENDBRANCH   1  28
TORSDOF 11
ENDMDL
MODEL 9
REMARK VINA RESULT:      -6.4      2.521      4.251
REMARK  Name = 5311337
REMARK  11 active torsions:
REMARK  status: ('A' for Active; 'I' for Inactive)
REMARK    1  A    between atoms: C_1  and  C_4
REMARK    2  A    between atoms: C_1  and  C_18
REMARK    3  A    between atoms: C_1  and  C_28
REMARK    4  A    between atoms: N_3  and  C_6
REMARK    5  A    between atoms: C_6  and  C_9
REMARK    6  A    between atoms: C_9  and  O_10
REMARK    7  A    between atoms: O_10  and  C_11
REMARK    8  A    between atoms: C_11  and  C_12
REMARK    9  A    between atoms: C_18  and  C_21
REMARK   10  A    between atoms: C_28  and  S_29
REMARK   11  A    between atoms: S_29  and  C_31
REMARK                            x       y       z     vdW  Elec       q    Type
REMARK                         _______ _______ _______ _____ _____    ______ ____
ROOT
ATOM      1  C   UNL     1     -35.635  22.106   2.160  0.00  0.00    +0.092 C 
ENDROOT
BRANCH   1   4
ATOM      2  O   UNL     1     -36.464  22.914   0.023  0.00  0.00    -0.275 OA
ATOM      3  N   UNL     1     -37.598  23.529   1.951  0.00  0.00    -0.297 N 
ATOM      4  C   UNL     1     -36.592  22.884   1.246  0.00  0.00    +0.224 C 
ATOM      5  H   UNL     1     -37.615  23.443   2.931  0.00  0.00    +0.150 HD
BRANCH   3   6
ATOM      6  C   UNL     1     -38.621  24.320   1.308  0.00  0.00    +0.172 C 
ATOM      7  C   UNL     1     -39.997  23.862   1.764  0.00  0.00    +0.033 C 
BRANCH   6   9
ATOM      8  O   UNL     1     -39.241  26.462   2.234  0.00  0.00    -0.248 OA
ATOM      9  C   UNL     1     -38.442  25.807   1.573  0.00  0.00    +0.335 C 
BRANCH   9  10
ATOM     10  O   UNL     1     -37.307  26.301   1.003  0.00  0.00    -0.442 OA
BRANCH  10  11
ATOM     11  C   UNL     1     -36.714  27.422   1.666  0.00  0.00    +0.235 C 
BRANCH  11  12
ATOM     12  C   UNL     1     -35.304  27.076   2.048  0.00  0.00    +0.021 C 
ATOM     13  C   UNL     1     -34.578  27.927   2.882  0.00  0.00    -0.001 C 
ATOM     14  C   UNL     1     -34.720  25.904   1.568  0.00  0.00    -0.001 C 
ATOM     15  C   UNL     1     -33.268  27.605   3.237  0.00  0.00    -0.000 C 
ATOM     16  C   UNL     1     -33.410  25.582   1.924  0.00  0.00    -0.000 C 
ATOM     17  C   UNL     1     -32.684  26.433   2.758  0.00  0.00    -0.000 C 
ENDBRANCH  11  12
ENDBRANCH  10  11
ENDBRANCH   9  10
ENDBRANCH   6   9
ENDBRANCH   3   6
ENDBRANCH   1   4
BRANCH   1  18
ATOM     18  C   UNL     1     -35.533  20.633   1.707  0.00  0.00    +0.036 C 
BRANCH  18  21
ATOM     19  O   UNL     1     -31.658  17.557   1.472  0.00  0.00    -0.435 OA
ATOM     20  O   UNL     1     -30.437  19.020  -0.005  0.00  0.00    -0.435 OA
ATOM     21  C   UNL     1     -34.160  20.231   1.227  0.00  0.00    -0.018 C 
ATOM     22  C   UNL     1     -33.610  19.016   1.641  0.00  0.00    +0.036 C 
ATOM     23  C   UNL     1     -33.448  21.084   0.366  0.00  0.00    -0.001 C 
ATOM     24  C   UNL     1     -32.352  18.692   1.176  0.00  0.00    +0.176 C 
ATOM     25  C   UNL     1     -31.654  19.526   0.333  0.00  0.00    +0.176 C 
ATOM     26  C   UNL     1     -32.176  20.731  -0.091  0.00  0.00    +0.040 C 
ATOM     27  C   UNL     1     -30.446  17.773   0.719  0.00  0.00    +0.429 C 
ENDBRANCH  18  21
ENDBRANCH   1  18
BRANCH   1  28
ATOM     28  C   UNL     1     -36.010  22.297   3.644  0.00  0.00    +0.074 C 
BRANCH  28  29
ATOM     29  S   UNL     1     -34.943  23.457   4.559  0.00  0.00    -0.077 S 
BRANCH  29  31
ATOM     30  O   UNL     1     -37.275  24.703   4.542  0.00  0.00    -0.285 OA
ATOM     31  C   UNL     1     -36.107  24.731   4.906  0.00  0.00    +0.199 C 
ATOM     32  C   UNL     1     -35.523  25.867   5.698  0.00  0.00    +0.085 C 
ENDBRANCH  29  31
ENDBRANCH  28  29
ENDBRANCH   1  28
TORSDOF 11
ENDMDL
