MODEL 1
REMARK VINA RESULT:      -6.6      0.000      0.000
REMARK  Name = 54704072
REMARK  5 active torsions:
REMARK  status: ('A' for Active; 'I' for Inactive)
REMARK    1  A    between atoms: C_6  and  O_23
REMARK    2  A    between atoms: C_14  and  C_20
REMARK    3  A    between atoms: C_17  and  C_28
REMARK    4  A    between atoms: C_19  and  O_25
REMARK    5  A    between atoms: C_28  and  O_29
REMARK                            x       y       z     vdW  Elec       q    Type
REMARK                         _______ _______ _______ _____ _____    ______ ____
ROOT
ATOM      1  O   UNL     1     -32.897  26.504   1.993  0.00  0.00    -0.449 OA
ATOM      2  O   UNL     1     -36.702  23.411   4.330  0.00  0.00    -0.296 OA
ATOM      3  O   UNL     1     -32.104  24.750   0.750  0.00  0.00    -0.245 OA
ATOM      4  C   UNL     1     -35.927  25.515   3.442  0.00  0.00    +0.090 C 
ATOM      5  C   UNL     1     -35.209  25.914   2.145  0.00  0.00    +0.078 C 
ATOM      6  C   UNL     1     -34.841  25.643   4.527  0.00  0.00    +0.099 C 
ATOM      7  C   UNL     1     -34.144  26.918   2.566  0.00  0.00    +0.176 C 
ATOM      8  C   UNL     1     -34.080  26.907   4.097  0.00  0.00    +0.071 C 
ATOM      9  C   UNL     1     -37.185  23.763   1.979  0.00  0.00    +0.093 C 
ATOM     10  C   UNL     1     -34.406  24.864   1.464  0.00  0.00    +0.053 C 
ATOM     11  C   UNL     1     -36.139  22.985   1.133  0.00  0.00    +0.037 C 
ATOM     12  C   UNL     1     -36.604  24.149   3.348  0.00  0.00    +0.157 C 
ATOM     13  C   UNL     1     -34.772  23.650   1.032  0.00  0.00    -0.023 C 
ATOM     14  C   UNL     1     -36.040  21.513   1.639  0.00  0.00    +0.031 C 
ATOM     15  C   UNL     1     -35.383  25.778   5.947  0.00  0.00    +0.030 C 
ATOM     16  C   UNL     1     -33.009  25.321   1.332  0.00  0.00    +0.337 C 
ATOM     17  C   UNL     1     -38.462  22.997   2.215  0.00  0.00    +0.090 C 
ATOM     18  C   UNL     1     -37.415  20.814   1.609  0.00  0.00    +0.068 C 
ATOM     19  C   UNL     1     -38.571  21.671   2.045  0.00  0.00    +0.114 C 
ENDROOT
BRANCH  14  20
ATOM     20  C   UNL     1     -35.078  20.664   0.854  0.00  0.00    -0.043 C 
ATOM     21  C   UNL     1     -35.300  20.611  -0.629  0.00  0.00    +0.026 C 
ATOM     22  C   UNL     1     -34.079  19.993   1.446  0.00  0.00    -0.009 C 
ENDBRANCH  14  20
BRANCH   6  23
ATOM     23  O   UNL     1     -33.928  24.548   4.486  0.00  0.00    -0.386 OA
ATOM     24  H   UNL     1     -33.610  24.359   5.383  0.00  0.00    +0.210 HD
ENDBRANCH   6  23
BRANCH  19  25
ATOM     25  O   UNL     1     -39.762  21.000   2.250  0.00  0.00    -0.510 OA
ATOM     26  H   UNL     1     -39.767  20.066   2.324  0.00  0.00    +0.292 HD
ENDBRANCH  19  25
BRANCH  17  28
ATOM     27  O   UNL     1     -39.688  24.432   3.647  0.00  0.00    -0.245 OA
ATOM     28  C   UNL     1     -39.644  23.772   2.625  0.00  0.00    +0.340 C 
BRANCH  28  29
ATOM     29  O   UNL     1     -40.609  23.608   1.690  0.00  0.00    -0.441 OA
ATOM     30  C   UNL     1     -41.170  24.821   1.177  0.00  0.00    +0.256 C 
ENDBRANCH  28  29
ENDBRANCH  17  28
TORSDOF 5
ENDMDL
MODEL 2
REMARK VINA RESULT:      -6.3      2.393      5.352
REMARK  Name = 54704072
REMARK  5 active torsions:
REMARK  status: ('A' for Active; 'I' for Inactive)
REMARK    1  A    between atoms: C_6  and  O_23
REMARK    2  A    between atoms: C_14  and  C_20
REMARK    3  A    between atoms: C_17  and  C_28
REMARK    4  A    between atoms: C_19  and  O_25
REMARK    5  A    between atoms: C_28  and  O_29
REMARK                            x       y       z     vdW  Elec       q    Type
REMARK                         _______ _______ _______ _____ _____    ______ ____
ROOT
ATOM      1  O   UNL     1     -37.607  26.951  -0.310  0.00  0.00    -0.449 OA
ATOM      2  O   UNL     1     -38.283  22.699   3.001  0.00  0.00    -0.296 OA
ATOM      3  O   UNL     1     -36.584  28.183   1.329  0.00  0.00    -0.245 OA
ATOM      4  C   UNL     1     -37.865  23.649   0.824  0.00  0.00    +0.090 C 
ATOM      5  C   UNL     1     -36.921  24.748   0.314  0.00  0.00    +0.078 C 
ATOM      6  C   UNL     1     -39.261  24.299   0.773  0.00  0.00    +0.099 C 
ATOM      7  C   UNL     1     -37.751  25.570  -0.664  0.00  0.00    +0.176 C 
ATOM      8  C   UNL     1     -39.206  25.113  -0.530  0.00  0.00    +0.071 C 
ATOM      9  C   UNL     1     -35.939  23.026   2.467  0.00  0.00    +0.093 C 
ATOM     10  C   UNL     1     -36.480  25.772   1.297  0.00  0.00    +0.053 C 
ATOM     11  C   UNL     1     -35.445  24.325   3.163  0.00  0.00    +0.037 C 
ATOM     12  C   UNL     1     -37.449  23.095   2.185  0.00  0.00    +0.157 C 
ATOM     13  C   UNL     1     -35.862  25.619   2.477  0.00  0.00    -0.023 C 
ATOM     14  C   UNL     1     -35.847  24.302   4.669  0.00  0.00    +0.031 C 
ATOM     15  C   UNL     1     -40.418  23.305   0.758  0.00  0.00    +0.030 C 
ATOM     16  C   UNL     1     -36.864  27.114   0.817  0.00  0.00    +0.337 C 
ATOM     17  C   UNL     1     -35.672  21.774   3.263  0.00  0.00    +0.090 C 
ATOM     18  C   UNL     1     -35.302  23.045   5.378  0.00  0.00    +0.068 C 
ATOM     19  C   UNL     1     -35.380  21.779   4.572  0.00  0.00    +0.114 C 
ENDROOT
BRANCH  14  20
ATOM     20  C   UNL     1     -35.377  25.504   5.442  0.00  0.00    -0.043 C 
ATOM     21  C   UNL     1     -33.892  25.697   5.525  0.00  0.00    +0.026 C 
ATOM     22  C   UNL     1     -36.236  26.353   6.024  0.00  0.00    -0.009 C 
ENDBRANCH  14  20
BRANCH   6  23
ATOM     23  O   UNL     1     -39.453  25.213   1.851  0.00  0.00    -0.386 OA
ATOM     24  H   UNL     1     -39.645  26.095   1.496  0.00  0.00    +0.210 HD
ENDBRANCH   6  23
BRANCH  19  25
ATOM     25  O   UNL     1     -35.119  20.615   5.270  0.00  0.00    -0.510 OA
ATOM     26  H   UNL     1     -35.545  20.454   6.088  0.00  0.00    +0.292 HD
ENDBRANCH  19  25
BRANCH  17  28
ATOM     27  O   UNL     1     -36.695  20.093   1.943  0.00  0.00    -0.245 OA
ATOM     28  C   UNL     1     -35.711  20.495   2.536  0.00  0.00    +0.340 C 
BRANCH  28  29
ATOM     29  O   UNL     1     -34.502  19.897   2.657  0.00  0.00    -0.441 OA
ATOM     30  C   UNL     1     -33.928  19.433   1.430  0.00  0.00    +0.256 C 
ENDBRANCH  28  29
ENDBRANCH  17  28
TORSDOF 5
ENDMDL
MODEL 3
REMARK VINA RESULT:      -6.1      2.281      6.084
REMARK  Name = 54704072
REMARK  5 active torsions:
REMARK  status: ('A' for Active; 'I' for Inactive)
REMARK    1  A    between atoms: C_6  and  O_23
REMARK    2  A    between atoms: C_14  and  C_20
REMARK    3  A    between atoms: C_17  and  C_28
REMARK    4  A    between atoms: C_19  and  O_25
REMARK    5  A    between atoms: C_28  and  O_29
REMARK                            x       y       z     vdW  Elec       q    Type
REMARK                         _______ _______ _______ _____ _____    ______ ____
ROOT
ATOM      1  O   UNL     1     -36.125  21.139   1.119  0.00  0.00    -0.449 OA
ATOM      2  O   UNL     1     -35.826  25.420   4.449  0.00  0.00    -0.296 OA
ATOM      3  O   UNL     1     -37.459  22.268  -0.362  0.00  0.00    -0.245 OA
ATOM      4  C   UNL     1     -34.871  23.457   3.424  0.00  0.00    +0.090 C 
ATOM      5  C   UNL     1     -34.812  22.942   1.979  0.00  0.00    +0.078 C 
ATOM      6  C   UNL     1     -35.889  22.528   4.113  0.00  0.00    +0.099 C 
ATOM      7  C   UNL     1     -35.099  21.449   2.070  0.00  0.00    +0.176 C 
ATOM      8  C   UNL     1     -35.562  21.157   3.501  0.00  0.00    +0.071 C 
ATOM      9  C   UNL     1     -34.622  25.834   2.384  0.00  0.00    +0.093 C 
ATOM     10  C   UNL     1     -35.871  23.414   1.048  0.00  0.00    +0.053 C 
ATOM     11  C   UNL     1     -35.650  25.976   1.227  0.00  0.00    +0.037 C 
ATOM     12  C   UNL     1     -35.182  24.950   3.509  0.00  0.00    +0.157 C 
ATOM     13  C   UNL     1     -36.229  24.662   0.717  0.00  0.00    -0.023 C 
ATOM     14  C   UNL     1     -36.764  26.990   1.631  0.00  0.00    +0.031 C 
ATOM     15  C   UNL     1     -35.784  22.496   5.634  0.00  0.00    +0.030 C 
ATOM     16  C   UNL     1     -36.592  22.252   0.493  0.00  0.00    +0.337 C 
ATOM     17  C   UNL     1     -34.208  27.151   2.989  0.00  0.00    +0.090 C 
ATOM     18  C   UNL     1     -36.164  28.358   2.018  0.00  0.00    +0.068 C 
ATOM     19  C   UNL     1     -34.897  28.290   2.823  0.00  0.00    +0.114 C 
ENDROOT
BRANCH  14  20
ATOM     20  C   UNL     1     -37.789  27.227   0.557  0.00  0.00    -0.043 C 
ATOM     21  C   UNL     1     -39.157  26.664   0.812  0.00  0.00    +0.026 C 
ATOM     22  C   UNL     1     -37.499  27.901  -0.565  0.00  0.00    -0.009 C 
ENDBRANCH  14  20
BRANCH   6  23
ATOM     23  O   UNL     1     -37.229  22.859   3.751  0.00  0.00    -0.386 OA
ATOM     24  H   UNL     1     -37.217  23.509   3.030  0.00  0.00    +0.210 HD
ENDBRANCH   6  23
BRANCH  19  25
ATOM     25  O   UNL     1     -34.479  29.486   3.375  0.00  0.00    -0.510 OA
ATOM     26  H   UNL     1     -34.860  30.292   3.088  0.00  0.00    +0.292 HD
ENDBRANCH  19  25
BRANCH  17  28
ATOM     27  O   UNL     1     -31.876  26.886   3.309  0.00  0.00    -0.245 OA
ATOM     28  C   UNL     1     -32.964  27.166   3.776  0.00  0.00    +0.340 C 
BRANCH  28  29
ATOM     29  O   UNL     1     -33.264  27.531   5.045  0.00  0.00    -0.441 OA
ATOM     30  C   UNL     1     -32.187  28.125   5.777  0.00  0.00    +0.256 C 
ENDBRANCH  28  29
ENDBRANCH  17  28
TORSDOF 5
ENDMDL
MODEL 4
REMARK VINA RESULT:      -6.1      2.409      4.228
REMARK  Name = 54704072
REMARK  5 active torsions:
REMARK  status: ('A' for Active; 'I' for Inactive)
REMARK    1  A    between atoms: C_6  and  O_23
REMARK    2  A    between atoms: C_14  and  C_20
REMARK    3  A    between atoms: C_17  and  C_28
REMARK    4  A    between atoms: C_19  and  O_25
REMARK    5  A    between atoms: C_28  and  O_29
REMARK                            x       y       z     vdW  Elec       q    Type
REMARK                         _______ _______ _______ _____ _____    ______ ____
ROOT
ATOM      1  O   UNL     1     -35.723  28.415   1.750  0.00  0.00    -0.449 OA
ATOM      2  O   UNL     1     -38.397  23.692   1.957  0.00  0.00    -0.296 OA
ATOM      3  O   UNL     1     -34.656  28.003   3.736  0.00  0.00    -0.245 OA
ATOM      4  C   UNL     1     -37.294  25.455   0.737  0.00  0.00    +0.090 C 
ATOM      5  C   UNL     1     -35.956  26.187   0.916  0.00  0.00    +0.078 C 
ATOM      6  C   UNL     1     -38.350  26.493   1.161  0.00  0.00    +0.099 C 
ATOM      7  C   UNL     1     -36.264  27.657   0.661  0.00  0.00    +0.176 C 
ATOM      8  C   UNL     1     -37.787  27.802   0.587  0.00  0.00    +0.071 C 
ATOM      9  C   UNL     1     -36.028  23.338   1.578  0.00  0.00    +0.093 C 
ATOM     10  C   UNL     1     -35.377  26.215   2.285  0.00  0.00    +0.053 C 
ATOM     11  C   UNL     1     -35.254  23.708   2.874  0.00  0.00    +0.037 C 
ATOM     12  C   UNL     1     -37.345  24.123   1.483  0.00  0.00    +0.157 C 
ATOM     13  C   UNL     1     -35.073  25.203   3.109  0.00  0.00    -0.023 C 
ATOM     14  C   UNL     1     -35.905  22.997   4.100  0.00  0.00    +0.031 C 
ATOM     15  C   UNL     1     -39.754  26.214   0.633  0.00  0.00    +0.030 C 
ATOM     16  C   UNL     1     -35.186  27.615   2.710  0.00  0.00    +0.337 C 
ATOM     17  C   UNL     1     -36.352  21.870   1.467  0.00  0.00    +0.090 C 
ATOM     18  C   UNL     1     -35.960  21.468   3.898  0.00  0.00    +0.068 C 
ATOM     19  C   UNL     1     -36.318  21.024   2.508  0.00  0.00    +0.114 C 
ENDROOT
BRANCH  14  20
ATOM     20  C   UNL     1     -35.201  23.263   5.402  0.00  0.00    -0.043 C 
ATOM     21  C   UNL     1     -34.948  22.068   6.273  0.00  0.00    +0.026 C 
ATOM     22  C   UNL     1     -34.822  24.497   5.764  0.00  0.00    -0.009 C 
ENDBRANCH  14  20
BRANCH   6  23
ATOM     23  O   UNL     1     -38.411  26.628   2.580  0.00  0.00    -0.386 OA
ATOM     24  H   UNL     1     -39.001  25.950   2.944  0.00  0.00    +0.210 HD
ENDBRANCH   6  23
BRANCH  19  25
ATOM     25  O   UNL     1     -36.601  19.679   2.369  0.00  0.00    -0.510 OA
ATOM     26  H   UNL     1     -37.389  19.408   1.941  0.00  0.00    +0.292 HD
ENDBRANCH  19  25
BRANCH  17  28
ATOM     27  O   UNL     1     -35.927  21.395  -0.815  0.00  0.00    -0.245 OA
ATOM     28  C   UNL     1     -36.693  21.357   0.130  0.00  0.00    +0.340 C 
BRANCH  28  29
ATOM     29  O   UNL     1     -37.956  20.869   0.168  0.00  0.00    -0.441 OA
ATOM     30  C   UNL     1     -38.220  19.798  -0.745  0.00  0.00    +0.256 C 
ENDBRANCH  28  29
ENDBRANCH  17  28
TORSDOF 5
ENDMDL
MODEL 5
REMARK VINA RESULT:      -6.1      2.438      5.136
REMARK  Name = 54704072
REMARK  5 active torsions:
REMARK  status: ('A' for Active; 'I' for Inactive)
REMARK    1  A    between atoms: C_6  and  O_23
REMARK    2  A    between atoms: C_14  and  C_20
REMARK    3  A    between atoms: C_17  and  C_28
REMARK    4  A    between atoms: C_19  and  O_25
REMARK    5  A    between atoms: C_28  and  O_29
REMARK                            x       y       z     vdW  Elec       q    Type
REMARK                         _______ _______ _______ _____ _____    ______ ____
ROOT
ATOM      1  O   UNL     1     -35.125  19.280   0.188  0.00  0.00    -0.449 OA
ATOM      2  O   UNL     1     -36.889  24.416   0.324  0.00  0.00    -0.296 OA
ATOM      3  O   UNL     1     -34.022  19.510   2.184  0.00  0.00    -0.245 OA
ATOM      4  C   UNL     1     -37.171  22.089  -0.241  0.00  0.00    +0.090 C 
ATOM      5  C   UNL     1     -36.955  20.780   0.532  0.00  0.00    +0.078 C 
ATOM      6  C   UNL     1     -36.005  22.128  -1.247  0.00  0.00    +0.099 C 
ATOM      7  C   UNL     1     -36.280  19.836  -0.454  0.00  0.00    +0.176 C 
ATOM      8  C   UNL     1     -35.886  20.660  -1.684  0.00  0.00    +0.071 C 
ATOM      9  C   UNL     1     -37.966  23.077   2.036  0.00  0.00    +0.093 C 
ATOM     10  C   UNL     1     -35.986  20.811   1.659  0.00  0.00    +0.053 C 
ATOM     11  C   UNL     1     -36.915  22.718   3.123  0.00  0.00    +0.037 C 
ATOM     12  C   UNL     1     -37.290  23.305   0.675  0.00  0.00    +0.157 C 
ATOM     13  C   UNL     1     -35.954  21.599   2.742  0.00  0.00    -0.023 C 
ATOM     14  C   UNL     1     -36.165  24.007   3.578  0.00  0.00    +0.031 C 
ATOM     15  C   UNL     1     -36.236  23.047  -2.443  0.00  0.00    +0.030 C 
ATOM     16  C   UNL     1     -34.926  19.811   1.424  0.00  0.00    +0.337 C 
ATOM     17  C   UNL     1     -38.779  24.304   2.363  0.00  0.00    +0.090 C 
ATOM     18  C   UNL     1     -37.149  25.081   4.085  0.00  0.00    +0.068 C 
ATOM     19  C   UNL     1     -38.417  25.206   3.288  0.00  0.00    +0.114 C 
ENDROOT
BRANCH  14  20
ATOM     20  C   UNL     1     -35.149  23.768   4.662  0.00  0.00    -0.043 C 
ATOM     21  C   UNL     1     -35.537  22.784   5.726  0.00  0.00    +0.026 C 
ATOM     22  C   UNL     1     -33.966  24.399   4.677  0.00  0.00    -0.009 C 
ENDBRANCH  14  20
BRANCH   6  23
ATOM     23  O   UNL     1     -34.781  22.496  -0.615  0.00  0.00    -0.386 OA
ATOM     24  H   UNL     1     -34.349  23.196  -1.129  0.00  0.00    +0.210 HD
ENDBRANCH   6  23
BRANCH  19  25
ATOM     25  O   UNL     1     -39.195  26.310   3.579  0.00  0.00    -0.510 OA
ATOM     26  H   UNL     1     -39.099  27.095   3.078  0.00  0.00    +0.292 HD
ENDBRANCH  19  25
BRANCH  17  28
ATOM     27  O   UNL     1     -40.912  23.630   1.582  0.00  0.00    -0.245 OA
ATOM     28  C   UNL     1     -40.046  24.483   1.636  0.00  0.00    +0.340 C 
BRANCH  28  29
ATOM     29  O   UNL     1     -40.046  25.715   1.073  0.00  0.00    -0.441 OA
ATOM     30  C   UNL     1     -40.081  25.729  -0.358  0.00  0.00    +0.256 C 
ENDBRANCH  28  29
ENDBRANCH  17  28
TORSDOF 5
ENDMDL
MODEL 6
REMARK VINA RESULT:      -6.1      2.274      4.873
REMARK  Name = 54704072
REMARK  5 active torsions:
REMARK  status: ('A' for Active; 'I' for Inactive)
REMARK    1  A    between atoms: C_6  and  O_23
REMARK    2  A    between atoms: C_14  and  C_20
REMARK    3  A    between atoms: C_17  and  C_28
REMARK    4  A    between atoms: C_19  and  O_25
REMARK    5  A    between atoms: C_28  and  O_29
REMARK                            x       y       z     vdW  Elec       q    Type
REMARK                         _______ _______ _______ _____ _____    ______ ____
ROOT
ATOM      1  O   UNL     1     -38.081  28.264   0.375  0.00  0.00    -0.449 OA
ATOM      2  O   UNL     1     -38.567  23.858   3.515  0.00  0.00    -0.296 OA
ATOM      3  O   UNL     1     -36.217  28.974   1.503  0.00  0.00    -0.245 OA
ATOM      4  C   UNL     1     -38.772  24.986   1.393  0.00  0.00    +0.090 C 
ATOM      5  C   UNL     1     -37.835  25.895   0.585  0.00  0.00    +0.078 C 
ATOM      6  C   UNL     1     -39.848  25.944   1.937  0.00  0.00    +0.099 C 
ATOM      7  C   UNL     1     -38.718  27.019   0.060  0.00  0.00    +0.176 C 
ATOM      8  C   UNL     1     -40.077  26.901   0.756  0.00  0.00    +0.071 C 
ATOM      9  C   UNL     1     -36.612  23.701   2.087  0.00  0.00    +0.093 C 
ATOM     10  C   UNL     1     -36.791  26.636   1.341  0.00  0.00    +0.053 C 
ATOM     11  C   UNL     1     -35.557  24.735   2.570  0.00  0.00    +0.037 C 
ATOM     12  C   UNL     1     -38.034  24.161   2.446  0.00  0.00    +0.157 C 
ATOM     13  C   UNL     1     -35.836  26.176   2.162  0.00  0.00    -0.023 C 
ATOM     14  C   UNL     1     -35.343  24.592   4.108  0.00  0.00    +0.031 C 
ATOM     15  C   UNL     1     -41.146  25.261   2.357  0.00  0.00    +0.030 C 
ATOM     16  C   UNL     1     -36.949  28.085   1.108  0.00  0.00    +0.337 C 
ATOM     17  C   UNL     1     -36.411  22.321   2.658  0.00  0.00    +0.090 C 
ATOM     18  C   UNL     1     -34.932  23.154   4.487  0.00  0.00    +0.068 C 
ATOM     19  C   UNL     1     -35.652  22.070   3.735  0.00  0.00    +0.114 C 
ENDROOT
BRANCH  14  20
ATOM     20  C   UNL     1     -34.307  25.527   4.667  0.00  0.00    -0.043 C 
ATOM     21  C   UNL     1     -33.182  25.897   3.745  0.00  0.00    +0.026 C 
ATOM     22  C   UNL     1     -34.382  26.003   5.919  0.00  0.00    -0.009 C 
ENDBRANCH  14  20
BRANCH   6  23
ATOM     23  O   UNL     1     -39.358  26.714   3.034  0.00  0.00    -0.386 OA
ATOM     24  H   UNL     1     -39.318  27.649   2.779  0.00  0.00    +0.210 HD
ENDBRANCH   6  23
BRANCH  19  25
ATOM     25  O   UNL     1     -35.471  20.789   4.223  0.00  0.00    -0.510 OA
ATOM     26  H   UNL     1     -35.791  20.563   5.074  0.00  0.00    +0.292 HD
ENDBRANCH  19  25
BRANCH  17  28
ATOM     27  O   UNL     1     -38.275  21.136   1.801  0.00  0.00    -0.245 OA
ATOM     28  C   UNL     1     -37.071  21.204   1.963  0.00  0.00    +0.340 C 
BRANCH  28  29
ATOM     29  O   UNL     1     -36.120  20.325   1.567  0.00  0.00    -0.441 OA
ATOM     30  C   UNL     1     -35.597  20.546   0.253  0.00  0.00    +0.256 C 
ENDBRANCH  28  29
ENDBRANCH  17  28
TORSDOF 5
ENDMDL
MODEL 7
REMARK VINA RESULT:      -6.0      2.344      4.086
REMARK  Name = 54704072
REMARK  5 active torsions:
REMARK  status: ('A' for Active; 'I' for Inactive)
REMARK    1  A    between atoms: C_6  and  O_23
REMARK    2  A    between atoms: C_14  and  C_20
REMARK    3  A    between atoms: C_17  and  C_28
REMARK    4  A    between atoms: C_19  and  O_25
REMARK    5  A    between atoms: C_28  and  O_29
REMARK                            x       y       z     vdW  Elec       q    Type
REMARK                         _______ _______ _______ _____ _____    ______ ____
ROOT
ATOM      1  O   UNL     1     -36.020  28.589   1.847  0.00  0.00    -0.449 OA
ATOM      2  O   UNL     1     -34.453  23.399   1.512  0.00  0.00    -0.296 OA
ATOM      3  O   UNL     1     -37.824  28.228   0.481  0.00  0.00    -0.245 OA
ATOM      4  C   UNL     1     -34.691  25.471   2.723  0.00  0.00    +0.090 C 
ATOM      5  C   UNL     1     -35.853  26.456   2.913  0.00  0.00    +0.078 C 
ATOM      6  C   UNL     1     -33.726  26.207   1.775  0.00  0.00    +0.099 C 
ATOM      7  C   UNL     1     -35.233  27.841   2.782  0.00  0.00    +0.176 C 
ATOM      8  C   UNL     1     -33.799  27.657   2.277  0.00  0.00    +0.071 C 
ATOM      9  C   UNL     1     -36.515  23.609   2.773  0.00  0.00    +0.093 C 
ATOM     10  C   UNL     1     -36.904  26.476   1.861  0.00  0.00    +0.053 C 
ATOM     11  C   UNL     1     -37.657  24.011   1.798  0.00  0.00    +0.037 C 
ATOM     12  C   UNL     1     -35.153  24.094   2.251  0.00  0.00    +0.157 C 
ATOM     13  C   UNL     1     -37.665  25.479   1.390  0.00  0.00    -0.023 C 
ATOM     14  C   UNL     1     -37.657  23.058   0.564  0.00  0.00    +0.031 C 
ATOM     15  C   UNL     1     -32.294  25.682   1.802  0.00  0.00    +0.030 C 
ATOM     16  C   UNL     1     -37.011  27.836   1.298  0.00  0.00    +0.337 C 
ATOM     17  C   UNL     1     -36.419  22.124   3.012  0.00  0.00    +0.090 C 
ATOM     18  C   UNL     1     -37.782  21.582   0.993  0.00  0.00    +0.068 C 
ATOM     19  C   UNL     1     -36.992  21.209   2.216  0.00  0.00    +0.114 C 
ENDROOT
BRANCH  14  20
ATOM     20  C   UNL     1     -38.756  23.343  -0.423  0.00  0.00    -0.043 C 
ATOM     21  C   UNL     1     -38.321  23.804  -1.783  0.00  0.00    +0.026 C 
ATOM     22  C   UNL     1     -40.050  23.195  -0.105  0.00  0.00    -0.009 C 
ENDBRANCH  14  20
BRANCH   6  23
ATOM     23  O   UNL     1     -34.197  26.187   0.429  0.00  0.00    -0.386 OA
ATOM     24  H   UNL     1     -34.329  27.097   0.119  0.00  0.00    +0.210 HD
ENDBRANCH   6  23
BRANCH  19  25
ATOM     25  O   UNL     1     -36.904  19.854   2.474  0.00  0.00    -0.510 OA
ATOM     26  H   UNL     1     -36.265  19.333   2.030  0.00  0.00    +0.292 HD
ENDBRANCH  19  25
BRANCH  17  28
ATOM     27  O   UNL     1     -34.949  20.707   4.214  0.00  0.00    -0.245 OA
ATOM     28  C   UNL     1     -35.677  21.682   4.204  0.00  0.00    +0.340 C 
BRANCH  28  29
ATOM     29  O   UNL     1     -35.957  22.531   5.222  0.00  0.00    -0.441 OA
ATOM     30  C   UNL     1     -35.373  22.182   6.481  0.00  0.00    +0.256 C 
ENDBRANCH  28  29
ENDBRANCH  17  28
TORSDOF 5
ENDMDL
MODEL 8
REMARK VINA RESULT:      -5.9      1.945      4.495
REMARK  Name = 54704072
REMARK  5 active torsions:
REMARK  status: ('A' for Active; 'I' for Inactive)
REMARK    1  A    between atoms: C_6  and  O_23
REMARK    2  A    between atoms: C_14  and  C_20
REMARK    3  A    between atoms: C_17  and  C_28
REMARK    4  A    between atoms: C_19  and  O_25
REMARK    5  A    between atoms: C_28  and  O_29
REMARK                            x       y       z     vdW  Elec       q    Type
REMARK                         _______ _______ _______ _____ _____    ______ ____
ROOT
ATOM      1  O   UNL     1     -33.148  27.926   2.894  0.00  0.00    -0.449 OA
ATOM      2  O   UNL     1     -35.193  23.438   0.620  0.00  0.00    -0.296 OA
ATOM      3  O   UNL     1     -35.211  28.917   3.013  0.00  0.00    -0.245 OA
ATOM      4  C   UNL     1     -33.616  24.559   2.059  0.00  0.00    +0.090 C 
ATOM      5  C   UNL     1     -33.757  25.629   3.151  0.00  0.00    +0.078 C 
ATOM      6  C   UNL     1     -32.977  25.311   0.876  0.00  0.00    +0.099 C 
ATOM      7  C   UNL     1     -32.607  26.599   2.916  0.00  0.00    +0.176 C 
ATOM      8  C   UNL     1     -31.969  26.240   1.570  0.00  0.00    +0.071 C 
ATOM      9  C   UNL     1     -35.894  23.641   2.933  0.00  0.00    +0.093 C 
ATOM     10  C   UNL     1     -34.946  26.519   3.077  0.00  0.00    +0.053 C 
ATOM     11  C   UNL     1     -36.891  24.828   3.050  0.00  0.00    +0.037 C 
ATOM     12  C   UNL     1     -34.932  23.847   1.752  0.00  0.00    +0.157 C 
ATOM     13  C   UNL     1     -36.249  26.209   3.041  0.00  0.00    -0.023 C 
ATOM     14  C   UNL     1     -38.004  24.690   1.966  0.00  0.00    +0.031 C 
ATOM     15  C   UNL     1     -32.290  24.410  -0.146  0.00  0.00    +0.030 C 
ATOM     16  C   UNL     1     -34.504  27.925   2.999  0.00  0.00    +0.337 C 
ATOM     17  C   UNL     1     -36.565  22.303   2.759  0.00  0.00    +0.090 C 
ATOM     18  C   UNL     1     -38.732  23.334   2.076  0.00  0.00    +0.068 C 
ATOM     19  C   UNL     1     -37.843  22.161   2.378  0.00  0.00    +0.114 C 
ENDROOT
BRANCH  14  20
ATOM     20  C   UNL     1     -39.044  25.775   2.023  0.00  0.00    -0.043 C 
ATOM     21  C   UNL     1     -39.064  26.734   0.869  0.00  0.00    +0.026 C 
ATOM     22  C   UNL     1     -39.904  25.880   3.046  0.00  0.00    -0.009 C 
ENDBRANCH  14  20
BRANCH   6  23
ATOM     23  O   UNL     1     -33.931  26.129   0.200  0.00  0.00    -0.386 OA
ATOM     24  H   UNL     1     -33.873  27.037   0.536  0.00  0.00    +0.210 HD
ENDBRANCH   6  23
BRANCH  19  25
ATOM     25  O   UNL     1     -38.435  20.919   2.246  0.00  0.00    -0.510 OA
ATOM     26  H   UNL     1     -39.299  20.847   1.891  0.00  0.00    +0.292 HD
ENDBRANCH  19  25
BRANCH  17  28
ATOM     27  O   UNL     1     -35.242  20.901   4.137  0.00  0.00    -0.245 OA
ATOM     28  C   UNL     1     -35.761  21.106   3.055  0.00  0.00    +0.340 C 
BRANCH  28  29
ATOM     29  O   UNL     1     -35.721  20.331   1.945  0.00  0.00    -0.441 OA
ATOM     30  C   UNL     1     -34.416  19.887   1.562  0.00  0.00    +0.256 C 
ENDBRANCH  28  29
ENDBRANCH  17  28
TORSDOF 5
ENDMDL
MODEL 9
REMARK VINA RESULT:      -5.9      2.202      4.646
REMARK  Name = 54704072
REMARK  5 active torsions:
REMARK  status: ('A' for Active; 'I' for Inactive)
REMARK    1  A    between atoms: C_6  and  O_23
REMARK    2  A    between atoms: C_14  and  C_20
REMARK    3  A    between atoms: C_17  and  C_28
REMARK    4  A    between atoms: C_19  and  O_25
REMARK    5  A    between atoms: C_28  and  O_29
REMARK                            x       y       z     vdW  Elec       q    Type
REMARK                         _______ _______ _______ _____ _____    ______ ____
ROOT
ATOM      1  O   UNL     1     -34.074  23.944   5.218  0.00  0.00    -0.449 OA
ATOM      2  O   UNL     1     -37.681  23.745   1.162  0.00  0.00    -0.296 OA
ATOM      3  O   UNL     1     -33.139  25.875   4.414  0.00  0.00    -0.245 OA
ATOM      4  C   UNL     1     -37.046  23.372   3.458  0.00  0.00    +0.090 C 
ATOM      5  C   UNL     1     -36.339  24.235   4.513  0.00  0.00    +0.078 C 
ATOM      6  C   UNL     1     -35.988  22.325   3.059  0.00  0.00    +0.099 C 
ATOM      7  C   UNL     1     -35.355  23.302   5.205  0.00  0.00    +0.176 C 
ATOM      8  C   UNL     1     -35.313  21.999   4.401  0.00  0.00    +0.071 C 
ATOM      9  C   UNL     1     -38.154  25.593   2.661  0.00  0.00    +0.093 C 
ATOM     10  C   UNL     1     -35.454  25.322   4.016  0.00  0.00    +0.053 C 
ATOM     11  C   UNL     1     -37.042  26.666   2.496  0.00  0.00    +0.037 C 
ATOM     12  C   UNL     1     -37.622  24.195   2.307  0.00  0.00    +0.157 C 
ATOM     13  C   UNL     1     -35.725  26.339   3.188  0.00  0.00    -0.023 C 
ATOM     14  C   UNL     1     -36.845  26.993   0.984  0.00  0.00    +0.031 C 
ATOM     15  C   UNL     1     -36.559  21.071   2.405  0.00  0.00    +0.030 C 
ATOM     16  C   UNL     1     -34.091  25.128   4.549  0.00  0.00    +0.337 C 
ATOM     17  C   UNL     1     -39.375  25.853   1.817  0.00  0.00    +0.090 C 
ATOM     18  C   UNL     1     -38.166  27.450   0.330  0.00  0.00    +0.068 C 
ATOM     19  C   UNL     1     -39.386  26.692   0.771  0.00  0.00    +0.114 C 
ENDROOT
BRANCH  14  20
ATOM     20  C   UNL     1     -35.814  28.056   0.721  0.00  0.00    -0.043 C 
ATOM     21  C   UNL     1     -36.102  29.414   1.290  0.00  0.00    +0.026 C 
ATOM     22  C   UNL     1     -34.700  27.804   0.018  0.00  0.00    -0.009 C 
ENDBRANCH  14  20
BRANCH   6  23
ATOM     23  O   UNL     1     -34.998  22.884   2.197  0.00  0.00    -0.386 OA
ATOM     24  H   UNL     1     -35.309  22.841   1.279  0.00  0.00    +0.210 HD
ENDBRANCH   6  23
BRANCH  19  25
ATOM     25  O   UNL     1     -40.529  26.924   0.029  0.00  0.00    -0.510 OA
ATOM     26  H   UNL     1     -40.827  27.801  -0.109  0.00  0.00    +0.292 HD
ENDBRANCH  19  25
BRANCH  17  28
ATOM     27  O   UNL     1     -41.200  24.382   1.469  0.00  0.00    -0.245 OA
ATOM     28  C   UNL     1     -40.616  25.159   2.201  0.00  0.00    +0.340 C 
BRANCH  28  29
ATOM     29  O   UNL     1     -40.950  25.542   3.456  0.00  0.00    -0.441 OA
ATOM     30  C   UNL     1     -41.853  26.651   3.532  0.00  0.00    +0.256 C 
ENDBRANCH  28  29
ENDBRANCH  17  28
TORSDOF 5
ENDMDL
