MODEL 1
REMARK VINA RESULT:      -5.6      0.000      0.000
REMARK  Name = 54333105
REMARK  8 active torsions:
REMARK  status: ('A' for Active; 'I' for Inactive)
REMARK    1  A    between atoms: C_4  and  C_9
REMARK    2  A    between atoms: C_7  and  C_24
REMARK    3  A    between atoms: C_8  and  S_14
REMARK    4  A    between atoms: C_9  and  O_12
REMARK    5  A    between atoms: S_14  and  C_16
REMARK    6  A    between atoms: C_16  and  C_17
REMARK    7  A    between atoms: C_17  and  N_19
REMARK    8  A    between atoms: C_24  and  O_25
REMARK                            x       y       z     vdW  Elec       q    Type
REMARK                         _______ _______ _______ _____ _____    ______ ____
ROOT
ATOM      1  O   UNL     1     -34.947  22.512   5.830  0.00  0.00    -0.274 OA
ATOM      2  N   UNL     1     -36.513  23.060   4.152  0.00  0.00    -0.254 N 
ATOM      3  C   UNL     1     -36.800  24.491   3.908  0.00  0.00    +0.096 C 
ATOM      4  C   UNL     1     -35.856  24.788   5.105  0.00  0.00    +0.120 C 
ATOM      5  C   UNL     1     -36.421  24.711   2.440  0.00  0.00    +0.057 C 
ATOM      6  C   UNL     1     -35.654  23.259   5.193  0.00  0.00    +0.233 C 
ATOM      7  C   UNL     1     -36.198  22.440   2.975  0.00  0.00    +0.134 C 
ATOM      8  C   UNL     1     -36.149  23.310   1.960  0.00  0.00    +0.056 C 
ENDROOT
BRANCH   4   9
ATOM      9  C   UNL     1     -34.596  25.571   4.823  0.00  0.00    +0.098 C 
ATOM     10  C   UNL     1     -34.883  26.739   3.874  0.00  0.00    +0.030 C 
ATOM     11  C   UNL     1     -33.964  26.108   6.110  0.00  0.00    +0.030 C 
BRANCH   9  12
ATOM     12  O   UNL     1     -33.628  24.720   4.197  0.00  0.00    -0.386 OA
ATOM     13  H   UNL     1     -33.833  24.637   3.253  0.00  0.00    +0.210 HD
ENDBRANCH   9  12
ENDBRANCH   4   9
BRANCH   8  14
ATOM     14  S   UNL     1     -35.757  22.881   0.297  0.00  0.00    +0.064 S 
ATOM     15  O   UNL     1     -36.300  21.493   0.073  0.00  0.00    -0.252 OA
BRANCH  14  16
ATOM     16  C   UNL     1     -33.964  22.742   0.499  0.00  0.00    +0.117 C 
BRANCH  16  17
ATOM     17  C   UNL     1     -33.398  21.582  -0.301  0.00  0.00    +0.104 C 
BRANCH  17  19
ATOM     18  O   UNL     1     -31.228  19.739   0.267  0.00  0.00    -0.275 OA
ATOM     19  N   UNL     1     -33.476  20.332   0.407  0.00  0.00    -0.303 N 
ATOM     20  C   UNL     1     -32.379  19.512   0.632  0.00  0.00    +0.223 C 
ATOM     21  C   UNL     1     -32.734  18.279   1.420  0.00  0.00    +0.095 C 
ATOM     22  H   UNL     1     -34.353  20.044   0.750  0.00  0.00    +0.149 HD
ENDBRANCH  17  19
ENDBRANCH  16  17
ENDBRANCH  14  16
ENDBRANCH   8  14
BRANCH   7  24
ATOM     23  O   UNL     1     -34.830  20.509   3.195  0.00  0.00    -0.244 OA
ATOM     24  C   UNL     1     -35.918  21.008   2.955  0.00  0.00    +0.352 C 
BRANCH  24  25
ATOM     25  O   UNL     1     -37.039  20.326   2.632  0.00  0.00    -0.476 OA
ATOM     26  H   UNL     1     -37.594  20.637   1.944  0.00  0.00    +0.295 HD
ENDBRANCH  24  25
ENDBRANCH   7  24
TORSDOF 8
ENDMDL
MODEL 2
REMARK VINA RESULT:      -5.3      2.205      2.908
REMARK  Name = 54333105
REMARK  8 active torsions:
REMARK  status: ('A' for Active; 'I' for Inactive)
REMARK    1  A    between atoms: C_4  and  C_9
REMARK    2  A    between atoms: C_7  and  C_24
REMARK    3  A    between atoms: C_8  and  S_14
REMARK    4  A    between atoms: C_9  and  O_12
REMARK    5  A    between atoms: S_14  and  C_16
REMARK    6  A    between atoms: C_16  and  C_17
REMARK    7  A    between atoms: C_17  and  N_19
REMARK    8  A    between atoms: C_24  and  O_25
REMARK                            x       y       z     vdW  Elec       q    Type
REMARK                         _______ _______ _______ _____ _____    ______ ____
ROOT
ATOM      1  O   UNL     1     -39.020  24.573   3.752  0.00  0.00    -0.274 OA
ATOM      2  N   UNL     1     -37.685  24.088   1.866  0.00  0.00    -0.254 N 
ATOM      3  C   UNL     1     -36.271  24.525   1.883  0.00  0.00    +0.096 C 
ATOM      4  C   UNL     1     -36.591  25.192   3.249  0.00  0.00    +0.120 C 
ATOM      5  C   UNL     1     -35.471  23.228   1.728  0.00  0.00    +0.057 C 
ATOM      6  C   UNL     1     -38.020  24.631   3.072  0.00  0.00    +0.233 C 
ATOM      7  C   UNL     1     -37.760  22.761   1.549  0.00  0.00    +0.134 C 
ATOM      8  C   UNL     1     -36.544  22.214   1.435  0.00  0.00    +0.056 C 
ENDROOT
BRANCH   4   9
ATOM      9  C   UNL     1     -35.862  24.677   4.466  0.00  0.00    +0.098 C 
ATOM     10  C   UNL     1     -34.379  24.450   4.155  0.00  0.00    +0.030 C 
ATOM     11  C   UNL     1     -35.990  25.639   5.651  0.00  0.00    +0.030 C 
BRANCH   9  12
ATOM     12  O   UNL     1     -36.425  23.424   4.872  0.00  0.00    -0.386 OA
ATOM     13  H   UNL     1     -36.122  22.724   4.273  0.00  0.00    +0.210 HD
ENDBRANCH   9  12
ENDBRANCH   4   9
BRANCH   8  14
ATOM     14  S   UNL     1     -36.244  20.521   1.052  0.00  0.00    +0.064 S 
ATOM     15  O   UNL     1     -36.531  19.740   2.309  0.00  0.00    -0.252 OA
BRANCH  14  16
ATOM     16  C   UNL     1     -34.446  20.629   0.872  0.00  0.00    +0.117 C 
BRANCH  16  17
ATOM     17  C   UNL     1     -33.748  19.432   1.494  0.00  0.00    +0.104 C 
BRANCH  17  19
ATOM     18  O   UNL     1     -31.931  17.223   0.994  0.00  0.00    -0.275 OA
ATOM     19  N   UNL     1     -34.035  18.204   0.802  0.00  0.00    -0.303 N 
ATOM     20  C   UNL     1     -33.098  17.199   0.610  0.00  0.00    +0.223 C 
ATOM     21  C   UNL     1     -33.668  16.013  -0.121  0.00  0.00    +0.095 C 
ATOM     22  H   UNL     1     -34.944  18.070   0.448  0.00  0.00    +0.149 HD
ENDBRANCH  17  19
ENDBRANCH  16  17
ENDBRANCH  14  16
ENDBRANCH   8  14
BRANCH   7  24
ATOM     23  O   UNL     1     -39.881  22.355   0.557  0.00  0.00    -0.244 OA
ATOM     24  C   UNL     1     -39.060  22.110   1.427  0.00  0.00    +0.352 C 
BRANCH  24  25
ATOM     25  O   UNL     1     -39.215  21.203   2.417  0.00  0.00    -0.476 OA
ATOM     26  H   UNL     1     -38.465  20.876   2.872  0.00  0.00    +0.295 HD
ENDBRANCH  24  25
ENDBRANCH   7  24
TORSDOF 8
ENDMDL
MODEL 3
REMARK VINA RESULT:      -5.3      3.418      5.536
REMARK  Name = 54333105
REMARK  8 active torsions:
REMARK  status: ('A' for Active; 'I' for Inactive)
REMARK    1  A    between atoms: C_4  and  C_9
REMARK    2  A    between atoms: C_7  and  C_24
REMARK    3  A    between atoms: C_8  and  S_14
REMARK    4  A    between atoms: C_9  and  O_12
REMARK    5  A    between atoms: S_14  and  C_16
REMARK    6  A    between atoms: C_16  and  C_17
REMARK    7  A    between atoms: C_17  and  N_19
REMARK    8  A    between atoms: C_24  and  O_25
REMARK                            x       y       z     vdW  Elec       q    Type
REMARK                         _______ _______ _______ _____ _____    ______ ____
ROOT
ATOM      1  O   UNL     1     -37.100  28.730   1.090  0.00  0.00    -0.274 OA
ATOM      2  N   UNL     1     -35.439  27.191   1.757  0.00  0.00    -0.254 N 
ATOM      3  C   UNL     1     -34.074  27.705   2.009  0.00  0.00    +0.096 C 
ATOM      4  C   UNL     1     -34.608  29.086   1.537  0.00  0.00    +0.120 C 
ATOM      5  C   UNL     1     -33.796  27.346   3.472  0.00  0.00    +0.057 C 
ATOM      6  C   UNL     1     -35.972  28.382   1.358  0.00  0.00    +0.233 C 
ATOM      7  C   UNL     1     -35.864  26.454   2.826  0.00  0.00    +0.134 C 
ATOM      8  C   UNL     1     -34.975  26.480   3.826  0.00  0.00    +0.056 C 
ENDROOT
BRANCH   4   9
ATOM      9  C   UNL     1     -34.613  30.213   2.541  0.00  0.00    +0.098 C 
ATOM     10  C   UNL     1     -33.230  30.375   3.181  0.00  0.00    +0.030 C 
ATOM     11  C   UNL     1     -35.032  31.539   1.900  0.00  0.00    +0.030 C 
BRANCH   9  12
ATOM     12  O   UNL     1     -35.552  29.928   3.584  0.00  0.00    -0.386 OA
ATOM     13  H   UNL     1     -35.100  29.473   4.311  0.00  0.00    +0.210 HD
ENDBRANCH   9  12
ENDBRANCH   4   9
BRANCH   8  14
ATOM     14  S   UNL     1     -35.187  25.659   5.370  0.00  0.00    +0.064 S 
ATOM     15  O   UNL     1     -34.162  26.242   6.309  0.00  0.00    -0.252 OA
BRANCH  14  16
ATOM     16  C   UNL     1     -34.596  24.027   4.859  0.00  0.00    +0.117 C 
BRANCH  16  17
ATOM     17  C   UNL     1     -35.615  22.943   5.161  0.00  0.00    +0.104 C 
BRANCH  17  19
ATOM     18  O   UNL     1     -35.133  20.601   3.512  0.00  0.00    -0.275 OA
ATOM     19  N   UNL     1     -36.347  22.530   3.992  0.00  0.00    -0.303 N 
ATOM     20  C   UNL     1     -36.042  21.390   3.263  0.00  0.00    +0.223 C 
ATOM     21  C   UNL     1     -36.980  21.179   2.105  0.00  0.00    +0.095 C 
ATOM     22  H   UNL     1     -37.103  23.087   3.695  0.00  0.00    +0.149 HD
ENDBRANCH  17  19
ENDBRANCH  16  17
ENDBRANCH  14  16
ENDBRANCH   8  14
BRANCH   7  24
ATOM     23  O   UNL     1     -37.381  24.692   2.332  0.00  0.00    -0.244 OA
ATOM     24  C   UNL     1     -37.170  25.803   2.792  0.00  0.00    +0.352 C 
BRANCH  24  25
ATOM     25  O   UNL     1     -38.101  26.614   3.343  0.00  0.00    -0.476 OA
ATOM     26  H   UNL     1     -38.818  26.922   2.825  0.00  0.00    +0.295 HD
ENDBRANCH  24  25
ENDBRANCH   7  24
TORSDOF 8
ENDMDL
MODEL 4
REMARK VINA RESULT:      -5.2      2.309      3.664
REMARK  Name = 54333105
REMARK  8 active torsions:
REMARK  status: ('A' for Active; 'I' for Inactive)
REMARK    1  A    between atoms: C_4  and  C_9
REMARK    2  A    between atoms: C_7  and  C_24
REMARK    3  A    between atoms: C_8  and  S_14
REMARK    4  A    between atoms: C_9  and  O_12
REMARK    5  A    between atoms: S_14  and  C_16
REMARK    6  A    between atoms: C_16  and  C_17
REMARK    7  A    between atoms: C_17  and  N_19
REMARK    8  A    between atoms: C_24  and  O_25
REMARK                            x       y       z     vdW  Elec       q    Type
REMARK                         _______ _______ _______ _____ _____    ______ ____
ROOT
ATOM      1  O   UNL     1     -35.293  22.816   6.009  0.00  0.00    -0.274 OA
ATOM      2  N   UNL     1     -36.484  23.305   4.031  0.00  0.00    -0.254 N 
ATOM      3  C   UNL     1     -36.578  24.720   3.606  0.00  0.00    +0.096 C 
ATOM      4  C   UNL     1     -35.828  25.066   4.922  0.00  0.00    +0.120 C 
ATOM      5  C   UNL     1     -35.931  24.744   2.218  0.00  0.00    +0.057 C 
ATOM      6  C   UNL     1     -35.801  23.545   5.188  0.00  0.00    +0.233 C 
ATOM      7  C   UNL     1     -36.035  22.536   2.994  0.00  0.00    +0.134 C 
ATOM      8  C   UNL     1     -35.723  23.282   1.927  0.00  0.00    +0.056 C 
ENDROOT
BRANCH   4   9
ATOM      9  C   UNL     1     -34.466  25.706   4.803  0.00  0.00    +0.098 C 
ATOM     10  C   UNL     1     -34.501  26.878   3.817  0.00  0.00    +0.030 C 
ATOM     11  C   UNL     1     -33.952  26.199   6.158  0.00  0.00    +0.030 C 
BRANCH   9  12
ATOM     12  O   UNL     1     -33.523  24.745   4.314  0.00  0.00    -0.386 OA
ATOM     13  H   UNL     1     -33.226  24.181   5.045  0.00  0.00    +0.210 HD
ENDBRANCH   9  12
ENDBRANCH   4   9
BRANCH   8  14
ATOM     14  S   UNL     1     -35.096  22.642   0.411  0.00  0.00    +0.064 S 
ATOM     15  O   UNL     1     -33.911  23.496   0.042  0.00  0.00    -0.252 OA
BRANCH  14  16
ATOM     16  C   UNL     1     -36.478  23.135  -0.649  0.00  0.00    +0.117 C 
BRANCH  16  17
ATOM     17  C   UNL     1     -37.764  22.429  -0.256  0.00  0.00    +0.104 C 
BRANCH  17  19
ATOM     18  O   UNL     1     -39.363  22.055   2.139  0.00  0.00    -0.275 OA
ATOM     19  N   UNL     1     -38.745  23.329   0.289  0.00  0.00    -0.303 N 
ATOM     20  C   UNL     1     -39.465  23.065   1.446  0.00  0.00    +0.223 C 
ATOM     21  C   UNL     1     -40.405  24.184   1.807  0.00  0.00    +0.095 C 
ATOM     22  H   UNL     1     -38.913  24.177  -0.183  0.00  0.00    +0.149 HD
ENDBRANCH  17  19
ENDBRANCH  16  17
ENDBRANCH  14  16
ENDBRANCH   8  14
BRANCH   7  24
ATOM     23  O   UNL     1     -34.941  20.536   3.667  0.00  0.00    -0.244 OA
ATOM     24  C   UNL     1     -35.902  21.092   3.158  0.00  0.00    +0.352 C 
BRANCH  24  25
ATOM     25  O   UNL     1     -36.996  20.472   2.664  0.00  0.00    -0.476 OA
ATOM     26  H   UNL     1     -37.851  20.760   2.915  0.00  0.00    +0.295 HD
ENDBRANCH  24  25
ENDBRANCH   7  24
TORSDOF 8
ENDMDL
MODEL 5
REMARK VINA RESULT:      -5.2      3.252      5.804
REMARK  Name = 54333105
REMARK  8 active torsions:
REMARK  status: ('A' for Active; 'I' for Inactive)
REMARK    1  A    between atoms: C_4  and  C_9
REMARK    2  A    between atoms: C_7  and  C_24
REMARK    3  A    between atoms: C_8  and  S_14
REMARK    4  A    between atoms: C_9  and  O_12
REMARK    5  A    between atoms: S_14  and  C_16
REMARK    6  A    between atoms: C_16  and  C_17
REMARK    7  A    between atoms: C_17  and  N_19
REMARK    8  A    between atoms: C_24  and  O_25
REMARK                            x       y       z     vdW  Elec       q    Type
REMARK                         _______ _______ _______ _____ _____    ______ ____
ROOT
ATOM      1  O   UNL     1     -40.409  23.369   1.892  0.00  0.00    -0.274 OA
ATOM      2  N   UNL     1     -38.218  23.329   2.767  0.00  0.00    -0.254 N 
ATOM      3  C   UNL     1     -37.346  22.188   2.410  0.00  0.00    +0.096 C 
ATOM      4  C   UNL     1     -38.577  21.601   1.667  0.00  0.00    +0.120 C 
ATOM      5  C   UNL     1     -36.146  22.831   1.709  0.00  0.00    +0.057 C 
ATOM      6  C   UNL     1     -39.325  22.877   2.111  0.00  0.00    +0.233 C 
ATOM      7  C   UNL     1     -37.573  24.507   2.511  0.00  0.00    +0.134 C 
ATOM      8  C   UNL     1     -36.385  24.301   1.931  0.00  0.00    +0.056 C 
ENDROOT
BRANCH   4   9
ATOM      9  C   UNL     1     -38.472  21.424   0.172  0.00  0.00    +0.098 C 
ATOM     10  C   UNL     1     -37.219  20.621  -0.193  0.00  0.00    +0.030 C 
ATOM     11  C   UNL     1     -39.707  20.725  -0.403  0.00  0.00    +0.030 C 
BRANCH   9  12
ATOM     12  O   UNL     1     -38.375  22.706  -0.460  0.00  0.00    -0.386 OA
ATOM     13  H   UNL     1     -39.245  22.966  -0.801  0.00  0.00    +0.210 HD
ENDBRANCH   9  12
ENDBRANCH   4   9
BRANCH   8  14
ATOM     14  S   UNL     1     -35.279  25.580   1.439  0.00  0.00    +0.064 S 
ATOM     15  O   UNL     1     -34.884  25.282   0.016  0.00  0.00    -0.252 OA
BRANCH  14  16
ATOM     16  C   UNL     1     -33.889  25.120   2.503  0.00  0.00    +0.117 C 
BRANCH  16  17
ATOM     17  C   UNL     1     -34.225  25.301   3.973  0.00  0.00    +0.104 C 
BRANCH  17  19
ATOM     18  O   UNL     1     -36.363  24.241   5.626  0.00  0.00    -0.275 OA
ATOM     19  N   UNL     1     -34.237  24.057   4.695  0.00  0.00    -0.303 N 
ATOM     20  C   UNL     1     -35.310  23.630   5.464  0.00  0.00    +0.223 C 
ATOM     21  C   UNL     1     -35.070  22.283   6.090  0.00  0.00    +0.095 C 
ATOM     22  H   UNL     1     -33.442  23.478   4.639  0.00  0.00    +0.149 HD
ENDBRANCH  17  19
ENDBRANCH  16  17
ENDBRANCH  14  16
ENDBRANCH   8  14
BRANCH   7  24
ATOM     23  O   UNL     1     -38.957  26.388   2.068  0.00  0.00    -0.244 OA
ATOM     24  C   UNL     1     -38.219  25.777   2.825  0.00  0.00    +0.352 C 
BRANCH  24  25
ATOM     25  O   UNL     1     -37.875  26.170   4.072  0.00  0.00    -0.476 OA
ATOM     26  H   UNL     1     -37.431  26.985   4.200  0.00  0.00    +0.295 HD
ENDBRANCH  24  25
ENDBRANCH   7  24
TORSDOF 8
ENDMDL
MODEL 6
REMARK VINA RESULT:      -5.2      3.160      5.094
REMARK  Name = 54333105
REMARK  8 active torsions:
REMARK  status: ('A' for Active; 'I' for Inactive)
REMARK    1  A    between atoms: C_4  and  C_9
REMARK    2  A    between atoms: C_7  and  C_24
REMARK    3  A    between atoms: C_8  and  S_14
REMARK    4  A    between atoms: C_9  and  O_12
REMARK    5  A    between atoms: S_14  and  C_16
REMARK    6  A    between atoms: C_16  and  C_17
REMARK    7  A    between atoms: C_17  and  N_19
REMARK    8  A    between atoms: C_24  and  O_25
REMARK                            x       y       z     vdW  Elec       q    Type
REMARK                         _______ _______ _______ _____ _____    ______ ____
ROOT
ATOM      1  O   UNL     1     -32.720  27.318   3.567  0.00  0.00    -0.274 OA
ATOM      2  N   UNL     1     -35.002  27.764   3.163  0.00  0.00    -0.254 N 
ATOM      3  C   UNL     1     -35.384  28.294   1.835  0.00  0.00    +0.096 C 
ATOM      4  C   UNL     1     -33.865  28.322   1.514  0.00  0.00    +0.120 C 
ATOM      5  C   UNL     1     -36.360  27.254   1.277  0.00  0.00    +0.057 C 
ATOM      6  C   UNL     1     -33.658  27.742   2.931  0.00  0.00    +0.233 C 
ATOM      7  C   UNL     1     -35.769  26.674   3.469  0.00  0.00    +0.134 C 
ATOM      8  C   UNL     1     -36.576  26.342   2.455  0.00  0.00    +0.056 C 
ENDROOT
BRANCH   4   9
ATOM      9  C   UNL     1     -33.370  27.437   0.396  0.00  0.00    +0.098 C 
ATOM     10  C   UNL     1     -34.197  27.654  -0.875  0.00  0.00    +0.030 C 
ATOM     11  C   UNL     1     -31.891  27.689   0.088  0.00  0.00    +0.030 C 
BRANCH   9  12
ATOM     12  O   UNL     1     -33.497  26.062   0.777  0.00  0.00    -0.386 OA
ATOM     13  H   UNL     1     -34.422  25.872   1.000  0.00  0.00    +0.210 HD
ENDBRANCH   9  12
ENDBRANCH   4   9
BRANCH   8  14
ATOM     14  S   UNL     1     -37.696  24.983   2.477  0.00  0.00    +0.064 S 
ATOM     15  O   UNL     1     -38.182  24.849   3.897  0.00  0.00    -0.252 OA
BRANCH  14  16
ATOM     16  C   UNL     1     -36.487  23.668   2.185  0.00  0.00    +0.117 C 
BRANCH  16  17
ATOM     17  C   UNL     1     -36.802  22.426   3.000  0.00  0.00    +0.104 C 
BRANCH  17  19
ATOM     18  O   UNL     1     -35.020  20.689   4.497  0.00  0.00    -0.275 OA
ATOM     19  N   UNL     1     -36.409  22.555   4.378  0.00  0.00    -0.303 N 
ATOM     20  C   UNL     1     -35.548  21.671   5.013  0.00  0.00    +0.223 C 
ATOM     21  C   UNL     1     -35.284  22.053   6.445  0.00  0.00    +0.095 C 
ATOM     22  H   UNL     1     -36.770  23.310   4.897  0.00  0.00    +0.149 HD
ENDBRANCH  17  19
ENDBRANCH  16  17
ENDBRANCH  14  16
ENDBRANCH   8  14
BRANCH   7  24
ATOM     23  O   UNL     1     -34.788  25.125   4.982  0.00  0.00    -0.244 OA
ATOM     24  C   UNL     1     -35.607  26.003   4.755  0.00  0.00    +0.352 C 
BRANCH  24  25
ATOM     25  O   UNL     1     -36.494  26.497   5.646  0.00  0.00    -0.476 OA
ATOM     26  H   UNL     1     -36.434  27.391   5.919  0.00  0.00    +0.295 HD
ENDBRANCH  24  25
ENDBRANCH   7  24
TORSDOF 8
ENDMDL
MODEL 7
REMARK VINA RESULT:      -5.2      1.524      1.602
REMARK  Name = 54333105
REMARK  8 active torsions:
REMARK  status: ('A' for Active; 'I' for Inactive)
REMARK    1  A    between atoms: C_4  and  C_9
REMARK    2  A    between atoms: C_7  and  C_24
REMARK    3  A    between atoms: C_8  and  S_14
REMARK    4  A    between atoms: C_9  and  O_12
REMARK    5  A    between atoms: S_14  and  C_16
REMARK    6  A    between atoms: C_16  and  C_17
REMARK    7  A    between atoms: C_17  and  N_19
REMARK    8  A    between atoms: C_24  and  O_25
REMARK                            x       y       z     vdW  Elec       q    Type
REMARK                         _______ _______ _______ _____ _____    ______ ____
ROOT
ATOM      1  O   UNL     1     -35.957  22.483   5.550  0.00  0.00    -0.274 OA
ATOM      2  N   UNL     1     -36.700  22.740   3.324  0.00  0.00    -0.254 N 
ATOM      3  C   UNL     1     -36.836  24.114   2.790  0.00  0.00    +0.096 C 
ATOM      4  C   UNL     1     -36.451  24.605   4.212  0.00  0.00    +0.120 C 
ATOM      5  C   UNL     1     -35.892  24.148   1.584  0.00  0.00    +0.057 C 
ATOM      6  C   UNL     1     -36.332  23.110   4.585  0.00  0.00    +0.233 C 
ATOM      7  C   UNL     1     -35.948  21.981   2.473  0.00  0.00    +0.134 C 
ATOM      8  C   UNL     1     -35.475  22.707   1.453  0.00  0.00    +0.056 C 
ENDROOT
BRANCH   4   9
ATOM      9  C   UNL     1     -35.170  25.390   4.357  0.00  0.00    +0.098 C 
ATOM     10  C   UNL     1     -35.145  26.573   3.384  0.00  0.00    +0.030 C 
ATOM     11  C   UNL     1     -34.982  25.906   5.786  0.00  0.00    +0.030 C 
BRANCH   9  12
ATOM     12  O   UNL     1     -34.051  24.548   4.057  0.00  0.00    -0.386 OA
ATOM     13  H   UNL     1     -34.276  23.961   3.319  0.00  0.00    +0.210 HD
ENDBRANCH   9  12
ENDBRANCH   4   9
BRANCH   8  14
ATOM     14  S   UNL     1     -34.453  22.074   0.167  0.00  0.00    +0.064 S 
ATOM     15  O   UNL     1     -34.156  23.230  -0.753  0.00  0.00    -0.252 OA
BRANCH  14  16
ATOM     16  C   UNL     1     -35.697  21.036  -0.641  0.00  0.00    +0.117 C 
BRANCH  16  17
ATOM     17  C   UNL     1     -35.240  19.592  -0.744  0.00  0.00    +0.104 C 
BRANCH  17  19
ATOM     18  O   UNL     1     -34.272  17.012   0.172  0.00  0.00    -0.275 OA
ATOM     19  N   UNL     1     -34.061  19.328   0.038  0.00  0.00    -0.303 N 
ATOM     20  C   UNL     1     -33.675  18.054   0.431  0.00  0.00    +0.223 C 
ATOM     21  C   UNL     1     -32.392  18.059   1.218  0.00  0.00    +0.095 C 
ATOM     22  H   UNL     1     -33.500  20.091   0.307  0.00  0.00    +0.149 HD
ENDBRANCH  17  19
ENDBRANCH  16  17
ENDBRANCH  14  16
ENDBRANCH   8  14
BRANCH   7  24
ATOM     23  O   UNL     1     -34.628  20.095   3.066  0.00  0.00    -0.244 OA
ATOM     24  C   UNL     1     -35.712  20.571   2.765  0.00  0.00    +0.352 C 
BRANCH  24  25
ATOM     25  O   UNL     1     -36.867  19.879   2.653  0.00  0.00    -0.476 OA
ATOM     26  H   UNL     1     -37.251  19.744   1.809  0.00  0.00    +0.295 HD
ENDBRANCH  24  25
ENDBRANCH   7  24
TORSDOF 8
ENDMDL
MODEL 8
REMARK VINA RESULT:      -5.2      2.351      5.705
REMARK  Name = 54333105
REMARK  8 active torsions:
REMARK  status: ('A' for Active; 'I' for Inactive)
REMARK    1  A    between atoms: C_4  and  C_9
REMARK    2  A    between atoms: C_7  and  C_24
REMARK    3  A    between atoms: C_8  and  S_14
REMARK    4  A    between atoms: C_9  and  O_12
REMARK    5  A    between atoms: S_14  and  C_16
REMARK    6  A    between atoms: C_16  and  C_17
REMARK    7  A    between atoms: C_17  and  N_19
REMARK    8  A    between atoms: C_24  and  O_25
REMARK                            x       y       z     vdW  Elec       q    Type
REMARK                         _______ _______ _______ _____ _____    ______ ____
ROOT
ATOM      1  O   UNL     1     -35.370  20.005   3.079  0.00  0.00    -0.274 OA
ATOM      2  N   UNL     1     -35.132  22.268   2.450  0.00  0.00    -0.254 N 
ATOM      3  C   UNL     1     -35.611  22.672   1.109  0.00  0.00    +0.096 C 
ATOM      4  C   UNL     1     -35.930  21.171   0.874  0.00  0.00    +0.120 C 
ATOM      5  C   UNL     1     -36.671  23.742   1.391  0.00  0.00    +0.057 C 
ATOM      6  C   UNL     1     -35.414  20.940   2.312  0.00  0.00    +0.233 C 
ATOM      7  C   UNL     1     -35.661  23.093   3.403  0.00  0.00    +0.134 C 
ATOM      8  C   UNL     1     -36.525  23.966   2.872  0.00  0.00    +0.056 C 
ENDROOT
BRANCH   4   9
ATOM      9  C   UNL     1     -37.375  20.789   0.658  0.00  0.00    +0.098 C 
ATOM     10  C   UNL     1     -38.067  21.789  -0.274  0.00  0.00    +0.030 C 
ATOM     11  C   UNL     1     -37.506  19.379   0.074  0.00  0.00    +0.030 C 
BRANCH   9  12
ATOM     12  O   UNL     1     -38.069  20.798   1.911  0.00  0.00    -0.386 OA
ATOM     13  H   UNL     1     -37.789  20.036   2.441  0.00  0.00    +0.210 HD
ENDBRANCH   9  12
ENDBRANCH   4   9
BRANCH   8  14
ATOM     14  S   UNL     1     -37.415  25.174   3.794  0.00  0.00    +0.064 S 
ATOM     15  O   UNL     1     -38.875  24.821   3.667  0.00  0.00    -0.252 OA
BRANCH  14  16
ATOM     16  C   UNL     1     -37.097  26.588   2.710  0.00  0.00    +0.117 C 
BRANCH  16  17
ATOM     17  C   UNL     1     -35.654  27.051   2.803  0.00  0.00    +0.104 C 
BRANCH  17  19
ATOM     18  O   UNL     1     -33.066  26.094   3.705  0.00  0.00    -0.275 OA
ATOM     19  N   UNL     1     -35.152  27.029   4.151  0.00  0.00    -0.303 N 
ATOM     20  C   UNL     1     -33.894  26.550   4.489  0.00  0.00    +0.223 C 
ATOM     21  C   UNL     1     -33.612  26.665   5.963  0.00  0.00    +0.095 C 
ATOM     22  H   UNL     1     -35.731  27.372   4.870  0.00  0.00    +0.149 HD
ENDBRANCH  17  19
ENDBRANCH  16  17
ENDBRANCH  14  16
ENDBRANCH   8  14
BRANCH   7  24
ATOM     23  O   UNL     1     -34.315  23.415   5.335  0.00  0.00    -0.244 OA
ATOM     24  C   UNL     1     -35.297  22.919   4.805  0.00  0.00    +0.352 C 
BRANCH  24  25
ATOM     25  O   UNL     1     -36.206  22.129   5.420  0.00  0.00    -0.476 OA
ATOM     26  H   UNL     1     -36.101  21.913   6.326  0.00  0.00    +0.295 HD
ENDBRANCH  24  25
ENDBRANCH   7  24
TORSDOF 8
ENDMDL
MODEL 9
REMARK VINA RESULT:      -5.2      3.455      6.710
REMARK  Name = 54333105
REMARK  8 active torsions:
REMARK  status: ('A' for Active; 'I' for Inactive)
REMARK    1  A    between atoms: C_4  and  C_9
REMARK    2  A    between atoms: C_7  and  C_24
REMARK    3  A    between atoms: C_8  and  S_14
REMARK    4  A    between atoms: C_9  and  O_12
REMARK    5  A    between atoms: S_14  and  C_16
REMARK    6  A    between atoms: C_16  and  C_17
REMARK    7  A    between atoms: C_17  and  N_19
REMARK    8  A    between atoms: C_24  and  O_25
REMARK                            x       y       z     vdW  Elec       q    Type
REMARK                         _______ _______ _______ _____ _____    ______ ____
ROOT
ATOM      1  O   UNL     1     -36.398  23.224   5.097  0.00  0.00    -0.274 OA
ATOM      2  N   UNL     1     -34.763  24.312   3.788  0.00  0.00    -0.254 N 
ATOM      3  C   UNL     1     -34.633  23.918   2.367  0.00  0.00    +0.096 C 
ATOM      4  C   UNL     1     -35.713  22.841   2.664  0.00  0.00    +0.120 C 
ATOM      5  C   UNL     1     -34.899  25.209   1.588  0.00  0.00    +0.057 C 
ATOM      6  C   UNL     1     -35.732  23.404   4.103  0.00  0.00    +0.233 C 
ATOM      7  C   UNL     1     -34.891  25.669   3.886  0.00  0.00    +0.134 C 
ATOM      8  C   UNL     1     -34.953  26.245   2.679  0.00  0.00    +0.056 C 
ENDROOT
BRANCH   4   9
ATOM      9  C   UNL     1     -37.028  22.950   1.931  0.00  0.00    +0.098 C 
ATOM     10  C   UNL     1     -36.798  23.141   0.429  0.00  0.00    +0.030 C 
ATOM     11  C   UNL     1     -37.905  21.715   2.157  0.00  0.00    +0.030 C 
BRANCH   9  12
ATOM     12  O   UNL     1     -37.758  24.084   2.414  0.00  0.00    -0.386 OA
ATOM     13  H   UNL     1     -38.042  23.922   3.327  0.00  0.00    +0.210 HD
ENDBRANCH   9  12
ENDBRANCH   4   9
BRANCH   8  14
ATOM     14  S   UNL     1     -35.134  27.976   2.408  0.00  0.00    +0.064 S 
ATOM     15  O   UNL     1     -35.532  28.145   0.964  0.00  0.00    -0.252 OA
BRANCH  14  16
ATOM     16  C   UNL     1     -33.388  28.428   2.553  0.00  0.00    +0.117 C 
BRANCH  16  17
ATOM     17  C   UNL     1     -33.191  29.610   3.485  0.00  0.00    +0.104 C 
BRANCH  17  19
ATOM     18  O   UNL     1     -31.529  31.129   5.319  0.00  0.00    -0.275 OA
ATOM     19  N   UNL     1     -32.748  29.215   4.795  0.00  0.00    -0.303 N 
ATOM     20  C   UNL     1     -31.951  30.011   5.605  0.00  0.00    +0.223 C 
ATOM     21  C   UNL     1     -31.656  29.368   6.934  0.00  0.00    +0.095 C 
ATOM     22  H   UNL     1     -33.026  28.333   5.134  0.00  0.00    +0.149 HD
ENDBRANCH  17  19
ENDBRANCH  16  17
ENDBRANCH  14  16
ENDBRANCH   8  14
BRANCH   7  24
ATOM     23  O   UNL     1     -34.034  26.640   5.879  0.00  0.00    -0.244 OA
ATOM     24  C   UNL     1     -34.989  26.302   5.197  0.00  0.00    +0.352 C 
BRANCH  24  25
ATOM     25  O   UNL     1     -36.289  26.454   5.536  0.00  0.00    -0.476 OA
ATOM     26  H   UNL     1     -36.528  26.561   6.435  0.00  0.00    +0.295 HD
ENDBRANCH  24  25
ENDBRANCH   7  24
TORSDOF 8
ENDMDL
