MODEL 1
REMARK VINA RESULT:      -7.2      0.000      0.000
REMARK  Name = 52918384
REMARK  7 active torsions:
REMARK  status: ('A' for Active; 'I' for Inactive)
REMARK    1  A    between atoms: N_1  and  N_23
REMARK    2  A    between atoms: C_24  and  C_26
REMARK    3  A    between atoms: C_26  and  C_27
REMARK    4  A    between atoms: C_26  and  C_33
REMARK    5  A    between atoms: C_27  and  C_28
REMARK    6  A    between atoms: C_33  and  N_35
REMARK    7  A    between atoms: N_35  and  O_37
REMARK                            x       y       z     vdW  Elec       q    Type
REMARK                         _______ _______ _______ _____ _____    ______ ____
ROOT
ATOM      1  N   UNL     1     -40.031  24.727   3.714  0.00  0.00    -0.238 N 
ATOM      2  H   UNL     1     -40.502  24.422   4.523  0.00  0.00    +0.172 HD
ATOM      3  F   UNL     1     -42.008  26.351   4.725  0.00  0.00    -0.219 F 
ATOM      4  O   UNL     1     -45.079  30.823   6.940  0.00  0.00    -0.358 OA
ATOM      5  N   UNL     1     -45.012  30.226   4.156  0.00  0.00    +0.394 N 
ATOM      6  N   UNL     1     -43.043  28.388   3.210  0.00  0.00    -0.288 N 
ATOM      7  N   UNL     1     -41.599  27.810   1.429  0.00  0.00    -0.330 NA
ATOM      8  N   UNL     1     -40.075  25.960   1.680  0.00  0.00    -0.329 NA
ATOM      9  C   UNL     1     -44.114  29.544   5.108  0.00  0.00    -0.008 C 
ATOM     10  C   UNL     1     -42.789  29.162   4.430  0.00  0.00    +0.075 C 
ATOM     11  C   UNL     1     -45.300  29.353   3.014  0.00  0.00    -0.055 C 
ATOM     12  C   UNL     1     -44.014  28.973   2.277  0.00  0.00    +0.070 C 
ATOM     13  C   UNL     1     -43.850  30.460   6.309  0.00  0.00    +0.123 C 
ATOM     14  C   UNL     1     -46.255  30.628   4.830  0.00  0.00    -0.044 C 
ATOM     15  C   UNL     1     -45.932  31.515   6.027  0.00  0.00    +0.119 C 
ATOM     16  C   UNL     1     -42.036  27.572   2.682  0.00  0.00    +0.213 C 
ATOM     17  C   UNL     1     -41.550  26.561   3.485  0.00  0.00    +0.295 C 
ATOM     18  C   UNL     1     -40.560  25.778   2.926  0.00  0.00    +0.226 C 
ATOM     19  C   UNL     1     -40.631  26.979   0.996  0.00  0.00    +0.117 C 
ATOM     20  C   UNL     1     -40.121  27.213  -0.384  0.00  0.00    +0.143 C 
ATOM     21  H   UNL     1     -44.548  31.065   3.810  0.00  0.00    -0.079 HD
ENDROOT
BRANCH   1  23
ATOM     22  O   UNL     1     -39.962  22.404   2.273  0.00  0.00    -0.274 OA
ATOM     23  N   UNL     1     -38.865  24.149   3.335  0.00  0.00    -0.234 N 
ATOM     24  C   UNL     1     -38.926  22.974   2.608  0.00  0.00    +0.239 C 
ATOM     25  H   UNL     1     -37.998  24.555   3.571  0.00  0.00    +0.173 HD
BRANCH  24  26
ATOM     26  C   UNL     1     -37.535  22.454   2.235  0.00  0.00    +0.100 C 
BRANCH  26  27
ATOM     27  C   UNL     1     -36.433  23.495   2.499  0.00  0.00    +0.011 C 
BRANCH  27  28
ATOM     28  C   UNL     1     -35.508  23.084   3.631  0.00  0.00    +0.001 C 
ATOM     29  C   UNL     1     -35.816  23.792   4.947  0.00  0.00    +0.000 C 
ATOM     30  C   UNL     1     -35.643  21.613   4.015  0.00  0.00    +0.000 C 
ATOM     31  C   UNL     1     -35.004  21.534   5.397  0.00  0.00    +0.000 C 
ATOM     32  C   UNL     1     -35.125  22.933   6.002  0.00  0.00    +0.000 C 
ENDBRANCH  27  28
ENDBRANCH  26  27
BRANCH  26  33
ATOM     33  C   UNL     1     -37.527  21.988   0.772  0.00  0.00    +0.133 C 
BRANCH  33  35
ATOM     34  O   UNL     1     -35.494  19.936   0.899  0.00  0.00    -0.263 OA
ATOM     35  N   UNL     1     -37.707  20.568   0.628  0.00  0.00    -0.164 N 
ATOM     36  C   UNL     1     -36.677  19.676   0.705  0.00  0.00    +0.327 C 
BRANCH  35  37
ATOM     37  O   UNL     1     -39.037  20.180   0.404  0.00  0.00    -0.291 OA
ATOM     38  H   UNL     1     -39.205  20.142  -0.551  0.00  0.00    +0.242 HD
ENDBRANCH  35  37
ENDBRANCH  33  35
ENDBRANCH  26  33
ENDBRANCH  24  26
ENDBRANCH   1  23
TORSDOF 7
ENDMDL
MODEL 2
REMARK VINA RESULT:      -7.1      2.165      3.173
REMARK  Name = 52918384
REMARK  7 active torsions:
REMARK  status: ('A' for Active; 'I' for Inactive)
REMARK    1  A    between atoms: N_1  and  N_23
REMARK    2  A    between atoms: C_24  and  C_26
REMARK    3  A    between atoms: C_26  and  C_27
REMARK    4  A    between atoms: C_26  and  C_33
REMARK    5  A    between atoms: C_27  and  C_28
REMARK    6  A    between atoms: C_33  and  N_35
REMARK    7  A    between atoms: N_35  and  O_37
REMARK                            x       y       z     vdW  Elec       q    Type
REMARK                         _______ _______ _______ _____ _____    ______ ____
ROOT
ATOM      1  N   UNL     1     -39.200  24.701   3.693  0.00  0.00    -0.238 N 
ATOM      2  H   UNL     1     -39.695  24.320   4.453  0.00  0.00    +0.172 HD
ATOM      3  F   UNL     1     -41.554  25.922   4.420  0.00  0.00    -0.219 F 
ATOM      4  O   UNL     1     -45.661  29.740   6.123  0.00  0.00    -0.358 OA
ATOM      5  N   UNL     1     -45.156  29.135   3.387  0.00  0.00    +0.394 N 
ATOM      6  N   UNL     1     -42.776  27.702   2.730  0.00  0.00    -0.288 N 
ATOM      7  N   UNL     1     -41.051  27.395   1.143  0.00  0.00    -0.330 NA
ATOM      8  N   UNL     1     -39.241  25.878   1.625  0.00  0.00    -0.329 NA
ATOM      9  C   UNL     1     -44.262  28.651   4.456  0.00  0.00    -0.008 C 
ATOM     10  C   UNL     1     -42.819  28.525   3.944  0.00  0.00    +0.075 C 
ATOM     11  C   UNL     1     -45.137  28.209   2.250  0.00  0.00    -0.055 C 
ATOM     12  C   UNL     1     -43.725  28.077   1.675  0.00  0.00    +0.070 C 
ATOM     13  C   UNL     1     -44.320  29.615   5.647  0.00  0.00    +0.123 C 
ATOM     14  C   UNL     1     -46.523  29.297   3.903  0.00  0.00    -0.044 C 
ATOM     15  C   UNL     1     -46.518  30.243   5.098  0.00  0.00    +0.119 C 
ATOM     16  C   UNL     1     -41.577  27.091   2.346  0.00  0.00    +0.213 C 
ATOM     17  C   UNL     1     -41.003  26.202   3.232  0.00  0.00    +0.295 C 
ATOM     18  C   UNL     1     -39.824  25.620   2.815  0.00  0.00    +0.226 C 
ATOM     19  C   UNL     1     -39.898  26.762   0.850  0.00  0.00    +0.117 C 
ATOM     20  C   UNL     1     -39.284  27.074  -0.472  0.00  0.00    +0.143 C 
ATOM     21  H   UNL     1     -44.824  30.044   3.067  0.00  0.00    -0.079 HD
ENDROOT
BRANCH   1  23
ATOM     22  O   UNL     1     -38.517  22.354   2.465  0.00  0.00    -0.274 OA
ATOM     23  N   UNL     1     -37.908  24.355   3.466  0.00  0.00    -0.234 N 
ATOM     24  C   UNL     1     -37.656  23.148   2.839  0.00  0.00    +0.239 C 
ATOM     25  H   UNL     1     -37.170  24.947   3.741  0.00  0.00    +0.173 HD
BRANCH  24  26
ATOM     26  C   UNL     1     -36.159  22.907   2.634  0.00  0.00    +0.100 C 
BRANCH  26  27
ATOM     27  C   UNL     1     -35.864  22.138   1.333  0.00  0.00    +0.011 C 
BRANCH  27  28
ATOM     28  C   UNL     1     -34.623  21.271   1.442  0.00  0.00    +0.001 C 
ATOM     29  C   UNL     1     -34.923  19.777   1.351  0.00  0.00    +0.000 C 
ATOM     30  C   UNL     1     -33.642  21.476   0.292  0.00  0.00    +0.000 C 
ATOM     31  C   UNL     1     -32.745  20.244   0.350  0.00  0.00    +0.000 C 
ATOM     32  C   UNL     1     -33.573  19.147   1.021  0.00  0.00    +0.000 C 
ENDBRANCH  27  28
ENDBRANCH  26  27
BRANCH  26  33
ATOM     33  C   UNL     1     -35.575  22.183   3.856  0.00  0.00    +0.133 C 
BRANCH  33  35
ATOM     34  O   UNL     1     -36.019  22.041   6.709  0.00  0.00    -0.263 OA
ATOM     35  N   UNL     1     -35.079  23.082   4.864  0.00  0.00    -0.164 N 
ATOM     36  C   UNL     1     -35.347  22.928   6.194  0.00  0.00    +0.327 C 
BRANCH  35  37
ATOM     37  O   UNL     1     -34.296  24.131   4.359  0.00  0.00    -0.291 OA
ATOM     38  H   UNL     1     -34.529  24.290   3.431  0.00  0.00    +0.242 HD
ENDBRANCH  35  37
ENDBRANCH  33  35
ENDBRANCH  26  33
ENDBRANCH  24  26
ENDBRANCH   1  23
TORSDOF 7
ENDMDL
MODEL 3
REMARK VINA RESULT:      -7.1      7.322      9.030
REMARK  Name = 52918384
REMARK  7 active torsions:
REMARK  status: ('A' for Active; 'I' for Inactive)
REMARK    1  A    between atoms: N_1  and  N_23
REMARK    2  A    between atoms: C_24  and  C_26
REMARK    3  A    between atoms: C_26  and  C_27
REMARK    4  A    between atoms: C_26  and  C_33
REMARK    5  A    between atoms: C_27  and  C_28
REMARK    6  A    between atoms: C_33  and  N_35
REMARK    7  A    between atoms: N_35  and  O_37
REMARK                            x       y       z     vdW  Elec       q    Type
REMARK                         _______ _______ _______ _____ _____    ______ ____
ROOT
ATOM      1  N   UNL     1     -33.268  26.134   2.401  0.00  0.00    -0.238 N 
ATOM      2  H   UNL     1     -33.111  26.341   1.452  0.00  0.00    +0.172 HD
ATOM      3  F   UNL     1     -32.900  28.772   1.718  0.00  0.00    -0.219 F 
ATOM      4  O   UNL     1     -33.492  34.546   0.907  0.00  0.00    -0.358 OA
ATOM      5  N   UNL     1     -32.074  33.434   3.112  0.00  0.00    +0.394 N 
ATOM      6  N   UNL     1     -32.366  30.646   3.647  0.00  0.00    -0.288 N 
ATOM      7  N   UNL     1     -32.463  28.971   5.314  0.00  0.00    -0.330 NA
ATOM      8  N   UNL     1     -32.919  26.689   4.688  0.00  0.00    -0.329 NA
ATOM      9  C   UNL     1     -32.874  32.585   2.210  0.00  0.00    -0.008 C 
ATOM     10  C   UNL     1     -33.441  31.372   2.963  0.00  0.00    +0.075 C 
ATOM     11  C   UNL     1     -30.960  32.667   3.679  0.00  0.00    -0.055 C 
ATOM     12  C   UNL     1     -31.474  31.465   4.476  0.00  0.00    +0.070 C 
ATOM     13  C   UNL     1     -34.013  33.413   1.604  0.00  0.00    +0.123 C 
ATOM     14  C   UNL     1     -31.578  34.616   2.391  0.00  0.00    -0.044 C 
ATOM     15  C   UNL     1     -32.748  35.386   1.790  0.00  0.00    +0.119 C 
ATOM     16  C   UNL     1     -32.553  29.308   4.011  0.00  0.00    +0.213 C 
ATOM     17  C   UNL     1     -32.818  28.404   3.003  0.00  0.00    +0.295 C 
ATOM     18  C   UNL     1     -32.994  27.096   3.404  0.00  0.00    +0.226 C 
ATOM     19  C   UNL     1     -32.653  27.664   5.579  0.00  0.00    +0.117 C 
ATOM     20  C   UNL     1     -32.563  27.255   7.009  0.00  0.00    +0.143 C 
ATOM     21  H   UNL     1     -32.668  33.752   3.878  0.00  0.00    -0.079 HD
ENDROOT
BRANCH   1  23
ATOM     22  O   UNL     1     -35.653  25.173   1.468  0.00  0.00    -0.274 OA
ATOM     23  N   UNL     1     -33.752  24.922   2.773  0.00  0.00    -0.234 N 
ATOM     24  C   UNL     1     -34.967  24.518   2.251  0.00  0.00    +0.239 C 
ATOM     25  H   UNL     1     -33.252  24.347   3.397  0.00  0.00    +0.173 HD
BRANCH  24  26
ATOM     26  C   UNL     1     -35.371  23.126   2.744  0.00  0.00    +0.100 C 
BRANCH  26  27
ATOM     27  C   UNL     1     -36.155  22.335   1.681  0.00  0.00    +0.011 C 
BRANCH  27  28
ATOM     28  C   UNL     1     -35.359  21.166   1.127  0.00  0.00    +0.001 C 
ATOM     29  C   UNL     1     -34.025  21.583   0.513  0.00  0.00    +0.000 C 
ATOM     30  C   UNL     1     -34.925  20.171   2.200  0.00  0.00    +0.000 C 
ATOM     31  C   UNL     1     -33.810  19.374   1.533  0.00  0.00    +0.000 C 
ATOM     32  C   UNL     1     -33.222  20.287   0.455  0.00  0.00    +0.000 C 
ENDBRANCH  27  28
ENDBRANCH  26  27
BRANCH  26  33
ATOM     33  C   UNL     1     -36.168  23.246   4.052  0.00  0.00    +0.133 C 
BRANCH  33  35
ATOM     34  O   UNL     1     -35.263  20.972   5.590  0.00  0.00    -0.263 OA
ATOM     35  N   UNL     1     -35.333  23.259   5.224  0.00  0.00    -0.164 N 
ATOM     36  C   UNL     1     -34.959  22.123   5.882  0.00  0.00    +0.327 C 
BRANCH  35  37
ATOM     37  O   UNL     1     -34.938  24.542   5.629  0.00  0.00    -0.291 OA
ATOM     38  H   UNL     1     -35.434  25.208   5.127  0.00  0.00    +0.242 HD
ENDBRANCH  35  37
ENDBRANCH  33  35
ENDBRANCH  26  33
ENDBRANCH  24  26
ENDBRANCH   1  23
TORSDOF 7
ENDMDL
MODEL 4
REMARK VINA RESULT:      -6.8      7.908      9.328
REMARK  Name = 52918384
REMARK  7 active torsions:
REMARK  status: ('A' for Active; 'I' for Inactive)
REMARK    1  A    between atoms: N_1  and  N_23
REMARK    2  A    between atoms: C_24  and  C_26
REMARK    3  A    between atoms: C_26  and  C_27
REMARK    4  A    between atoms: C_26  and  C_33
REMARK    5  A    between atoms: C_27  and  C_28
REMARK    6  A    between atoms: C_33  and  N_35
REMARK    7  A    between atoms: N_35  and  O_37
REMARK                            x       y       z     vdW  Elec       q    Type
REMARK                         _______ _______ _______ _____ _____    ______ ____
ROOT
ATOM      1  N   UNL     1     -34.849  28.977   3.506  0.00  0.00    -0.238 N 
ATOM      2  H   UNL     1     -34.145  28.957   4.193  0.00  0.00    +0.172 HD
ATOM      3  F   UNL     1     -32.984  30.999   3.479  0.00  0.00    -0.219 F 
ATOM      4  O   UNL     1     -28.772  34.795   2.001  0.00  0.00    -0.358 OA
ATOM      5  N   UNL     1     -31.545  35.413   1.804  0.00  0.00    +0.394 N 
ATOM      6  N   UNL     1     -33.429  33.280   2.025  0.00  0.00    -0.288 N 
ATOM      7  N   UNL     1     -35.516  32.429   1.309  0.00  0.00    -0.330 NA
ATOM      8  N   UNL     1     -36.237  30.254   2.055  0.00  0.00    -0.329 NA
ATOM      9  C   UNL     1     -31.084  34.043   2.099  0.00  0.00    -0.008 C 
ATOM     10  C   UNL     1     -32.071  33.004   1.544  0.00  0.00    +0.075 C 
ATOM     11  C   UNL     1     -32.862  35.647   2.403  0.00  0.00    -0.055 C 
ATOM     12  C   UNL     1     -33.896  34.661   1.852  0.00  0.00    +0.070 C 
ATOM     13  C   UNL     1     -29.692  33.829   1.492  0.00  0.00    +0.123 C 
ATOM     14  C   UNL     1     -30.568  36.394   2.298  0.00  0.00    -0.044 C 
ATOM     15  C   UNL     1     -29.200  36.119   1.683  0.00  0.00    +0.119 C 
ATOM     16  C   UNL     1     -34.387  32.260   2.027  0.00  0.00    +0.213 C 
ATOM     17  C   UNL     1     -34.115  31.133   2.775  0.00  0.00    +0.295 C 
ATOM     18  C   UNL     1     -35.086  30.153   2.752  0.00  0.00    +0.226 C 
ATOM     19  C   UNL     1     -36.385  31.402   1.366  0.00  0.00    +0.117 C 
ATOM     20  C   UNL     1     -37.644  31.551   0.583  0.00  0.00    +0.143 C 
ATOM     21  H   UNL     1     -31.626  35.522   0.794  0.00  0.00    -0.079 HD
ENDROOT
BRANCH   1  23
ATOM     22  O   UNL     1     -34.809  26.789   5.146  0.00  0.00    -0.274 OA
ATOM     23  N   UNL     1     -35.610  27.881   3.263  0.00  0.00    -0.234 N 
ATOM     24  C   UNL     1     -35.526  26.821   4.147  0.00  0.00    +0.239 C 
ATOM     25  H   UNL     1     -36.206  27.841   2.480  0.00  0.00    +0.173 HD
BRANCH  24  26
ATOM     26  C   UNL     1     -36.454  25.668   3.756  0.00  0.00    +0.100 C 
BRANCH  26  27
ATOM     27  C   UNL     1     -35.678  24.387   3.403  0.00  0.00    +0.011 C 
BRANCH  27  28
ATOM     28  C   UNL     1     -35.921  23.270   4.403  0.00  0.00    +0.001 C 
ATOM     29  C   UNL     1     -35.301  21.941   3.983  0.00  0.00    +0.000 C 
ATOM     30  C   UNL     1     -35.264  23.521   5.757  0.00  0.00    +0.000 C 
ATOM     31  C   UNL     1     -35.241  22.146   6.415  0.00  0.00    +0.000 C 
ATOM     32  C   UNL     1     -35.253  21.128   5.274  0.00  0.00    +0.000 C 
ENDBRANCH  27  28
ENDBRANCH  26  27
BRANCH  26  33
ATOM     33  C   UNL     1     -37.369  26.105   2.601  0.00  0.00    +0.133 C 
BRANCH  33  35
ATOM     34  O   UNL     1     -38.631  23.688   1.642  0.00  0.00    -0.263 OA
ATOM     35  N   UNL     1     -38.739  25.703   2.781  0.00  0.00    -0.164 N 
ATOM     36  C   UNL     1     -39.241  24.534   2.286  0.00  0.00    +0.327 C 
BRANCH  35  37
ATOM     37  O   UNL     1     -39.512  26.618   3.510  0.00  0.00    -0.291 OA
ATOM     38  H   UNL     1     -39.935  27.242   2.900  0.00  0.00    +0.242 HD
ENDBRANCH  35  37
ENDBRANCH  33  35
ENDBRANCH  26  33
ENDBRANCH  24  26
ENDBRANCH   1  23
TORSDOF 7
ENDMDL
MODEL 5
REMARK VINA RESULT:      -6.8      1.477      1.730
REMARK  Name = 52918384
REMARK  7 active torsions:
REMARK  status: ('A' for Active; 'I' for Inactive)
REMARK    1  A    between atoms: N_1  and  N_23
REMARK    2  A    between atoms: C_24  and  C_26
REMARK    3  A    between atoms: C_26  and  C_27
REMARK    4  A    between atoms: C_26  and  C_33
REMARK    5  A    between atoms: C_27  and  C_28
REMARK    6  A    between atoms: C_33  and  N_35
REMARK    7  A    between atoms: N_35  and  O_37
REMARK                            x       y       z     vdW  Elec       q    Type
REMARK                         _______ _______ _______ _____ _____    ______ ____
ROOT
ATOM      1  N   UNL     1     -39.689  24.844   3.646  0.00  0.00    -0.238 N 
ATOM      2  H   UNL     1     -40.125  24.464   4.442  0.00  0.00    +0.172 HD
ATOM      3  F   UNL     1     -41.884  26.165   4.646  0.00  0.00    -0.219 F 
ATOM      4  O   UNL     1     -45.570  30.138   6.873  0.00  0.00    -0.358 OA
ATOM      5  N   UNL     1     -45.380  29.602   4.083  0.00  0.00    +0.394 N 
ATOM      6  N   UNL     1     -43.165  28.066   3.143  0.00  0.00    -0.288 N 
ATOM      7  N   UNL     1     -41.630  27.721   1.379  0.00  0.00    -0.330 NA
ATOM      8  N   UNL     1     -39.870  26.093   1.628  0.00  0.00    -0.329 NA
ATOM      9  C   UNL     1     -44.412  29.034   5.040  0.00  0.00    -0.008 C 
ATOM     10  C   UNL     1     -43.038  28.847   4.379  0.00  0.00    +0.075 C 
ATOM     11  C   UNL     1     -45.530  28.717   2.924  0.00  0.00    -0.055 C 
ATOM     12  C   UNL     1     -44.193  28.529   2.203  0.00  0.00    +0.070 C 
ATOM     13  C   UNL     1     -44.294  29.957   6.258  0.00  0.00    +0.123 C 
ATOM     14  C   UNL     1     -46.677  29.820   4.741  0.00  0.00    -0.044 C 
ATOM     15  C   UNL     1     -46.496  30.722   5.957  0.00  0.00    +0.119 C 
ATOM     16  C   UNL     1     -42.049  27.404   2.621  0.00  0.00    +0.213 C 
ATOM     17  C   UNL     1     -41.440  26.456   3.417  0.00  0.00    +0.295 C 
ATOM     18  C   UNL     1     -40.345  25.825   2.863  0.00  0.00    +0.226 C 
ATOM     19  C   UNL     1     -40.551  27.037   0.951  0.00  0.00    +0.117 C 
ATOM     20  C   UNL     1     -40.057  27.362  -0.417  0.00  0.00    +0.143 C 
ATOM     21  H   UNL     1     -45.031  30.503   3.757  0.00  0.00    -0.079 HD
ENDROOT
BRANCH   1  23
ATOM     22  O   UNL     1     -39.262  22.472   2.352  0.00  0.00    -0.274 OA
ATOM     23  N   UNL     1     -38.448  24.437   3.277  0.00  0.00    -0.234 N 
ATOM     24  C   UNL     1     -38.327  23.222   2.627  0.00  0.00    +0.239 C 
ATOM     25  H   UNL     1     -37.656  24.990   3.468  0.00  0.00    +0.173 HD
BRANCH  24  26
ATOM     26  C   UNL     1     -36.875  22.908   2.258  0.00  0.00    +0.100 C 
BRANCH  26  27
ATOM     27  C   UNL     1     -35.878  23.837   2.973  0.00  0.00    +0.011 C 
BRANCH  27  28
ATOM     28  C   UNL     1     -35.185  23.153   4.138  0.00  0.00    +0.001 C 
ATOM     29  C   UNL     1     -35.708  23.604   5.499  0.00  0.00    +0.000 C 
ATOM     30  C   UNL     1     -35.425  21.646   4.181  0.00  0.00    +0.000 C 
ATOM     31  C   UNL     1     -35.050  21.255   5.607  0.00  0.00    +0.000 C 
ATOM     32  C   UNL     1     -35.243  22.512   6.457  0.00  0.00    +0.000 C 
ENDBRANCH  27  28
ENDBRANCH  26  27
BRANCH  26  33
ATOM     33  C   UNL     1     -36.700  22.967   0.732  0.00  0.00    +0.133 C 
BRANCH  33  35
ATOM     34  O   UNL     1     -35.331  25.381  -0.073  0.00  0.00    -0.263 OA
ATOM     35  N   UNL     1     -37.278  24.143   0.141  0.00  0.00    -0.164 N 
ATOM     36  C   UNL     1     -36.542  25.239  -0.207  0.00  0.00    +0.327 C 
BRANCH  35  37
ATOM     37  O   UNL     1     -38.666  24.065  -0.049  0.00  0.00    -0.291 OA
ATOM     38  H   UNL     1     -38.944  24.743  -0.685  0.00  0.00    +0.242 HD
ENDBRANCH  35  37
ENDBRANCH  33  35
ENDBRANCH  26  33
ENDBRANCH  24  26
ENDBRANCH   1  23
TORSDOF 7
ENDMDL
MODEL 6
REMARK VINA RESULT:      -6.7      7.423      9.808
REMARK  Name = 52918384
REMARK  7 active torsions:
REMARK  status: ('A' for Active; 'I' for Inactive)
REMARK    1  A    between atoms: N_1  and  N_23
REMARK    2  A    between atoms: C_24  and  C_26
REMARK    3  A    between atoms: C_26  and  C_27
REMARK    4  A    between atoms: C_26  and  C_33
REMARK    5  A    between atoms: C_27  and  C_28
REMARK    6  A    between atoms: C_33  and  N_35
REMARK    7  A    between atoms: N_35  and  O_37
REMARK                            x       y       z     vdW  Elec       q    Type
REMARK                         _______ _______ _______ _____ _____    ______ ____
ROOT
ATOM      1  N   UNL     1     -33.611  26.855   2.419  0.00  0.00    -0.238 N 
ATOM      2  H   UNL     1     -33.373  27.080   1.490  0.00  0.00    +0.172 HD
ATOM      3  F   UNL     1     -32.285  29.225   1.984  0.00  0.00    -0.219 F 
ATOM      4  O   UNL     1     -30.693  34.859   1.741  0.00  0.00    -0.358 OA
ATOM      5  N   UNL     1     -29.820  33.096   3.800  0.00  0.00    +0.394 N 
ATOM      6  N   UNL     1     -31.128  30.573   4.072  0.00  0.00    -0.288 N 
ATOM      7  N   UNL     1     -31.862  28.900   5.572  0.00  0.00    -0.330 NA
ATOM      8  N   UNL     1     -33.117  27.018   4.741  0.00  0.00    -0.329 NA
ATOM      9  C   UNL     1     -30.863  32.693   2.837  0.00  0.00    -0.008 C 
ATOM     10  C   UNL     1     -31.849  31.707   3.483  0.00  0.00    +0.075 C 
ATOM     11  C   UNL     1     -29.077  31.921   4.267  0.00  0.00    -0.055 C 
ATOM     12  C   UNL     1     -30.010  30.922   4.956  0.00  0.00    +0.070 C 
ATOM     13  C   UNL     1     -31.607  33.937   2.338  0.00  0.00    +0.123 C 
ATOM     14  C   UNL     1     -28.912  34.075   3.185  0.00  0.00    -0.044 C 
ATOM     15  C   UNL     1     -29.706  35.276   2.685  0.00  0.00    +0.119 C 
ATOM     16  C   UNL     1     -31.801  29.370   4.310  0.00  0.00    +0.213 C 
ATOM     17  C   UNL     1     -32.365  28.730   3.225  0.00  0.00    +0.295 C 
ATOM     18  C   UNL     1     -33.017  27.546   3.503  0.00  0.00    +0.226 C 
ATOM     19  C   UNL     1     -32.525  27.736   5.714  0.00  0.00    +0.117 C 
ATOM     20  C   UNL     1     -32.615  27.185   7.096  0.00  0.00    +0.143 C 
ATOM     21  H   UNL     1     -30.267  33.534   4.604  0.00  0.00    -0.079 HD
ENDROOT
BRANCH   1  23
ATOM     22  O   UNL     1     -36.308  27.283   2.258  0.00  0.00    -0.274 OA
ATOM     23  N   UNL     1     -34.513  25.877   2.683  0.00  0.00    -0.234 N 
ATOM     24  C   UNL     1     -35.858  26.184   2.576  0.00  0.00    +0.239 C 
ATOM     25  H   UNL     1     -34.219  24.974   2.943  0.00  0.00    +0.173 HD
BRANCH  24  26
ATOM     26  C   UNL     1     -36.751  24.979   2.883  0.00  0.00    +0.100 C 
BRANCH  26  27
ATOM     27  C   UNL     1     -35.973  23.652   2.843  0.00  0.00    +0.011 C 
BRANCH  27  28
ATOM     28  C   UNL     1     -36.085  22.877   4.144  0.00  0.00    +0.001 C 
ATOM     29  C   UNL     1     -35.267  21.588   4.149  0.00  0.00    +0.000 C 
ATOM     30  C   UNL     1     -35.514  23.628   5.343  0.00  0.00    +0.000 C 
ATOM     31  C   UNL     1     -35.316  22.543   6.396  0.00  0.00    +0.000 C 
ATOM     32  C   UNL     1     -35.145  21.232   5.628  0.00  0.00    +0.000 C 
ENDBRANCH  27  28
ENDBRANCH  26  27
BRANCH  26  33
ATOM     33  C   UNL     1     -37.947  24.957   1.920  0.00  0.00    +0.133 C 
BRANCH  33  35
ATOM     34  O   UNL     1     -40.350  23.351   1.898  0.00  0.00    -0.263 OA
ATOM     35  N   UNL     1     -39.199  25.248   2.565  0.00  0.00    -0.164 N 
ATOM     36  C   UNL     1     -40.282  24.420   2.494  0.00  0.00    +0.327 C 
BRANCH  35  37
ATOM     37  O   UNL     1     -39.209  26.459   3.274  0.00  0.00    -0.291 OA
ATOM     38  H   UNL     1     -39.370  27.192   2.659  0.00  0.00    +0.242 HD
ENDBRANCH  35  37
ENDBRANCH  33  35
ENDBRANCH  26  33
ENDBRANCH  24  26
ENDBRANCH   1  23
TORSDOF 7
ENDMDL
MODEL 7
REMARK VINA RESULT:      -6.7      2.474      3.510
REMARK  Name = 52918384
REMARK  7 active torsions:
REMARK  status: ('A' for Active; 'I' for Inactive)
REMARK    1  A    between atoms: N_1  and  N_23
REMARK    2  A    between atoms: C_24  and  C_26
REMARK    3  A    between atoms: C_26  and  C_27
REMARK    4  A    between atoms: C_26  and  C_33
REMARK    5  A    between atoms: C_27  and  C_28
REMARK    6  A    between atoms: C_33  and  N_35
REMARK    7  A    between atoms: N_35  and  O_37
REMARK                            x       y       z     vdW  Elec       q    Type
REMARK                         _______ _______ _______ _____ _____    ______ ____
ROOT
ATOM      1  N   UNL     1     -39.275  24.496   3.628  0.00  0.00    -0.238 N 
ATOM      2  H   UNL     1     -39.697  24.193   4.464  0.00  0.00    +0.172 HD
ATOM      3  F   UNL     1     -41.406  25.951   4.578  0.00  0.00    -0.219 F 
ATOM      4  O   UNL     1     -44.926  30.189   6.575  0.00  0.00    -0.358 OA
ATOM      5  N   UNL     1     -44.832  29.425   3.834  0.00  0.00    +0.394 N 
ATOM      6  N   UNL     1     -42.684  27.760   2.961  0.00  0.00    -0.288 N 
ATOM      7  N   UNL     1     -41.211  27.233   1.189  0.00  0.00    -0.330 NA
ATOM      8  N   UNL     1     -39.485  25.583   1.521  0.00  0.00    -0.329 NA
ATOM      9  C   UNL     1     -43.850  28.910   4.806  0.00  0.00    -0.008 C 
ATOM     10  C   UNL     1     -42.501  28.634   4.125  0.00  0.00    +0.075 C 
ATOM     11  C   UNL     1     -45.038  28.454   2.755  0.00  0.00    -0.055 C 
ATOM     12  C   UNL     1     -43.727  28.173   2.015  0.00  0.00    +0.070 C 
ATOM     13  C   UNL     1     -43.673  29.925   5.942  0.00  0.00    +0.123 C 
ATOM     14  C   UNL     1     -46.103  29.730   4.507  0.00  0.00    -0.044 C 
ATOM     15  C   UNL     1     -45.864  30.722   5.640  0.00  0.00    +0.119 C 
ATOM     16  C   UNL     1     -41.600  27.028   2.464  0.00  0.00    +0.213 C 
ATOM     17  C   UNL     1     -40.992  26.131   3.317  0.00  0.00    +0.295 C 
ATOM     18  C   UNL     1     -39.929  25.429   2.787  0.00  0.00    +0.226 C 
ATOM     19  C   UNL     1     -40.162  26.488   0.788  0.00  0.00    +0.117 C 
ATOM     20  C   UNL     1     -39.701  26.687  -0.615  0.00  0.00    +0.143 C 
ATOM     21  H   UNL     1     -44.470  30.287   3.426  0.00  0.00    -0.079 HD
ENDROOT
BRANCH   1  23
ATOM     22  O   UNL     1     -37.027  24.966   5.114  0.00  0.00    -0.274 OA
ATOM     23  N   UNL     1     -38.056  24.027   3.260  0.00  0.00    -0.234 N 
ATOM     24  C   UNL     1     -36.975  24.314   4.073  0.00  0.00    +0.239 C 
ATOM     25  H   UNL     1     -37.944  23.498   2.437  0.00  0.00    +0.173 HD
BRANCH  24  26
ATOM     26  C   UNL     1     -35.675  23.703   3.541  0.00  0.00    +0.100 C 
BRANCH  26  27
ATOM     27  C   UNL     1     -35.689  22.165   3.595  0.00  0.00    +0.011 C 
BRANCH  27  28
ATOM     28  C   UNL     1     -35.492  21.538   2.226  0.00  0.00    +0.001 C 
ATOM     29  C   UNL     1     -34.602  22.368   1.306  0.00  0.00    +0.000 C 
ATOM     30  C   UNL     1     -34.753  20.204   2.275  0.00  0.00    +0.000 C 
ATOM     31  C   UNL     1     -34.280  19.992   0.842  0.00  0.00    +0.000 C 
ATOM     32  C   UNL     1     -34.171  21.386   0.220  0.00  0.00    +0.000 C 
ENDBRANCH  27  28
ENDBRANCH  26  27
BRANCH  26  33
ATOM     33  C   UNL     1     -34.475  24.280   4.308  0.00  0.00    +0.133 C 
BRANCH  33  35
ATOM     34  O   UNL     1     -34.286  26.882   5.553  0.00  0.00    -0.263 OA
ATOM     35  N   UNL     1     -33.962  25.492   3.728  0.00  0.00    -0.164 N 
ATOM     36  C   UNL     1     -33.915  26.678   4.403  0.00  0.00    +0.327 C 
BRANCH  35  37
ATOM     37  O   UNL     1     -33.512  25.347   2.407  0.00  0.00    -0.291 OA
ATOM     38  H   UNL     1     -32.864  26.041   2.208  0.00  0.00    +0.242 HD
ENDBRANCH  35  37
ENDBRANCH  33  35
ENDBRANCH  26  33
ENDBRANCH  24  26
ENDBRANCH   1  23
TORSDOF 7
ENDMDL
MODEL 8
REMARK VINA RESULT:      -6.6      2.528     10.153
REMARK  Name = 52918384
REMARK  7 active torsions:
REMARK  status: ('A' for Active; 'I' for Inactive)
REMARK    1  A    between atoms: N_1  and  N_23
REMARK    2  A    between atoms: C_24  and  C_26
REMARK    3  A    between atoms: C_26  and  C_27
REMARK    4  A    between atoms: C_26  and  C_33
REMARK    5  A    between atoms: C_27  and  C_28
REMARK    6  A    between atoms: C_33  and  N_35
REMARK    7  A    between atoms: N_35  and  O_37
REMARK                            x       y       z     vdW  Elec       q    Type
REMARK                         _______ _______ _______ _____ _____    ______ ____
ROOT
ATOM      1  N   UNL     1     -41.102  26.105   3.665  0.00  0.00    -0.238 N 
ATOM      2  H   UNL     1     -40.507  26.061   4.448  0.00  0.00    +0.172 HD
ATOM      3  F   UNL     1     -38.836  24.561   3.455  0.00  0.00    -0.219 F 
ATOM      4  O   UNL     1     -35.025  20.173   2.700  0.00  0.00    -0.358 OA
ATOM      5  N   UNL     1     -35.693  22.011   0.630  0.00  0.00    +0.394 N 
ATOM      6  N   UNL     1     -37.956  23.710   1.002  0.00  0.00    -0.288 N 
ATOM      7  N   UNL     1     -39.768  24.815  -0.042  0.00  0.00    -0.330 NA
ATOM      8  N   UNL     1     -41.361  26.027   1.301  0.00  0.00    -0.329 NA
ATOM      9  C   UNL     1     -36.438  21.988   1.903  0.00  0.00    -0.008 C 
ATOM     10  C   UNL     1     -37.898  22.416   1.689  0.00  0.00    +0.075 C 
ATOM     11  C   UNL     1     -35.711  23.359   0.054  0.00  0.00    -0.055 C 
ATOM     12  C   UNL     1     -37.145  23.820  -0.217  0.00  0.00    +0.070 C 
ATOM     13  C   UNL     1     -36.381  20.578   2.504  0.00  0.00    +0.123 C 
ATOM     14  C   UNL     1     -34.312  21.553   0.841  0.00  0.00    -0.044 C 
ATOM     15  C   UNL     1     -34.316  20.161   1.461  0.00  0.00    +0.119 C 
ATOM     16  C   UNL     1     -39.112  24.494   1.092  0.00  0.00    +0.213 C 
ATOM     17  C   UNL     1     -39.512  24.897   2.349  0.00  0.00    +0.295 C 
ATOM     18  C   UNL     1     -40.654  25.669   2.394  0.00  0.00    +0.226 C 
ATOM     19  C   UNL     1     -40.868  25.573   0.133  0.00  0.00    +0.117 C 
ATOM     20  C   UNL     1     -41.621  25.946  -1.098  0.00  0.00    +0.143 C 
ATOM     21  H   UNL     1     -36.145  21.375  -0.027  0.00  0.00    -0.079 HD
ENDROOT
BRANCH   1  23
ATOM     22  O   UNL     1     -41.619  28.604   4.649  0.00  0.00    -0.274 OA
ATOM     23  N   UNL     1     -42.365  26.586   3.784  0.00  0.00    -0.234 N 
ATOM     24  C   UNL     1     -42.531  27.861   4.292  0.00  0.00    +0.239 C 
ATOM     25  H   UNL     1     -43.141  26.042   3.516  0.00  0.00    +0.173 HD
BRANCH  24  26
ATOM     26  C   UNL     1     -44.006  28.272   4.347  0.00  0.00    +0.100 C 
BRANCH  26  27
ATOM     27  C   UNL     1     -44.825  27.655   3.200  0.00  0.00    +0.011 C 
BRANCH  27  28
ATOM     28  C   UNL     1     -46.005  26.842   3.704  0.00  0.00    +0.001 C 
ATOM     29  C   UNL     1     -45.988  25.394   3.224  0.00  0.00    +0.000 C 
ATOM     30  C   UNL     1     -46.020  26.681   5.222  0.00  0.00    +0.000 C 
ATOM     31  C   UNL     1     -46.968  25.511   5.458  0.00  0.00    +0.000 C 
ATOM     32  C   UNL     1     -46.939  24.675   4.177  0.00  0.00    +0.000 C 
ENDBRANCH  27  28
ENDBRANCH  26  27
BRANCH  26  33
ATOM     33  C   UNL     1     -44.121  29.803   4.357  0.00  0.00    +0.133 C 
BRANCH  33  35
ATOM     34  O   UNL     1     -46.585  30.238   5.804  0.00  0.00    -0.263 OA
ATOM     35  N   UNL     1     -44.274  30.351   5.678  0.00  0.00    -0.164 N 
ATOM     36  C   UNL     1     -45.489  30.517   6.278  0.00  0.00    +0.327 C 
BRANCH  35  37
ATOM     37  O   UNL     1     -43.064  30.698   6.297  0.00  0.00    -0.291 OA
ATOM     38  H   UNL     1     -42.322  30.398   5.748  0.00  0.00    +0.242 HD
ENDBRANCH  35  37
ENDBRANCH  33  35
ENDBRANCH  26  33
ENDBRANCH  24  26
ENDBRANCH   1  23
TORSDOF 7
ENDMDL
MODEL 9
REMARK VINA RESULT:      -6.6      6.820     10.201
REMARK  Name = 52918384
REMARK  7 active torsions:
REMARK  status: ('A' for Active; 'I' for Inactive)
REMARK    1  A    between atoms: N_1  and  N_23
REMARK    2  A    between atoms: C_24  and  C_26
REMARK    3  A    between atoms: C_26  and  C_27
REMARK    4  A    between atoms: C_26  and  C_33
REMARK    5  A    between atoms: C_27  and  C_28
REMARK    6  A    between atoms: C_33  and  N_35
REMARK    7  A    between atoms: N_35  and  O_37
REMARK                            x       y       z     vdW  Elec       q    Type
REMARK                         _______ _______ _______ _____ _____    ______ ____
ROOT
ATOM      1  N   UNL     1     -33.690  26.995   5.343  0.00  0.00    -0.238 N 
ATOM      2  H   UNL     1     -34.281  26.656   6.053  0.00  0.00    +0.172 HD
ATOM      3  F   UNL     1     -35.617  25.168   4.629  0.00  0.00    -0.219 F 
ATOM      4  O   UNL     1     -40.154  22.397   2.163  0.00  0.00    -0.358 OA
ATOM      5  N   UNL     1     -37.469  22.053   1.278  0.00  0.00    +0.394 N 
ATOM      6  N   UNL     1     -35.488  23.885   2.209  0.00  0.00    -0.288 N 
ATOM      7  N   UNL     1     -33.500  25.053   1.685  0.00  0.00    -0.330 NA
ATOM      8  N   UNL     1     -32.587  26.626   3.267  0.00  0.00    -0.329 NA
ATOM      9  C   UNL     1     -37.824  23.094   2.260  0.00  0.00    -0.008 C 
ATOM     10  C   UNL     1     -36.890  24.308   2.131  0.00  0.00    +0.075 C 
ATOM     11  C   UNL     1     -36.087  21.609   1.483  0.00  0.00    -0.055 C 
ATOM     12  C   UNL     1     -35.109  22.776   1.326  0.00  0.00    +0.070 C 
ATOM     13  C   UNL     1     -39.282  23.522   2.049  0.00  0.00    +0.123 C 
ATOM     14  C   UNL     1     -38.400  20.920   1.380  0.00  0.00    -0.044 C 
ATOM     15  C   UNL     1     -39.832  21.406   1.187  0.00  0.00    +0.119 C 
ATOM     16  C   UNL     1     -34.500  24.813   2.557  0.00  0.00    +0.213 C 
ATOM     17  C   UNL     1     -34.611  25.430   3.786  0.00  0.00    +0.295 C 
ATOM     18  C   UNL     1     -33.616  26.337   4.091  0.00  0.00    +0.226 C 
ATOM     19  C   UNL     1     -32.591  25.957   2.097  0.00  0.00    +0.117 C 
ATOM     20  C   UNL     1     -31.470  26.250   1.159  0.00  0.00    +0.143 C 
ATOM     21  H   UNL     1     -37.544  22.447   0.340  0.00  0.00    -0.079 HD
ENDROOT
BRANCH   1  23
ATOM     22  O   UNL     1     -31.563  27.000   7.063  0.00  0.00    -0.274 OA
ATOM     23  N   UNL     1     -32.930  28.100   5.546  0.00  0.00    -0.234 N 
ATOM     24  C   UNL     1     -31.873  28.010   6.435  0.00  0.00    +0.239 C 
ATOM     25  H   UNL     1     -33.125  28.942   5.074  0.00  0.00    +0.173 HD
BRANCH  24  26
ATOM     26  C   UNL     1     -31.098  29.326   6.543  0.00  0.00    +0.100 C 
BRANCH  26  27
ATOM     27  C   UNL     1     -31.766  30.463   5.749  0.00  0.00    +0.011 C 
BRANCH  27  28
ATOM     28  C   UNL     1     -31.040  30.764   4.450  0.00  0.00    +0.001 C 
ATOM     29  C   UNL     1     -31.817  30.328   3.211  0.00  0.00    +0.000 C 
ATOM     30  C   UNL     1     -30.845  32.257   4.201  0.00  0.00    +0.000 C 
ATOM     31  C   UNL     1     -30.533  32.344   2.711  0.00  0.00    +0.000 C 
ATOM     32  C   UNL     1     -31.169  31.108   2.071  0.00  0.00    +0.000 C 
ENDBRANCH  27  28
ENDBRANCH  26  27
BRANCH  26  33
ATOM     33  C   UNL     1     -29.643  29.113   6.100  0.00  0.00    +0.133 C 
BRANCH  33  35
ATOM     34  O   UNL     1     -28.063  26.699   5.924  0.00  0.00    -0.263 OA
ATOM     35  N   UNL     1     -28.819  28.531   7.125  0.00  0.00    -0.164 N 
ATOM     36  C   UNL     1     -28.106  27.380   6.942  0.00  0.00    +0.327 C 
BRANCH  35  37
ATOM     37  O   UNL     1     -28.810  29.250   8.329  0.00  0.00    -0.291 OA
ATOM     38  H   UNL     1     -28.683  28.637   9.071  0.00  0.00    +0.242 HD
ENDBRANCH  35  37
ENDBRANCH  33  35
ENDBRANCH  26  33
ENDBRANCH  24  26
ENDBRANCH   1  23
TORSDOF 7
ENDMDL
