MODEL 1
REMARK VINA RESULT:      -6.4      0.000      0.000
REMARK  Name = 5317284
REMARK  6 active torsions:
REMARK  status: ('A' for Active; 'I' for Inactive)
REMARK    1  A    between atoms: C_5  and  C_12
REMARK    2  A    between atoms: C_6  and  O_24
REMARK    3  A    between atoms: C_10  and  O_22
REMARK    4  A    between atoms: C_11  and  O_26
REMARK    5  A    between atoms: C_15  and  O_18
REMARK    6  A    between atoms: C_17  and  O_20
REMARK                            x       y       z     vdW  Elec       q    Type
REMARK                         _______ _______ _______ _____ _____    ______ ____
ROOT
ATOM      1  O   UNL     1     -33.421  26.204   4.855  0.00  0.00    -0.453 OA
ATOM      2  O   UNL     1     -33.903  28.885   1.826  0.00  0.00    -0.286 OA
ATOM      3  C   UNL     1     -33.034  28.435   3.977  0.00  0.00    +0.110 C 
ATOM      4  C   UNL     1     -32.904  27.469   4.973  0.00  0.00    +0.154 C 
ATOM      5  C   UNL     1     -34.109  25.876   3.697  0.00  0.00    +0.149 C 
ATOM      6  C   UNL     1     -32.486  29.708   4.151  0.00  0.00    +0.177 C 
ATOM      7  C   UNL     1     -33.754  28.089   2.742  0.00  0.00    +0.205 C 
ATOM      8  C   UNL     1     -34.294  26.716   2.665  0.00  0.00    +0.080 C 
ATOM      9  C   UNL     1     -32.225  27.772   6.153  0.00  0.00    +0.078 C 
ATOM     10  C   UNL     1     -31.806  30.007   5.332  0.00  0.00    +0.206 C 
ATOM     11  C   UNL     1     -31.676  29.041   6.331  0.00  0.00    +0.174 C 
ENDROOT
BRANCH   5  12
ATOM     12  C   UNL     1     -34.617  24.490   3.671  0.00  0.00    +0.038 C 
ATOM     13  C   UNL     1     -35.077  23.890   4.846  0.00  0.00    +0.043 C 
ATOM     14  C   UNL     1     -34.639  23.773   2.473  0.00  0.00    +0.006 C 
ATOM     15  C   UNL     1     -35.557  22.580   4.823  0.00  0.00    +0.168 C 
ATOM     16  C   UNL     1     -35.119  22.464   2.449  0.00  0.00    +0.040 C 
ATOM     17  C   UNL     1     -35.577  21.867   3.623  0.00  0.00    +0.167 C 
BRANCH  15  18
ATOM     18  O   UNL     1     -36.003  22.009   5.976  0.00  0.00    -0.503 OA
ATOM     19  H   UNL     1     -35.579  22.202   6.789  0.00  0.00    +0.292 HD
ENDBRANCH  15  18
BRANCH  17  20
ATOM     20  O   UNL     1     -36.045  20.587   3.587  0.00  0.00    -0.503 OA
ATOM     21  H   UNL     1     -35.463  19.882   3.384  0.00  0.00    +0.292 HD
ENDBRANCH  17  20
ENDBRANCH   5  12
BRANCH  10  22
ATOM     22  O   UNL     1     -31.267  31.247   5.515  0.00  0.00    -0.465 OA
ATOM     23  C   UNL     1     -29.977  31.479   4.955  0.00  0.00    +0.253 C 
ENDBRANCH  10  22
BRANCH   6  24
ATOM     24  O   UNL     1     -32.594  30.677   3.199  0.00  0.00    -0.503 OA
ATOM     25  H   UNL     1     -33.401  30.795   2.739  0.00  0.00    +0.292 HD
ENDBRANCH   6  24
BRANCH  11  26
ATOM     26  O   UNL     1     -31.014  29.327   7.488  0.00  0.00    -0.503 OA
ATOM     27  H   UNL     1     -30.975  28.691   8.174  0.00  0.00    +0.292 HD
ENDBRANCH  11  26
TORSDOF 6
ENDMDL
MODEL 2
REMARK VINA RESULT:      -6.3      4.730      9.583
REMARK  Name = 5317284
REMARK  6 active torsions:
REMARK  status: ('A' for Active; 'I' for Inactive)
REMARK    1  A    between atoms: C_5  and  C_12
REMARK    2  A    between atoms: C_6  and  O_24
REMARK    3  A    between atoms: C_10  and  O_22
REMARK    4  A    between atoms: C_11  and  O_26
REMARK    5  A    between atoms: C_15  and  O_18
REMARK    6  A    between atoms: C_17  and  O_20
REMARK                            x       y       z     vdW  Elec       q    Type
REMARK                         _______ _______ _______ _____ _____    ______ ____
ROOT
ATOM      1  O   UNL     1     -35.057  21.023   2.404  0.00  0.00    -0.453 OA
ATOM      2  O   UNL     1     -38.192  19.945   0.036  0.00  0.00    -0.286 OA
ATOM      3  C   UNL     1     -35.974  19.519   0.731  0.00  0.00    +0.110 C 
ATOM      4  C   UNL     1     -34.942  19.942   1.568  0.00  0.00    +0.154 C 
ATOM      5  C   UNL     1     -36.250  21.730   2.409  0.00  0.00    +0.149 C 
ATOM      6  C   UNL     1     -35.801  18.410  -0.100  0.00  0.00    +0.177 C 
ATOM      7  C   UNL     1     -37.244  20.261   0.741  0.00  0.00    +0.205 C 
ATOM      8  C   UNL     1     -37.317  21.418   1.656  0.00  0.00    +0.080 C 
ATOM      9  C   UNL     1     -33.729  19.255   1.578  0.00  0.00    +0.078 C 
ATOM     10  C   UNL     1     -34.586  17.725  -0.087  0.00  0.00    +0.206 C 
ATOM     11  C   UNL     1     -33.552  18.147   0.750  0.00  0.00    +0.174 C 
ENDROOT
BRANCH   5  12
ATOM     12  C   UNL     1     -36.269  22.869   3.349  0.00  0.00    +0.038 C 
ATOM     13  C   UNL     1     -37.105  23.962   3.109  0.00  0.00    +0.043 C 
ATOM     14  C   UNL     1     -35.449  22.860   4.480  0.00  0.00    +0.006 C 
ATOM     15  C   UNL     1     -37.123  25.039   3.996  0.00  0.00    +0.168 C 
ATOM     16  C   UNL     1     -35.467  23.936   5.366  0.00  0.00    +0.040 C 
ATOM     17  C   UNL     1     -36.303  25.025   5.125  0.00  0.00    +0.167 C 
BRANCH  15  18
ATOM     18  O   UNL     1     -37.945  26.097   3.750  0.00  0.00    -0.503 OA
ATOM     19  H   UNL     1     -38.817  25.950   3.440  0.00  0.00    +0.292 HD
ENDBRANCH  15  18
BRANCH  17  20
ATOM     20  O   UNL     1     -36.312  26.070   6.000  0.00  0.00    -0.503 OA
ATOM     21  H   UNL     1     -35.876  26.869   5.779  0.00  0.00    +0.292 HD
ENDBRANCH  17  20
ENDBRANCH   5  12
BRANCH  10  22
ATOM     22  O   UNL     1     -34.404  16.640  -0.894  0.00  0.00    -0.465 OA
ATOM     23  C   UNL     1     -34.808  15.375  -0.376  0.00  0.00    +0.253 C 
ENDBRANCH  10  22
BRANCH   6  24
ATOM     24  O   UNL     1     -36.787  17.970  -0.931  0.00  0.00    -0.503 OA
ATOM     25  H   UNL     1     -37.245  18.576  -1.479  0.00  0.00    +0.292 HD
ENDBRANCH   6  24
BRANCH  11  26
ATOM     26  O   UNL     1     -32.361  17.483   0.768  0.00  0.00    -0.503 OA
ATOM     27  H   UNL     1     -31.650  17.783   0.237  0.00  0.00    +0.292 HD
ENDBRANCH  11  26
TORSDOF 6
ENDMDL
MODEL 3
REMARK VINA RESULT:      -6.3      4.580     10.046
REMARK  Name = 5317284
REMARK  6 active torsions:
REMARK  status: ('A' for Active; 'I' for Inactive)
REMARK    1  A    between atoms: C_5  and  C_12
REMARK    2  A    between atoms: C_6  and  O_24
REMARK    3  A    between atoms: C_10  and  O_22
REMARK    4  A    between atoms: C_11  and  O_26
REMARK    5  A    between atoms: C_15  and  O_18
REMARK    6  A    between atoms: C_17  and  O_20
REMARK                            x       y       z     vdW  Elec       q    Type
REMARK                         _______ _______ _______ _____ _____    ______ ____
ROOT
ATOM      1  O   UNL     1     -37.381  21.716   1.801  0.00  0.00    -0.453 OA
ATOM      2  O   UNL     1     -34.152  19.236   1.633  0.00  0.00    -0.286 OA
ATOM      3  C   UNL     1     -36.348  19.710   0.899  0.00  0.00    +0.110 C 
ATOM      4  C   UNL     1     -37.416  20.601   1.002  0.00  0.00    +0.154 C 
ATOM      5  C   UNL     1     -36.235  21.961   2.544  0.00  0.00    +0.149 C 
ATOM      6  C   UNL     1     -36.439  18.591   0.069  0.00  0.00    +0.177 C 
ATOM      7  C   UNL     1     -35.128  19.972   1.678  0.00  0.00    +0.205 C 
ATOM      8  C   UNL     1     -35.141  21.183   2.524  0.00  0.00    +0.080 C 
ATOM      9  C   UNL     1     -38.583  20.376   0.274  0.00  0.00    +0.078 C 
ATOM     10  C   UNL     1     -37.609  18.369  -0.659  0.00  0.00    +0.206 C 
ATOM     11  C   UNL     1     -38.678  19.260  -0.557  0.00  0.00    +0.174 C 
ENDROOT
BRANCH   5  12
ATOM     12  C   UNL     1     -36.302  23.188   3.362  0.00  0.00    +0.038 C 
ATOM     13  C   UNL     1     -37.241  24.178   3.067  0.00  0.00    +0.043 C 
ATOM     14  C   UNL     1     -35.425  23.364   4.435  0.00  0.00    +0.006 C 
ATOM     15  C   UNL     1     -37.304  25.339   3.839  0.00  0.00    +0.168 C 
ATOM     16  C   UNL     1     -35.488  24.523   5.208  0.00  0.00    +0.040 C 
ATOM     17  C   UNL     1     -36.427  25.510   4.910  0.00  0.00    +0.167 C 
BRANCH  15  18
ATOM     18  O   UNL     1     -38.227  26.295   3.539  0.00  0.00    -0.503 OA
ATOM     19  H   UNL     1     -38.373  27.006   4.131  0.00  0.00    +0.292 HD
ENDBRANCH  15  18
BRANCH  17  20
ATOM     20  O   UNL     1     -36.479  26.638   5.674  0.00  0.00    -0.503 OA
ATOM     21  H   UNL     1     -36.059  26.657   6.510  0.00  0.00    +0.292 HD
ENDBRANCH  17  20
ENDBRANCH   5  12
BRANCH  10  22
ATOM     22  O   UNL     1     -37.710  17.280  -1.474  0.00  0.00    -0.465 OA
ATOM     23  C   UNL     1     -38.264  16.096  -0.904  0.00  0.00    +0.253 C 
ENDBRANCH  10  22
BRANCH   6  24
ATOM     24  O   UNL     1     -35.416  17.699  -0.056  0.00  0.00    -0.503 OA
ATOM     25  H   UNL     1     -35.479  16.855   0.345  0.00  0.00    +0.292 HD
ENDBRANCH   6  24
BRANCH  11  26
ATOM     26  O   UNL     1     -39.825  19.049  -1.265  0.00  0.00    -0.503 OA
ATOM     27  H   UNL     1     -40.638  18.937  -0.815  0.00  0.00    +0.292 HD
ENDBRANCH  11  26
TORSDOF 6
ENDMDL
MODEL 4
REMARK VINA RESULT:      -6.3      2.085      7.028
REMARK  Name = 5317284
REMARK  6 active torsions:
REMARK  status: ('A' for Active; 'I' for Inactive)
REMARK    1  A    between atoms: C_5  and  C_12
REMARK    2  A    between atoms: C_6  and  O_24
REMARK    3  A    between atoms: C_10  and  O_22
REMARK    4  A    between atoms: C_11  and  O_26
REMARK    5  A    between atoms: C_15  and  O_18
REMARK    6  A    between atoms: C_17  and  O_20
REMARK                            x       y       z     vdW  Elec       q    Type
REMARK                         _______ _______ _______ _____ _____    ______ ____
ROOT
ATOM      1  O   UNL     1     -32.978  26.728   5.075  0.00  0.00    -0.453 OA
ATOM      2  O   UNL     1     -35.428  28.516   2.354  0.00  0.00    -0.286 OA
ATOM      3  C   UNL     1     -35.075  26.720   3.849  0.00  0.00    +0.110 C 
ATOM      4  C   UNL     1     -34.190  26.162   4.771  0.00  0.00    +0.154 C 
ATOM      5  C   UNL     1     -32.616  27.901   4.431  0.00  0.00    +0.149 C 
ATOM      6  C   UNL     1     -36.298  26.101   3.578  0.00  0.00    +0.177 C 
ATOM      7  C   UNL     1     -34.699  27.970   3.171  0.00  0.00    +0.205 C 
ATOM      8  C   UNL     1     -33.384  28.537   3.531  0.00  0.00    +0.080 C 
ATOM      9  C   UNL     1     -34.524  24.979   5.428  0.00  0.00    +0.078 C 
ATOM     10  C   UNL     1     -36.628  24.916   4.238  0.00  0.00    +0.206 C 
ATOM     11  C   UNL     1     -35.743  24.357   5.161  0.00  0.00    +0.174 C 
ENDROOT
BRANCH   5  12
ATOM     12  C   UNL     1     -31.297  28.426   4.836  0.00  0.00    +0.038 C 
ATOM     13  C   UNL     1     -31.001  28.610   6.189  0.00  0.00    +0.043 C 
ATOM     14  C   UNL     1     -30.340  28.743   3.870  0.00  0.00    +0.006 C 
ATOM     15  C   UNL     1     -29.755  29.107   6.573  0.00  0.00    +0.168 C 
ATOM     16  C   UNL     1     -29.095  29.240   4.253  0.00  0.00    +0.040 C 
ATOM     17  C   UNL     1     -28.802  29.421   5.604  0.00  0.00    +0.167 C 
BRANCH  15  18
ATOM     18  O   UNL     1     -29.481  29.279   7.897  0.00  0.00    -0.503 OA
ATOM     19  H   UNL     1     -28.638  29.047   8.234  0.00  0.00    +0.292 HD
ENDBRANCH  15  18
BRANCH  17  20
ATOM     20  O   UNL     1     -27.581  29.906   5.967  0.00  0.00    -0.503 OA
ATOM     21  H   UNL     1     -27.388  30.817   5.861  0.00  0.00    +0.292 HD
ENDBRANCH  17  20
ENDBRANCH   5  12
BRANCH  10  22
ATOM     22  O   UNL     1     -37.819  24.301   3.983  0.00  0.00    -0.465 OA
ATOM     23  C   UNL     1     -37.844  23.360   2.913  0.00  0.00    +0.253 C 
ENDBRANCH  10  22
BRANCH   6  24
ATOM     24  O   UNL     1     -37.187  26.617   2.684  0.00  0.00    -0.503 OA
ATOM     25  H   UNL     1     -37.773  26.049   2.225  0.00  0.00    +0.292 HD
ENDBRANCH   6  24
BRANCH  11  26
ATOM     26  O   UNL     1     -36.060  23.199   5.809  0.00  0.00    -0.503 OA
ATOM     27  H   UNL     1     -36.803  23.170   6.378  0.00  0.00    +0.292 HD
ENDBRANCH  11  26
TORSDOF 6
ENDMDL
MODEL 5
REMARK VINA RESULT:      -6.2      2.404      3.704
REMARK  Name = 5317284
REMARK  6 active torsions:
REMARK  status: ('A' for Active; 'I' for Inactive)
REMARK    1  A    between atoms: C_5  and  C_12
REMARK    2  A    between atoms: C_6  and  O_24
REMARK    3  A    between atoms: C_10  and  O_22
REMARK    4  A    between atoms: C_11  and  O_26
REMARK    5  A    between atoms: C_15  and  O_18
REMARK    6  A    between atoms: C_17  and  O_20
REMARK                            x       y       z     vdW  Elec       q    Type
REMARK                         _______ _______ _______ _____ _____    ______ ____
ROOT
ATOM      1  O   UNL     1     -34.839  26.362   3.543  0.00  0.00    -0.453 OA
ATOM      2  O   UNL     1     -38.054  27.334   1.237  0.00  0.00    -0.286 OA
ATOM      3  C   UNL     1     -35.982  27.999   2.159  0.00  0.00    +0.110 C 
ATOM      4  C   UNL     1     -34.911  27.601   2.958  0.00  0.00    +0.154 C 
ATOM      5  C   UNL     1     -35.881  25.471   3.336  0.00  0.00    +0.149 C 
ATOM      6  C   UNL     1     -36.003  29.273   1.588  0.00  0.00    +0.177 C 
ATOM      7  C   UNL     1     -37.085  27.054   1.929  0.00  0.00    +0.205 C 
ATOM      8  C   UNL     1     -36.962  25.735   2.582  0.00  0.00    +0.080 C 
ATOM      9  C   UNL     1     -33.852  28.478   3.190  0.00  0.00    +0.078 C 
ATOM     10  C   UNL     1     -34.941  30.148   1.822  0.00  0.00    +0.206 C 
ATOM     11  C   UNL     1     -33.869  29.751   2.622  0.00  0.00    +0.174 C 
ENDROOT
BRANCH   5  12
ATOM     12  C   UNL     1     -35.699  24.168   4.004  0.00  0.00    +0.038 C 
ATOM     13  C   UNL     1     -35.873  22.982   3.287  0.00  0.00    +0.043 C 
ATOM     14  C   UNL     1     -35.352  24.114   5.356  0.00  0.00    +0.006 C 
ATOM     15  C   UNL     1     -35.702  21.749   3.919  0.00  0.00    +0.168 C 
ATOM     16  C   UNL     1     -35.181  22.883   5.987  0.00  0.00    +0.040 C 
ATOM     17  C   UNL     1     -35.355  21.701   5.269  0.00  0.00    +0.167 C 
BRANCH  15  18
ATOM     18  O   UNL     1     -35.875  20.601   3.206  0.00  0.00    -0.503 OA
ATOM     19  H   UNL     1     -36.687  20.137   3.255  0.00  0.00    +0.292 HD
ENDBRANCH  15  18
BRANCH  17  20
ATOM     20  O   UNL     1     -35.184  20.503   5.897  0.00  0.00    -0.503 OA
ATOM     21  H   UNL     1     -34.438  20.366   6.446  0.00  0.00    +0.292 HD
ENDBRANCH  17  20
ENDBRANCH   5  12
BRANCH  10  22
ATOM     22  O   UNL     1     -34.949  31.396   1.270  0.00  0.00    -0.465 OA
ATOM     23  C   UNL     1     -34.328  31.542  -0.005  0.00  0.00    +0.253 C 
ENDBRANCH  10  22
BRANCH   6  24
ATOM     24  O   UNL     1     -37.033  29.696   0.802  0.00  0.00    -0.503 OA
ATOM     25  H   UNL     1     -37.441  30.522   0.969  0.00  0.00    +0.292 HD
ENDBRANCH   6  24
BRANCH  11  26
ATOM     26  O   UNL     1     -32.828  30.601   2.856  0.00  0.00    -0.503 OA
ATOM     27  H   UNL     1     -32.865  31.199   3.576  0.00  0.00    +0.292 HD
ENDBRANCH  11  26
TORSDOF 6
ENDMDL
MODEL 6
REMARK VINA RESULT:      -6.2      3.054      8.264
REMARK  Name = 5317284
REMARK  6 active torsions:
REMARK  status: ('A' for Active; 'I' for Inactive)
REMARK    1  A    between atoms: C_5  and  C_12
REMARK    2  A    between atoms: C_6  and  O_24
REMARK    3  A    between atoms: C_10  and  O_22
REMARK    4  A    between atoms: C_11  and  O_26
REMARK    5  A    between atoms: C_15  and  O_18
REMARK    6  A    between atoms: C_17  and  O_20
REMARK                            x       y       z     vdW  Elec       q    Type
REMARK                         _______ _______ _______ _____ _____    ______ ____
ROOT
ATOM      1  O   UNL     1     -36.555  25.114   3.432  0.00  0.00    -0.453 OA
ATOM      2  O   UNL     1     -35.477  21.192   3.195  0.00  0.00    -0.286 OA
ATOM      3  C   UNL     1     -37.154  22.826   2.876  0.00  0.00    +0.110 C 
ATOM      4  C   UNL     1     -37.456  24.183   2.980  0.00  0.00    +0.154 C 
ATOM      5  C   UNL     1     -35.292  24.683   3.807  0.00  0.00    +0.149 C 
ATOM      6  C   UNL     1     -38.111  21.922   2.409  0.00  0.00    +0.177 C 
ATOM      7  C   UNL     1     -35.812  22.366   3.264  0.00  0.00    +0.205 C 
ATOM      8  C   UNL     1     -34.880  23.406   3.746  0.00  0.00    +0.080 C 
ATOM      9  C   UNL     1     -38.721  24.645   2.617  0.00  0.00    +0.078 C 
ATOM     10  C   UNL     1     -39.376  22.388   2.046  0.00  0.00    +0.206 C 
ATOM     11  C   UNL     1     -39.680  23.746   2.150  0.00  0.00    +0.174 C 
ENDROOT
BRANCH   5  12
ATOM     12  C   UNL     1     -34.402  25.766   4.271  0.00  0.00    +0.038 C 
ATOM     13  C   UNL     1     -34.045  25.852   5.619  0.00  0.00    +0.043 C 
ATOM     14  C   UNL     1     -33.912  26.708   3.364  0.00  0.00    +0.006 C 
ATOM     15  C   UNL     1     -33.204  26.875   6.058  0.00  0.00    +0.168 C 
ATOM     16  C   UNL     1     -33.071  27.731   3.802  0.00  0.00    +0.040 C 
ATOM     17  C   UNL     1     -32.717  27.814   5.148  0.00  0.00    +0.167 C 
BRANCH  15  18
ATOM     18  O   UNL     1     -32.865  26.946   7.375  0.00  0.00    -0.503 OA
ATOM     19  H   UNL     1     -33.262  26.363   7.993  0.00  0.00    +0.292 HD
ENDBRANCH  15  18
BRANCH  17  20
ATOM     20  O   UNL     1     -31.893  28.818   5.564  0.00  0.00    -0.503 OA
ATOM     21  H   UNL     1     -32.176  29.709   5.508  0.00  0.00    +0.292 HD
ENDBRANCH  17  20
ENDBRANCH   5  12
BRANCH  10  22
ATOM     22  O   UNL     1     -40.320  21.516   1.588  0.00  0.00    -0.465 OA
ATOM     23  C   UNL     1     -40.361  21.288   0.182  0.00  0.00    +0.253 C 
ENDBRANCH  10  22
BRANCH   6  24
ATOM     24  O   UNL     1     -37.851  20.590   2.294  0.00  0.00    -0.503 OA
ATOM     25  H   UNL     1     -36.986  20.266   2.446  0.00  0.00    +0.292 HD
ENDBRANCH   6  24
BRANCH  11  26
ATOM     26  O   UNL     1     -40.914  24.208   1.798  0.00  0.00    -0.503 OA
ATOM     27  H   UNL     1     -41.220  24.101   0.919  0.00  0.00    +0.292 HD
ENDBRANCH  11  26
TORSDOF 6
ENDMDL
MODEL 7
REMARK VINA RESULT:      -6.1      5.409      7.654
REMARK  Name = 5317284
REMARK  6 active torsions:
REMARK  status: ('A' for Active; 'I' for Inactive)
REMARK    1  A    between atoms: C_5  and  C_12
REMARK    2  A    between atoms: C_6  and  O_24
REMARK    3  A    between atoms: C_10  and  O_22
REMARK    4  A    between atoms: C_11  and  O_26
REMARK    5  A    between atoms: C_15  and  O_18
REMARK    6  A    between atoms: C_17  and  O_20
REMARK                            x       y       z     vdW  Elec       q    Type
REMARK                         _______ _______ _______ _____ _____    ______ ____
ROOT
ATOM      1  O   UNL     1     -35.237  22.252   2.048  0.00  0.00    -0.453 OA
ATOM      2  O   UNL     1     -38.800  20.769   0.740  0.00  0.00    -0.286 OA
ATOM      3  C   UNL     1     -37.661  22.408   2.006  0.00  0.00    +0.110 C 
ATOM      4  C   UNL     1     -36.408  22.863   2.416  0.00  0.00    +0.154 C 
ATOM      5  C   UNL     1     -35.304  21.127   1.239  0.00  0.00    +0.149 C 
ATOM      6  C   UNL     1     -38.822  23.070   2.412  0.00  0.00    +0.177 C 
ATOM      7  C   UNL     1     -37.736  21.221   1.140  0.00  0.00    +0.205 C 
ATOM      8  C   UNL     1     -36.448  20.598   0.774  0.00  0.00    +0.080 C 
ATOM      9  C   UNL     1     -36.310  23.987   3.236  0.00  0.00    +0.078 C 
ATOM     10  C   UNL     1     -38.719  24.195   3.232  0.00  0.00    +0.206 C 
ATOM     11  C   UNL     1     -37.466  24.652   3.643  0.00  0.00    +0.174 C 
ENDROOT
BRANCH   5  12
ATOM     12  C   UNL     1     -33.987  20.553   0.898  0.00  0.00    +0.038 C 
ATOM     13  C   UNL     1     -33.608  19.313   1.416  0.00  0.00    +0.043 C 
ATOM     14  C   UNL     1     -33.115  21.248   0.057  0.00  0.00    +0.006 C 
ATOM     15  C   UNL     1     -32.363  18.770   1.095  0.00  0.00    +0.168 C 
ATOM     16  C   UNL     1     -31.871  20.706  -0.265  0.00  0.00    +0.040 C 
ATOM     17  C   UNL     1     -31.495  19.467   0.254  0.00  0.00    +0.167 C 
BRANCH  15  18
ATOM     18  O   UNL     1     -32.008  17.558   1.607  0.00  0.00    -0.503 OA
ATOM     19  H   UNL     1     -32.598  17.097   2.169  0.00  0.00    +0.292 HD
ENDBRANCH  15  18
BRANCH  17  20
ATOM     20  O   UNL     1     -30.277  18.947  -0.069  0.00  0.00    -0.503 OA
ATOM     21  H   UNL     1     -29.594  18.924   0.571  0.00  0.00    +0.292 HD
ENDBRANCH  17  20
ENDBRANCH   5  12
BRANCH  10  22
ATOM     22  O   UNL     1     -39.845  24.851   3.635  0.00  0.00    -0.465 OA
ATOM     23  C   UNL     1     -40.283  25.940   2.826  0.00  0.00    +0.253 C 
ENDBRANCH  10  22
BRANCH   6  24
ATOM     24  O   UNL     1     -40.062  22.654   2.031  0.00  0.00    -0.503 OA
ATOM     25  H   UNL     1     -40.793  23.234   2.102  0.00  0.00    +0.292 HD
ENDBRANCH   6  24
BRANCH  11  26
ATOM     26  O   UNL     1     -37.359  25.749   4.446  0.00  0.00    -0.503 OA
ATOM     27  H   UNL     1     -36.521  26.008   4.774  0.00  0.00    +0.292 HD
ENDBRANCH  11  26
TORSDOF 6
ENDMDL
MODEL 8
REMARK VINA RESULT:      -6.1      5.876      7.551
REMARK  Name = 5317284
REMARK  6 active torsions:
REMARK  status: ('A' for Active; 'I' for Inactive)
REMARK    1  A    between atoms: C_5  and  C_12
REMARK    2  A    between atoms: C_6  and  O_24
REMARK    3  A    between atoms: C_10  and  O_22
REMARK    4  A    between atoms: C_11  and  O_26
REMARK    5  A    between atoms: C_15  and  O_18
REMARK    6  A    between atoms: C_17  and  O_20
REMARK                            x       y       z     vdW  Elec       q    Type
REMARK                         _______ _______ _______ _____ _____    ______ ____
ROOT
ATOM      1  O   UNL     1     -36.500  21.775   0.995  0.00  0.00    -0.453 OA
ATOM      2  O   UNL     1     -36.177  22.859   4.910  0.00  0.00    -0.286 OA
ATOM      3  C   UNL     1     -37.078  23.325   2.775  0.00  0.00    +0.110 C 
ATOM      4  C   UNL     1     -37.148  22.896   1.450  0.00  0.00    +0.154 C 
ATOM      5  C   UNL     1     -35.739  21.042   1.893  0.00  0.00    +0.149 C 
ATOM      6  C   UNL     1     -37.758  24.474   3.183  0.00  0.00    +0.177 C 
ATOM      7  C   UNL     1     -36.279  22.544   3.732  0.00  0.00    +0.205 C 
ATOM      8  C   UNL     1     -35.600  21.348   3.194  0.00  0.00    +0.080 C 
ATOM      9  C   UNL     1     -37.899  23.618   0.524  0.00  0.00    +0.078 C 
ATOM     10  C   UNL     1     -38.510  25.193   2.253  0.00  0.00    +0.206 C 
ATOM     11  C   UNL     1     -38.580  24.766   0.927  0.00  0.00    +0.174 C 
ENDROOT
BRANCH   5  12
ATOM     12  C   UNL     1     -35.092  19.854   1.301  0.00  0.00    +0.038 C 
ATOM     13  C   UNL     1     -33.851  19.422   1.775  0.00  0.00    +0.043 C 
ATOM     14  C   UNL     1     -35.718  19.157   0.265  0.00  0.00    +0.006 C 
ATOM     15  C   UNL     1     -33.239  18.300   1.216  0.00  0.00    +0.168 C 
ATOM     16  C   UNL     1     -35.107  18.035  -0.294  0.00  0.00    +0.040 C 
ATOM     17  C   UNL     1     -33.868  17.607   0.181  0.00  0.00    +0.167 C 
BRANCH  15  18
ATOM     18  O   UNL     1     -32.029  17.890   1.689  0.00  0.00    -0.503 OA
ATOM     19  H   UNL     1     -31.407  18.521   1.994  0.00  0.00    +0.292 HD
ENDBRANCH  15  18
BRANCH  17  20
ATOM     20  O   UNL     1     -33.281  16.508  -0.372  0.00  0.00    -0.503 OA
ATOM     21  H   UNL     1     -33.262  15.699   0.100  0.00  0.00    +0.292 HD
ENDBRANCH  17  20
ENDBRANCH   5  12
BRANCH  10  22
ATOM     22  O   UNL     1     -39.180  26.318   2.639  0.00  0.00    -0.465 OA
ATOM     23  C   UNL     1     -40.548  26.161   3.007  0.00  0.00    +0.253 C 
ENDBRANCH  10  22
BRANCH   6  24
ATOM     24  O   UNL     1     -37.713  24.922   4.469  0.00  0.00    -0.503 OA
ATOM     25  H   UNL     1     -37.167  25.650   4.693  0.00  0.00    +0.292 HD
ENDBRANCH   6  24
BRANCH  11  26
ATOM     26  O   UNL     1     -39.313  25.464   0.012  0.00  0.00    -0.503 OA
ATOM     27  H   UNL     1     -40.248  25.404   0.018  0.00  0.00    +0.292 HD
ENDBRANCH  11  26
TORSDOF 6
ENDMDL
MODEL 9
REMARK VINA RESULT:      -6.0      2.683      4.894
REMARK  Name = 5317284
REMARK  6 active torsions:
REMARK  status: ('A' for Active; 'I' for Inactive)
REMARK    1  A    between atoms: C_5  and  C_12
REMARK    2  A    between atoms: C_6  and  O_24
REMARK    3  A    between atoms: C_10  and  O_22
REMARK    4  A    between atoms: C_11  and  O_26
REMARK    5  A    between atoms: C_15  and  O_18
REMARK    6  A    between atoms: C_17  and  O_20
REMARK                            x       y       z     vdW  Elec       q    Type
REMARK                         _______ _______ _______ _____ _____    ______ ____
ROOT
ATOM      1  O   UNL     1     -36.303  25.812   2.619  0.00  0.00    -0.453 OA
ATOM      2  O   UNL     1     -33.717  28.790   3.640  0.00  0.00    -0.286 OA
ATOM      3  C   UNL     1     -35.527  28.090   2.291  0.00  0.00    +0.110 C 
ATOM      4  C   UNL     1     -36.381  27.030   1.992  0.00  0.00    +0.154 C 
ATOM      5  C   UNL     1     -35.328  25.628   3.587  0.00  0.00    +0.149 C 
ATOM      6  C   UNL     1     -35.651  29.310   1.621  0.00  0.00    +0.177 C 
ATOM      7  C   UNL     1     -34.497  27.902   3.324  0.00  0.00    +0.205 C 
ATOM      8  C   UNL     1     -34.453  26.573   3.967  0.00  0.00    +0.080 C 
ATOM      9  C   UNL     1     -37.366  27.183   1.017  0.00  0.00    +0.078 C 
ATOM     10  C   UNL     1     -36.640  29.459   0.647  0.00  0.00    +0.206 C 
ATOM     11  C   UNL     1     -37.495  28.399   0.346  0.00  0.00    +0.174 C 
ENDROOT
BRANCH   5  12
ATOM     12  C   UNL     1     -35.337  24.286   4.201  0.00  0.00    +0.038 C 
ATOM     13  C   UNL     1     -35.574  23.156   3.414  0.00  0.00    +0.043 C 
ATOM     14  C   UNL     1     -35.110  24.139   5.571  0.00  0.00    +0.006 C 
ATOM     15  C   UNL     1     -35.584  21.887   3.994  0.00  0.00    +0.168 C 
ATOM     16  C   UNL     1     -35.120  22.871   6.151  0.00  0.00    +0.040 C 
ATOM     17  C   UNL     1     -35.356  21.745   5.363  0.00  0.00    +0.167 C 
BRANCH  15  18
ATOM     18  O   UNL     1     -35.815  20.794   3.214  0.00  0.00    -0.503 OA
ATOM     19  H   UNL     1     -36.069  20.904   2.318  0.00  0.00    +0.292 HD
ENDBRANCH  15  18
BRANCH  17  20
ATOM     20  O   UNL     1     -35.362  20.511   5.942  0.00  0.00    -0.503 OA
ATOM     21  H   UNL     1     -34.582  19.993   5.946  0.00  0.00    +0.292 HD
ENDBRANCH  17  20
ENDBRANCH   5  12
BRANCH  10  22
ATOM     22  O   UNL     1     -36.772  30.645  -0.015  0.00  0.00    -0.465 OA
ATOM     23  C   UNL     1     -37.611  31.629   0.584  0.00  0.00    +0.253 C 
ENDBRANCH  10  22
BRANCH   6  24
ATOM     24  O   UNL     1     -34.835  30.367   1.887  0.00  0.00    -0.503 OA
ATOM     25  H   UNL     1     -34.012  30.229   2.312  0.00  0.00    +0.292 HD
ENDBRANCH   6  24
BRANCH  11  26
ATOM     26  O   UNL     1     -38.462  28.538  -0.605  0.00  0.00    -0.503 OA
ATOM     27  H   UNL     1     -39.277  28.085  -0.514  0.00  0.00    +0.292 HD
ENDBRANCH  11  26
TORSDOF 6
ENDMDL
