MODEL 1
REMARK VINA RESULT:      -6.7      0.000      0.000
REMARK  Name = 54676537
REMARK  6 active torsions:
REMARK  status: ('A' for Active; 'I' for Inactive)
REMARK    1  A    between atoms: C_1  and  C_4
REMARK    2  A    between atoms: C_1  and  C_15
REMARK    3  A    between atoms: C_1  and  C_24
REMARK    4  A    between atoms: C_5  and  O_13
REMARK    5  A    between atoms: C_20  and  N_23
REMARK    6  A    between atoms: C_24  and  C_26
REMARK                            x       y       z     vdW  Elec       q    Type
REMARK                         _______ _______ _______ _____ _____    ______ ____
ROOT
ATOM      1  C   UNL     1     -35.193  20.717   0.747  0.00  0.00    +0.061 C 
ENDROOT
BRANCH   1   4
ATOM      2  O   UNL     1     -34.998  24.318   1.896  0.00  0.00    -0.421 OA
ATOM      3  O   UNL     1     -34.927  23.329  -0.151  0.00  0.00    -0.245 OA
ATOM      4  C   UNL     1     -35.183  21.871   1.713  0.00  0.00    +0.092 A 
ATOM      5  C   UNL     1     -35.295  21.772   3.052  0.00  0.00    +0.139 A 
ATOM      6  C   UNL     1     -35.262  22.968   3.898  0.00  0.00    +0.068 A 
ATOM      7  C   UNL     1     -35.027  23.205   1.066  0.00  0.00    +0.345 A 
ATOM      8  C   UNL     1     -35.112  24.209   3.292  0.00  0.00    +0.152 A 
ATOM      9  C   UNL     1     -35.371  22.930   5.295  0.00  0.00    +0.006 C 
ATOM     10  C   UNL     1     -35.069  25.396   4.025  0.00  0.00    +0.038 C 
ATOM     11  C   UNL     1     -35.329  24.109   6.046  0.00  0.00    +0.000 C 
ATOM     12  C   UNL     1     -35.178  25.342   5.412  0.00  0.00    +0.003 C 
BRANCH   5  13
ATOM     13  O   UNL     1     -35.450  20.588   3.740  0.00  0.00    -0.506 OA
ATOM     14  H   UNL     1     -35.450  20.588   4.677  0.00  0.00    +0.292 HD
ENDBRANCH   5  13
ENDBRANCH   1   4
BRANCH   1  15
ATOM     15  C   UNL     1     -33.845  20.011   0.723  0.00  0.00    -0.018 C 
ATOM     16  C   UNL     1     -32.765  20.594   0.060  0.00  0.00    -0.002 C 
ATOM     17  C   UNL     1     -33.690  18.781   1.362  0.00  0.00    -0.002 C 
ATOM     18  C   UNL     1     -31.529  19.948   0.039  0.00  0.00    +0.024 C 
ATOM     19  C   UNL     1     -32.455  18.134   1.340  0.00  0.00    +0.024 C 
ATOM     20  C   UNL     1     -31.374  18.718   0.677  0.00  0.00    +0.143 C 
BRANCH  20  23
ATOM     21  O   UNL     1     -29.087  18.723   0.382  0.00  0.00    -0.126 OA
ATOM     22  O   UNL     1     -30.068  16.833   0.912  0.00  0.00    -0.126 OA
ATOM     23  N   UNL     1     -30.116  18.060   0.656  0.00  0.00    +0.058 N 
ENDBRANCH  20  23
ENDBRANCH   1  15
BRANCH   1  24
ATOM     24  C   UNL     1     -36.361  19.759   1.057  0.00  0.00    +0.074 C 
BRANCH  24  26
ATOM     25  O   UNL     1     -37.462  17.990  -0.179  0.00  0.00    -0.296 OA
ATOM     26  C   UNL     1     -36.973  19.119  -0.181  0.00  0.00    +0.152 C 
ATOM     27  C   UNL     1     -36.909  19.931  -1.450  0.00  0.00    +0.072 C 
ENDBRANCH  24  26
ENDBRANCH   1  24
TORSDOF 6
ENDMDL
MODEL 2
REMARK VINA RESULT:      -6.4      4.248      7.132
REMARK  Name = 54676537
REMARK  6 active torsions:
REMARK  status: ('A' for Active; 'I' for Inactive)
REMARK    1  A    between atoms: C_1  and  C_4
REMARK    2  A    between atoms: C_1  and  C_15
REMARK    3  A    between atoms: C_1  and  C_24
REMARK    4  A    between atoms: C_5  and  O_13
REMARK    5  A    between atoms: C_20  and  N_23
REMARK    6  A    between atoms: C_24  and  C_26
REMARK                            x       y       z     vdW  Elec       q    Type
REMARK                         _______ _______ _______ _____ _____    ______ ____
ROOT
ATOM      1  C   UNL     1     -36.722  22.748   3.206  0.00  0.00    +0.061 C 
ENDROOT
BRANCH   1   4
ATOM      2  O   UNL     1     -34.817  24.649   5.868  0.00  0.00    -0.421 OA
ATOM      3  O   UNL     1     -36.129  22.791   5.916  0.00  0.00    -0.245 OA
ATOM      4  C   UNL     1     -35.831  23.813   3.787  0.00  0.00    +0.092 A 
ATOM      5  C   UNL     1     -35.252  24.813   3.095  0.00  0.00    +0.139 A 
ATOM      6  C   UNL     1     -34.410  25.804   3.770  0.00  0.00    +0.068 A 
ATOM      7  C   UNL     1     -35.620  23.694   5.258  0.00  0.00    +0.345 A 
ATOM      8  C   UNL     1     -34.218  25.692   5.142  0.00  0.00    +0.152 A 
ATOM      9  C   UNL     1     -33.783  26.868   3.105  0.00  0.00    +0.006 C 
ATOM     10  C   UNL     1     -33.433  26.595   5.860  0.00  0.00    +0.038 C 
ATOM     11  C   UNL     1     -32.992  27.781   3.810  0.00  0.00    +0.000 C 
ATOM     12  C   UNL     1     -32.817  27.645   5.187  0.00  0.00    +0.003 C 
BRANCH   5  13
ATOM     13  O   UNL     1     -35.381  25.002   1.736  0.00  0.00    -0.506 OA
ATOM     14  H   UNL     1     -35.885  25.722   1.409  0.00  0.00    +0.292 HD
ENDBRANCH   5  13
ENDBRANCH   1   4
BRANCH   1  15
ATOM     15  C   UNL     1     -38.036  23.338   2.719  0.00  0.00    -0.018 C 
ATOM     16  C   UNL     1     -38.573  24.460   3.351  0.00  0.00    -0.002 C 
ATOM     17  C   UNL     1     -38.705  22.759   1.641  0.00  0.00    -0.002 C 
ATOM     18  C   UNL     1     -39.778  25.002   2.905  0.00  0.00    +0.024 C 
ATOM     19  C   UNL     1     -39.910  23.300   1.195  0.00  0.00    +0.024 C 
ATOM     20  C   UNL     1     -40.447  24.423   1.827  0.00  0.00    +0.143 C 
BRANCH  20  23
ATOM     21  O   UNL     1     -42.546  24.208   0.896  0.00  0.00    -0.126 OA
ATOM     22  O   UNL     1     -41.852  26.213   1.459  0.00  0.00    -0.126 OA
ATOM     23  N   UNL     1     -41.674  24.974   1.372  0.00  0.00    +0.058 N 
ENDBRANCH  20  23
ENDBRANCH   1  15
BRANCH   1  24
ATOM     24  C   UNL     1     -35.980  21.960   2.107  0.00  0.00    +0.074 C 
BRANCH  24  26
ATOM     25  O   UNL     1     -35.180  20.444   3.820  0.00  0.00    -0.296 OA
ATOM     26  C   UNL     1     -35.242  20.734   2.626  0.00  0.00    +0.152 C 
ATOM     27  C   UNL     1     -34.534  19.897   1.590  0.00  0.00    +0.072 C 
ENDBRANCH  24  26
ENDBRANCH   1  24
TORSDOF 6
ENDMDL
MODEL 3
REMARK VINA RESULT:      -6.4      3.501      7.120
REMARK  Name = 54676537
REMARK  6 active torsions:
REMARK  status: ('A' for Active; 'I' for Inactive)
REMARK    1  A    between atoms: C_1  and  C_4
REMARK    2  A    between atoms: C_1  and  C_15
REMARK    3  A    between atoms: C_1  and  C_24
REMARK    4  A    between atoms: C_5  and  O_13
REMARK    5  A    between atoms: C_20  and  N_23
REMARK    6  A    between atoms: C_24  and  C_26
REMARK                            x       y       z     vdW  Elec       q    Type
REMARK                         _______ _______ _______ _____ _____    ______ ____
ROOT
ATOM      1  C   UNL     1     -36.454  24.426   3.848  0.00  0.00    +0.061 C 
ENDROOT
BRANCH   1   4
ATOM      2  O   UNL     1     -35.195  20.865   3.601  0.00  0.00    -0.421 OA
ATOM      3  O   UNL     1     -36.097  22.086   5.295  0.00  0.00    -0.245 OA
ATOM      4  C   UNL     1     -35.868  23.199   3.204  0.00  0.00    +0.092 A 
ATOM      5  C   UNL     1     -35.470  23.102   1.920  0.00  0.00    +0.139 A 
ATOM      6  C   UNL     1     -34.901  21.855   1.402  0.00  0.00    +0.068 A 
ATOM      7  C   UNL     1     -35.739  22.031   4.122  0.00  0.00    +0.345 A 
ATOM      8  C   UNL     1     -34.778  20.771   2.262  0.00  0.00    +0.152 A 
ATOM      9  C   UNL     1     -34.467  21.694   0.079  0.00  0.00    +0.006 C 
ATOM     10  C   UNL     1     -34.246  19.548   1.849  0.00  0.00    +0.038 C 
ATOM     11  C   UNL     1     -33.931  20.477  -0.352  0.00  0.00    +0.000 C 
ATOM     12  C   UNL     1     -33.820  19.404   0.533  0.00  0.00    +0.003 C 
BRANCH   5  13
ATOM     13  O   UNL     1     -35.555  24.120   0.995  0.00  0.00    -0.506 OA
ATOM     14  H   UNL     1     -36.381  24.527   0.822  0.00  0.00    +0.292 HD
ENDBRANCH   5  13
ENDBRANCH   1   4
BRANCH   1  15
ATOM     15  C   UNL     1     -35.363  25.400   4.265  0.00  0.00    -0.018 C 
ATOM     16  C   UNL     1     -34.919  26.374   3.371  0.00  0.00    -0.002 C 
ATOM     17  C   UNL     1     -34.807  25.320   5.542  0.00  0.00    -0.002 C 
ATOM     18  C   UNL     1     -33.919  27.268   3.754  0.00  0.00    +0.024 C 
ATOM     19  C   UNL     1     -33.807  26.214   5.925  0.00  0.00    +0.024 C 
ATOM     20  C   UNL     1     -33.363  27.188   5.030  0.00  0.00    +0.143 C 
BRANCH  20  23
ATOM     21  O   UNL     1     -32.493  29.319   5.173  0.00  0.00    -0.126 OA
ATOM     22  O   UNL     1     -31.325  27.656   6.002  0.00  0.00    -0.126 OA
ATOM     23  N   UNL     1     -32.345  28.098   5.420  0.00  0.00    +0.058 N 
ENDBRANCH  20  23
ENDBRANCH   1  15
BRANCH   1  24
ATOM     24  C   UNL     1     -37.508  25.072   2.926  0.00  0.00    +0.074 C 
BRANCH  24  26
ATOM     25  O   UNL     1     -39.724  24.732   3.846  0.00  0.00    -0.296 OA
ATOM     26  C   UNL     1     -38.879  24.415   3.009  0.00  0.00    +0.152 C 
ATOM     27  C   UNL     1     -39.143  23.301   2.029  0.00  0.00    +0.072 C 
ENDBRANCH  24  26
ENDBRANCH   1  24
TORSDOF 6
ENDMDL
MODEL 4
REMARK VINA RESULT:      -6.3      4.421      6.843
REMARK  Name = 54676537
REMARK  6 active torsions:
REMARK  status: ('A' for Active; 'I' for Inactive)
REMARK    1  A    between atoms: C_1  and  C_4
REMARK    2  A    between atoms: C_1  and  C_15
REMARK    3  A    between atoms: C_1  and  C_24
REMARK    4  A    between atoms: C_5  and  O_13
REMARK    5  A    between atoms: C_20  and  N_23
REMARK    6  A    between atoms: C_24  and  C_26
REMARK                            x       y       z     vdW  Elec       q    Type
REMARK                         _______ _______ _______ _____ _____    ______ ____
ROOT
ATOM      1  C   UNL     1     -36.165  23.871   2.556  0.00  0.00    +0.061 C 
ENDROOT
BRANCH   1   4
ATOM      2  O   UNL     1     -38.629  25.381   0.111  0.00  0.00    -0.421 OA
ATOM      3  O   UNL     1     -36.613  24.357  -0.139  0.00  0.00    -0.245 OA
ATOM      4  C   UNL     1     -37.421  24.557   2.091  0.00  0.00    +0.092 A 
ATOM      5  C   UNL     1     -38.417  24.990   2.888  0.00  0.00    +0.139 A 
ATOM      6  C   UNL     1     -39.594  25.657   2.324  0.00  0.00    +0.068 A 
ATOM      7  C   UNL     1     -37.502  24.745   0.614  0.00  0.00    +0.345 A 
ATOM      8  C   UNL     1     -39.663  25.835   0.947  0.00  0.00    +0.152 A 
ATOM      9  C   UNL     1     -40.660  26.132   3.100  0.00  0.00    +0.006 C 
ATOM     10  C   UNL     1     -40.747  26.461   0.330  0.00  0.00    +0.038 C 
ATOM     11  C   UNL     1     -41.754  26.762   2.499  0.00  0.00    +0.000 C 
ATOM     12  C   UNL     1     -41.798  26.927   1.114  0.00  0.00    +0.003 C 
BRANCH   5  13
ATOM     13  O   UNL     1     -38.438  24.856   4.259  0.00  0.00    -0.506 OA
ATOM     14  H   UNL     1     -37.750  25.226   4.776  0.00  0.00    +0.292 HD
ENDBRANCH   5  13
ENDBRANCH   1   4
BRANCH   1  15
ATOM     15  C   UNL     1     -35.308  24.807   3.394  0.00  0.00    -0.018 C 
ATOM     16  C   UNL     1     -35.119  24.552   4.752  0.00  0.00    -0.002 C 
ATOM     17  C   UNL     1     -34.709  25.920   2.804  0.00  0.00    -0.002 C 
ATOM     18  C   UNL     1     -34.333  25.409   5.521  0.00  0.00    +0.024 C 
ATOM     19  C   UNL     1     -33.923  26.779   3.573  0.00  0.00    +0.024 C 
ATOM     20  C   UNL     1     -33.735  26.523   4.932  0.00  0.00    +0.143 C 
BRANCH  20  23
ATOM     21  O   UNL     1     -32.487  26.991   6.814  0.00  0.00    -0.126 OA
ATOM     22  O   UNL     1     -32.693  28.550   5.282  0.00  0.00    -0.126 OA
ATOM     23  N   UNL     1     -32.934  27.397   5.714  0.00  0.00    +0.058 N 
ENDBRANCH  20  23
ENDBRANCH   1  15
BRANCH   1  24
ATOM     24  C   UNL     1     -36.503  22.557   3.289  0.00  0.00    +0.074 C 
BRANCH  24  26
ATOM     25  O   UNL     1     -35.238  20.543   3.746  0.00  0.00    -0.296 OA
ATOM     26  C   UNL     1     -35.577  21.402   2.934  0.00  0.00    +0.152 C 
ATOM     27  C   UNL     1     -35.047  21.385   1.523  0.00  0.00    +0.072 C 
ENDBRANCH  24  26
ENDBRANCH   1  24
TORSDOF 6
ENDMDL
MODEL 5
REMARK VINA RESULT:      -6.2      3.619      7.401
REMARK  Name = 54676537
REMARK  6 active torsions:
REMARK  status: ('A' for Active; 'I' for Inactive)
REMARK    1  A    between atoms: C_1  and  C_4
REMARK    2  A    between atoms: C_1  and  C_15
REMARK    3  A    between atoms: C_1  and  C_24
REMARK    4  A    between atoms: C_5  and  O_13
REMARK    5  A    between atoms: C_20  and  N_23
REMARK    6  A    between atoms: C_24  and  C_26
REMARK                            x       y       z     vdW  Elec       q    Type
REMARK                         _______ _______ _______ _____ _____    ______ ____
ROOT
ATOM      1  C   UNL     1     -36.160  25.233   2.904  0.00  0.00    +0.061 C 
ENDROOT
BRANCH   1   4
ATOM      2  O   UNL     1     -35.811  21.465   3.008  0.00  0.00    -0.421 OA
ATOM      3  O   UNL     1     -37.022  22.953   4.231  0.00  0.00    -0.245 OA
ATOM      4  C   UNL     1     -35.670  23.869   2.499  0.00  0.00    +0.092 A 
ATOM      5  C   UNL     1     -34.803  23.613   1.500  0.00  0.00    +0.139 A 
ATOM      6  C   UNL     1     -34.387  22.240   1.200  0.00  0.00    +0.068 A 
ATOM      7  C   UNL     1     -36.227  22.753   3.317  0.00  0.00    +0.345 A 
ATOM      8  C   UNL     1     -34.904  21.204   1.967  0.00  0.00    +0.152 A 
ATOM      9  C   UNL     1     -33.487  21.911   0.176  0.00  0.00    +0.006 C 
ATOM     10  C   UNL     1     -34.558  19.870   1.748  0.00  0.00    +0.038 C 
ATOM     11  C   UNL     1     -33.129  20.580  -0.057  0.00  0.00    +0.000 C 
ATOM     12  C   UNL     1     -33.664  19.559   0.729  0.00  0.00    +0.003 C 
BRANCH   5  13
ATOM     13  O   UNL     1     -34.242  24.572   0.685  0.00  0.00    -0.506 OA
ATOM     14  H   UNL     1     -34.691  25.381   0.536  0.00  0.00    +0.292 HD
ENDBRANCH   5  13
ENDBRANCH   1   4
BRANCH   1  15
ATOM     15  C   UNL     1     -35.091  25.991   3.678  0.00  0.00    -0.018 C 
ATOM     16  C   UNL     1     -34.795  25.630   4.993  0.00  0.00    -0.002 C 
ATOM     17  C   UNL     1     -34.408  27.045   3.073  0.00  0.00    -0.002 C 
ATOM     18  C   UNL     1     -33.816  26.324   5.702  0.00  0.00    +0.024 C 
ATOM     19  C   UNL     1     -33.429  27.740   3.783  0.00  0.00    +0.024 C 
ATOM     20  C   UNL     1     -33.132  27.379   5.098  0.00  0.00    +0.143 C 
BRANCH  20  23
ATOM     21  O   UNL     1     -32.242  29.330   5.946  0.00  0.00    -0.126 OA
ATOM     22  O   UNL     1     -31.174  27.447   6.313  0.00  0.00    -0.126 OA
ATOM     23  N   UNL     1     -32.135  28.086   5.820  0.00  0.00    +0.058 N 
ENDBRANCH  20  23
ENDBRANCH   1  15
BRANCH   1  24
ATOM     24  C   UNL     1     -36.672  26.013   1.677  0.00  0.00    +0.074 C 
BRANCH  24  26
ATOM     25  O   UNL     1     -38.581  27.403   1.137  0.00  0.00    -0.296 OA
ATOM     26  C   UNL     1     -38.113  26.485   1.809  0.00  0.00    +0.152 C 
ATOM     27  C   UNL     1     -38.946  25.792   2.858  0.00  0.00    +0.072 C 
ENDBRANCH  24  26
ENDBRANCH   1  24
TORSDOF 6
ENDMDL
MODEL 6
REMARK VINA RESULT:      -6.2      3.283      6.977
REMARK  Name = 54676537
REMARK  6 active torsions:
REMARK  status: ('A' for Active; 'I' for Inactive)
REMARK    1  A    between atoms: C_1  and  C_4
REMARK    2  A    between atoms: C_1  and  C_15
REMARK    3  A    between atoms: C_1  and  C_24
REMARK    4  A    between atoms: C_5  and  O_13
REMARK    5  A    between atoms: C_20  and  N_23
REMARK    6  A    between atoms: C_24  and  C_26
REMARK                            x       y       z     vdW  Elec       q    Type
REMARK                         _______ _______ _______ _____ _____    ______ ____
ROOT
ATOM      1  C   UNL     1     -36.239  22.770   2.031  0.00  0.00    +0.061 C 
ENDROOT
BRANCH   1   4
ATOM      2  O   UNL     1     -33.067  22.097   0.078  0.00  0.00    -0.421 OA
ATOM      3  O   UNL     1     -34.361  23.946   0.360  0.00  0.00    -0.245 OA
ATOM      4  C   UNL     1     -35.072  21.982   1.501  0.00  0.00    +0.092 A 
ATOM      5  C   UNL     1     -34.820  20.685   1.763  0.00  0.00    +0.139 A 
ATOM      6  C   UNL     1     -33.654  20.014   1.182  0.00  0.00    +0.068 A 
ATOM      7  C   UNL     1     -34.162  22.762   0.614  0.00  0.00    +0.345 A 
ATOM      8  C   UNL     1     -32.811  20.743   0.352  0.00  0.00    +0.152 A 
ATOM      9  C   UNL     1     -33.341  18.667   1.414  0.00  0.00    +0.006 C 
ATOM     10  C   UNL     1     -31.681  20.179  -0.243  0.00  0.00    +0.038 C 
ATOM     11  C   UNL     1     -32.213  18.086   0.826  0.00  0.00    +0.000 C 
ATOM     12  C   UNL     1     -31.383  18.841  -0.002  0.00  0.00    +0.003 C 
BRANCH   5  13
ATOM     13  O   UNL     1     -35.595  19.884   2.573  0.00  0.00    -0.506 OA
ATOM     14  H   UNL     1     -35.332  19.002   2.751  0.00  0.00    +0.292 HD
ENDBRANCH   5  13
ENDBRANCH   1   4
BRANCH   1  15
ATOM     15  C   UNL     1     -37.542  22.319   1.388  0.00  0.00    -0.018 C 
ATOM     16  C   UNL     1     -38.591  21.860   2.186  0.00  0.00    -0.002 C 
ATOM     17  C   UNL     1     -37.689  22.363   0.002  0.00  0.00    -0.002 C 
ATOM     18  C   UNL     1     -39.785  21.447   1.598  0.00  0.00    +0.024 C 
ATOM     19  C   UNL     1     -38.883  21.948  -0.587  0.00  0.00    +0.024 C 
ATOM     20  C   UNL     1     -39.932  21.490   0.212  0.00  0.00    +0.143 C 
BRANCH  20  23
ATOM     21  O   UNL     1     -42.109  21.875  -0.444  0.00  0.00    -0.126 OA
ATOM     22  O   UNL     1     -41.229  19.904  -0.845  0.00  0.00    -0.126 OA
ATOM     23  N   UNL     1     -41.149  21.069  -0.388  0.00  0.00    +0.058 N 
ENDBRANCH  20  23
ENDBRANCH   1  15
BRANCH   1  24
ATOM     24  C   UNL     1     -36.282  22.709   3.570  0.00  0.00    +0.074 C 
BRANCH  24  26
ATOM     25  O   UNL     1     -37.559  24.691   4.130  0.00  0.00    -0.296 OA
ATOM     26  C   UNL     1     -36.506  24.062   4.231  0.00  0.00    +0.152 C 
ATOM     27  C   UNL     1     -35.337  24.631   4.994  0.00  0.00    +0.072 C 
ENDBRANCH  24  26
ENDBRANCH   1  24
TORSDOF 6
ENDMDL
MODEL 7
REMARK VINA RESULT:      -6.0      4.837      7.499
REMARK  Name = 54676537
REMARK  6 active torsions:
REMARK  status: ('A' for Active; 'I' for Inactive)
REMARK    1  A    between atoms: C_1  and  C_4
REMARK    2  A    between atoms: C_1  and  C_15
REMARK    3  A    between atoms: C_1  and  C_24
REMARK    4  A    between atoms: C_5  and  O_13
REMARK    5  A    between atoms: C_20  and  N_23
REMARK    6  A    between atoms: C_24  and  C_26
REMARK                            x       y       z     vdW  Elec       q    Type
REMARK                         _______ _______ _______ _____ _____    ______ ____
ROOT
ATOM      1  C   UNL     1     -36.326  23.982   4.010  0.00  0.00    +0.061 C 
ENDROOT
BRANCH   1   4
ATOM      2  O   UNL     1     -34.509  27.250   4.599  0.00  0.00    -0.421 OA
ATOM      3  O   UNL     1     -35.897  25.984   5.882  0.00  0.00    -0.245 OA
ATOM      4  C   UNL     1     -35.429  25.151   3.702  0.00  0.00    +0.092 A 
ATOM      5  C   UNL     1     -34.768  25.348   2.545  0.00  0.00    +0.139 A 
ATOM      6  C   UNL     1     -33.928  26.533   2.352  0.00  0.00    +0.068 A 
ATOM      7  C   UNL     1     -35.312  26.138   4.814  0.00  0.00    +0.345 A 
ATOM      8  C   UNL     1     -33.825  27.452   3.388  0.00  0.00    +0.152 A 
ATOM      9  C   UNL     1     -33.219  26.794   1.171  0.00  0.00    +0.006 C 
ATOM     10  C   UNL     1     -33.047  28.607   3.286  0.00  0.00    +0.038 C 
ATOM     11  C   UNL     1     -32.436  27.946   1.050  0.00  0.00    +0.000 C 
ATOM     12  C   UNL     1     -32.350  28.852   2.107  0.00  0.00    +0.003 C 
BRANCH   5  13
ATOM     13  O   UNL     1     -34.807  24.492   1.465  0.00  0.00    -0.506 OA
ATOM     14  H   UNL     1     -34.148  24.545   0.802  0.00  0.00    +0.292 HD
ENDBRANCH   5  13
ENDBRANCH   1   4
BRANCH   1  15
ATOM     15  C   UNL     1     -37.655  24.105   3.281  0.00  0.00    -0.018 C 
ATOM     16  C   UNL     1     -38.410  25.273   3.399  0.00  0.00    -0.002 C 
ATOM     17  C   UNL     1     -38.120  23.051   2.495  0.00  0.00    -0.002 C 
ATOM     18  C   UNL     1     -39.628  25.386   2.730  0.00  0.00    +0.024 C 
ATOM     19  C   UNL     1     -39.339  23.164   1.826  0.00  0.00    +0.024 C 
ATOM     20  C   UNL     1     -40.094  24.332   1.944  0.00  0.00    +0.143 C 
BRANCH  20  23
ATOM     21  O   UNL     1     -41.981  25.518   1.354  0.00  0.00    -0.126 OA
ATOM     22  O   UNL     1     -41.749  23.475   0.588  0.00  0.00    -0.126 OA
ATOM     23  N   UNL     1     -41.335  24.447   1.263  0.00  0.00    +0.058 N 
ENDBRANCH  20  23
ENDBRANCH   1  15
BRANCH   1  24
ATOM     24  C   UNL     1     -35.605  22.652   3.713  0.00  0.00    +0.074 C 
BRANCH  24  26
ATOM     25  O   UNL     1     -35.006  20.633   4.911  0.00  0.00    -0.296 OA
ATOM     26  C   UNL     1     -35.310  21.824   4.956  0.00  0.00    +0.152 C 
ATOM     27  C   UNL     1     -35.457  22.535   6.278  0.00  0.00    +0.072 C 
ENDBRANCH  24  26
ENDBRANCH   1  24
TORSDOF 6
ENDMDL
MODEL 8
REMARK VINA RESULT:      -6.0      4.560      7.062
REMARK  Name = 54676537
REMARK  6 active torsions:
REMARK  status: ('A' for Active; 'I' for Inactive)
REMARK    1  A    between atoms: C_1  and  C_4
REMARK    2  A    between atoms: C_1  and  C_15
REMARK    3  A    between atoms: C_1  and  C_24
REMARK    4  A    between atoms: C_5  and  O_13
REMARK    5  A    between atoms: C_20  and  N_23
REMARK    6  A    between atoms: C_24  and  C_26
REMARK                            x       y       z     vdW  Elec       q    Type
REMARK                         _______ _______ _______ _____ _____    ______ ____
ROOT
ATOM      1  C   UNL     1     -34.830  24.090   4.136  0.00  0.00    +0.061 C 
ENDROOT
BRANCH   1   4
ATOM      2  O   UNL     1     -37.448  23.045   1.610  0.00  0.00    -0.421 OA
ATOM      3  O   UNL     1     -35.331  22.336   2.046  0.00  0.00    -0.245 OA
ATOM      4  C   UNL     1     -36.155  24.093   3.423  0.00  0.00    +0.092 A 
ATOM      5  C   UNL     1     -37.193  24.905   3.703  0.00  0.00    +0.139 A 
ATOM      6  C   UNL     1     -38.436  24.827   2.932  0.00  0.00    +0.068 A 
ATOM      7  C   UNL     1     -36.256  23.093   2.322  0.00  0.00    +0.345 A 
ATOM      8  C   UNL     1     -38.526  23.897   1.904  0.00  0.00    +0.152 A 
ATOM      9  C   UNL     1     -39.549  25.646   3.174  0.00  0.00    +0.006 C 
ATOM     10  C   UNL     1     -39.673  23.759   1.121  0.00  0.00    +0.038 C 
ATOM     11  C   UNL     1     -40.706  25.522   2.399  0.00  0.00    +0.000 C 
ATOM     12  C   UNL     1     -40.769  24.579   1.373  0.00  0.00    +0.003 C 
BRANCH   5  13
ATOM     13  O   UNL     1     -37.198  25.853   4.703  0.00  0.00    -0.506 OA
ATOM     14  H   UNL     1     -36.441  25.967   5.244  0.00  0.00    +0.292 HD
ENDBRANCH   5  13
ENDBRANCH   1   4
BRANCH   1  15
ATOM     15  C   UNL     1     -34.054  25.368   3.858  0.00  0.00    -0.018 C 
ATOM     16  C   UNL     1     -33.778  26.257   4.898  0.00  0.00    -0.002 C 
ATOM     17  C   UNL     1     -33.619  25.653   2.564  0.00  0.00    -0.002 C 
ATOM     18  C   UNL     1     -33.066  27.428   4.643  0.00  0.00    +0.024 C 
ATOM     19  C   UNL     1     -32.908  26.825   2.309  0.00  0.00    +0.024 C 
ATOM     20  C   UNL     1     -32.631  27.714   3.349  0.00  0.00    +0.143 C 
BRANCH  20  23
ATOM     21  O   UNL     1     -31.232  29.422   4.013  0.00  0.00    -0.126 OA
ATOM     22  O   UNL     1     -31.960  29.412   1.942  0.00  0.00    -0.126 OA
ATOM     23  N   UNL     1     -31.907  28.907   3.089  0.00  0.00    +0.058 N 
ENDBRANCH  20  23
ENDBRANCH   1  15
BRANCH   1  24
ATOM     24  C   UNL     1     -35.025  23.828   5.643  0.00  0.00    +0.074 C 
BRANCH  24  26
ATOM     25  O   UNL     1     -36.304  22.132   6.809  0.00  0.00    -0.296 OA
ATOM     26  C   UNL     1     -35.448  22.402   5.967  0.00  0.00    +0.152 C 
ATOM     27  C   UNL     1     -34.719  21.309   5.228  0.00  0.00    +0.072 C 
ENDBRANCH  24  26
ENDBRANCH   1  24
TORSDOF 6
ENDMDL
MODEL 9
REMARK VINA RESULT:      -6.0      2.932      6.600
REMARK  Name = 54676537
REMARK  6 active torsions:
REMARK  status: ('A' for Active; 'I' for Inactive)
REMARK    1  A    between atoms: C_1  and  C_4
REMARK    2  A    between atoms: C_1  and  C_15
REMARK    3  A    between atoms: C_1  and  C_24
REMARK    4  A    between atoms: C_5  and  O_13
REMARK    5  A    between atoms: C_20  and  N_23
REMARK    6  A    between atoms: C_24  and  C_26
REMARK                            x       y       z     vdW  Elec       q    Type
REMARK                         _______ _______ _______ _____ _____    ______ ____
ROOT
ATOM      1  C   UNL     1     -35.557  22.577   1.255  0.00  0.00    +0.061 C 
ENDROOT
BRANCH   1   4
ATOM      2  O   UNL     1     -34.011  19.178   1.879  0.00  0.00    -0.421 OA
ATOM      3  O   UNL     1     -35.919  20.181   2.608  0.00  0.00    -0.245 OA
ATOM      4  C   UNL     1     -34.554  21.461   1.136  0.00  0.00    +0.092 A 
ATOM      5  C   UNL     1     -33.428  21.497   0.399  0.00  0.00    +0.139 A 
ATOM      6  C   UNL     1     -32.515  20.351   0.366  0.00  0.00    +0.068 A 
ATOM      7  C   UNL     1     -34.897  20.247   1.931  0.00  0.00    +0.345 A 
ATOM      8  C   UNL     1     -32.835  19.222   1.111  0.00  0.00    +0.152 A 
ATOM      9  C   UNL     1     -31.327  20.329  -0.379  0.00  0.00    +0.006 C 
ATOM     10  C   UNL     1     -32.020  18.089   1.136  0.00  0.00    +0.038 C 
ATOM     11  C   UNL     1     -30.499  19.202  -0.366  0.00  0.00    +0.000 C 
ATOM     12  C   UNL     1     -30.844  18.083   0.391  0.00  0.00    +0.003 C 
BRANCH   5  13
ATOM     13  O   UNL     1     -33.030  22.567  -0.372  0.00  0.00    -0.506 OA
ATOM     14  H   UNL     1     -32.584  23.290   0.025  0.00  0.00    +0.292 HD
ENDBRANCH   5  13
ENDBRANCH   1   4
BRANCH   1  15
ATOM     15  C   UNL     1     -35.058  23.664   2.196  0.00  0.00    -0.018 C 
ATOM     16  C   UNL     1     -35.137  23.481   3.576  0.00  0.00    -0.002 C 
ATOM     17  C   UNL     1     -34.523  24.843   1.677  0.00  0.00    -0.002 C 
ATOM     18  C   UNL     1     -34.679  24.477   4.438  0.00  0.00    +0.024 C 
ATOM     19  C   UNL     1     -34.066  25.839   2.539  0.00  0.00    +0.024 C 
ATOM     20  C   UNL     1     -34.144  25.656   3.921  0.00  0.00    +0.143 C 
BRANCH  20  23
ATOM     21  O   UNL     1     -33.664  27.860   4.400  0.00  0.00    -0.126 OA
ATOM     22  O   UNL     1     -33.292  26.349   5.948  0.00  0.00    -0.126 OA
ATOM     23  N   UNL     1     -33.677  26.670   4.798  0.00  0.00    +0.058 N 
ENDBRANCH  20  23
ENDBRANCH   1  15
BRANCH   1  24
ATOM     24  C   UNL     1     -35.933  23.121  -0.137  0.00  0.00    +0.074 C 
BRANCH  24  26
ATOM     25  O   UNL     1     -36.958  22.082  -2.071  0.00  0.00    -0.296 OA
ATOM     26  C   UNL     1     -36.982  22.286  -0.858  0.00  0.00    +0.152 C 
ATOM     27  C   UNL     1     -38.104  21.749  -0.007  0.00  0.00    +0.072 C 
ENDBRANCH  24  26
ENDBRANCH   1  24
TORSDOF 6
ENDMDL
