MODEL 1
REMARK VINA RESULT:      -6.2      0.000      0.000
REMARK  Name = 57267191
REMARK  9 active torsions:
REMARK  status: ('A' for Active; 'I' for Inactive)
REMARK    1  A    between atoms: CA_5  and  N_11
REMARK    2  A    between atoms: CA_7  and  C_24
REMARK    3  A    between atoms: C_8  and  C_27
REMARK    4  A    between atoms: C_12  and  C_15
REMARK    5  A    between atoms: N_14  and  O_21
REMARK    6  A    between atoms: C_15  and  C_17
REMARK    7  A    between atoms: C_24  and  O_25
REMARK    8  A    between atoms: C_27  and  O_28
REMARK    9  A    between atoms: O_28  and  C_31
REMARK                            x       y       z     vdW  Elec       q    Type
REMARK                         _______ _______ _______ _____ _____    ______ ____
ROOT
ATOM      1  S   UNL     1     -35.343  21.767   5.480  0.00  0.00    -0.114 S 
ATOM      2  O   UNL     1     -38.004  22.343   1.709  0.00  0.00    -0.273 OA
ATOM      3  N   UNL     1     -36.447  22.948   3.373  0.00  0.00    -0.242 N 
ATOM      4  C   UNL     1     -35.376  22.020   3.691  0.00  0.00    +0.155 C 
ATOM      5  CA  UNL     1     -36.163  20.978   2.864  0.00  0.00    +0.179 C 
ATOM      6  C   UNL     1     -37.074  22.173   2.460  0.00  0.00    +0.251 C 
ATOM      7  CA  UNL     1     -36.582  24.171   3.946  0.00  0.00    +0.127 C 
ATOM      8  C   UNL     1     -35.900  24.505   5.068  0.00  0.00    +0.030 C 
ATOM      9  C   UNL     1     -35.011  23.527   5.833  0.00  0.00    +0.086 C 
ENDROOT
BRANCH   5  11
ATOM     10  O   UNL     1     -37.131  19.133   0.781  0.00  0.00    -0.268 OA
ATOM     11  N   UNL     1     -35.411  20.402   1.753  0.00  0.00    -0.291 N 
ATOM     12  C   UNL     1     -35.981  19.539   0.831  0.00  0.00    +0.270 C 
ATOM     13  H   UNL     1     -34.459  20.636   1.655  0.00  0.00    +0.150 HD
BRANCH  12  15
ATOM     14  N   UNL     1     -35.432  18.790  -1.420  0.00  0.00    -0.075 NA
ATOM     15  C   UNL     1     -35.011  19.081  -0.226  0.00  0.00    +0.207 C 
BRANCH  15  17
ATOM     16  O   UNL     1     -32.764  20.025  -0.135  0.00  0.00    -0.449 OA
ATOM     17  C   UNL     1     -33.570  18.963   0.124  0.00  0.00    +0.171 C 
ATOM     18  C   UNL     1     -32.850  17.938   0.693  0.00  0.00    +0.043 C 
ATOM     19  C   UNL     1     -31.516  18.400   0.788  0.00  0.00    +0.044 C 
ATOM     20  C   UNL     1     -31.516  19.676   0.271  0.00  0.00    +0.180 C 
ENDBRANCH  15  17
BRANCH  14  21
ATOM     21  O   UNL     1     -34.383  18.378  -2.254  0.00  0.00    -0.373 OA
ATOM     22  C   UNL     1     -34.789  17.190  -2.917  0.00  0.00    +0.288 C 
ENDBRANCH  14  21
ENDBRANCH  12  15
ENDBRANCH   5  11
BRANCH   7  24
ATOM     23  OXT UNL     1     -37.260  25.958   2.534  0.00  0.00    -0.244 OA
ATOM     24  C   UNL     1     -37.551  25.092   3.334  0.00  0.00    +0.352 C 
BRANCH  24  25
ATOM     25  O   UNL     1     -38.784  24.818   3.802  0.00  0.00    -0.476 OA
ATOM     26  H   UNL     1     -39.324  24.192   3.361  0.00  0.00    +0.295 HD
ENDBRANCH  24  25
ENDBRANCH   7  24
BRANCH   8  27
ATOM     27  C   UNL     1     -35.934  25.867   5.718  0.00  0.00    +0.235 C 
BRANCH  27  28
ATOM     28  O   UNL     1     -34.635  26.422   5.708  0.00  0.00    -0.430 OA
BRANCH  28  31
ATOM     29  O   UNL     1     -33.082  26.404   4.007  0.00  0.00    -0.227 OA
ATOM     30  N   UNL     1     -34.989  27.678   3.857  0.00  0.00    -0.295 N 
ATOM     31  C   UNL     1     -34.141  26.799   4.482  0.00  0.00    +0.399 C 
ATOM     32  H   UNL     1     -35.826  27.954   4.297  0.00  0.00    +0.148 HD
ATOM     33  H   UNL     1     -34.762  28.033   2.967  0.00  0.00    +0.148 HD
ENDBRANCH  28  31
ENDBRANCH  27  28
ENDBRANCH   8  27
TORSDOF 9
ENDMDL
MODEL 2
REMARK VINA RESULT:      -6.1      5.488     10.231
REMARK  Name = 57267191
REMARK  9 active torsions:
REMARK  status: ('A' for Active; 'I' for Inactive)
REMARK    1  A    between atoms: CA_5  and  N_11
REMARK    2  A    between atoms: CA_7  and  C_24
REMARK    3  A    between atoms: C_8  and  C_27
REMARK    4  A    between atoms: C_12  and  C_15
REMARK    5  A    between atoms: N_14  and  O_21
REMARK    6  A    between atoms: C_15  and  C_17
REMARK    7  A    between atoms: C_24  and  O_25
REMARK    8  A    between atoms: C_27  and  O_28
REMARK    9  A    between atoms: O_28  and  C_31
REMARK                            x       y       z     vdW  Elec       q    Type
REMARK                         _______ _______ _______ _____ _____    ______ ____
ROOT
ATOM      1  S   UNL     1     -38.081  26.102   2.714  0.00  0.00    -0.114 S 
ATOM      2  O   UNL     1     -41.833  24.001   0.941  0.00  0.00    -0.273 OA
ATOM      3  N   UNL     1     -39.885  24.208   2.253  0.00  0.00    -0.242 N 
ATOM      4  C   UNL     1     -39.714  25.406   3.056  0.00  0.00    +0.155 C 
ATOM      5  CA  UNL     1     -40.894  25.997   2.253  0.00  0.00    +0.179 C 
ATOM      6  C   UNL     1     -41.052  24.563   1.670  0.00  0.00    +0.251 C 
ATOM      7  CA  UNL     1     -39.009  23.172   2.246  0.00  0.00    +0.127 C 
ATOM      8  C   UNL     1     -37.763  23.297   2.762  0.00  0.00    +0.030 C 
ATOM      9  C   UNL     1     -37.203  24.613   3.298  0.00  0.00    +0.086 C 
ENDROOT
BRANCH   5  11
ATOM     10  O   UNL     1     -42.013  28.711   2.512  0.00  0.00    -0.268 OA
ATOM     11  N   UNL     1     -42.021  26.431   3.075  0.00  0.00    -0.291 N 
ATOM     12  C   UNL     1     -42.457  27.746   3.113  0.00  0.00    +0.270 C 
ATOM     13  H   UNL     1     -42.491  25.762   3.624  0.00  0.00    +0.150 HD
BRANCH  12  15
ATOM     14  N   UNL     1     -44.470  26.978   4.248  0.00  0.00    -0.075 NA
ATOM     15  C   UNL     1     -43.637  27.950   4.026  0.00  0.00    +0.207 C 
BRANCH  15  17
ATOM     16  O   UNL     1     -43.093  29.575   5.763  0.00  0.00    -0.449 OA
ATOM     17  C   UNL     1     -43.832  29.281   4.661  0.00  0.00    +0.171 C 
ATOM     18  C   UNL     1     -44.655  30.335   4.337  0.00  0.00    +0.043 C 
ATOM     19  C   UNL     1     -44.405  31.339   5.301  0.00  0.00    +0.044 C 
ATOM     20  C   UNL     1     -43.447  30.829   6.146  0.00  0.00    +0.180 C 
ENDBRANCH  15  17
BRANCH  14  21
ATOM     21  O   UNL     1     -45.501  27.366   5.115  0.00  0.00    -0.373 OA
ATOM     22  C   UNL     1     -46.106  26.190   5.633  0.00  0.00    +0.288 C 
ENDBRANCH  14  21
ENDBRANCH  12  15
ENDBRANCH   5  11
BRANCH   7  24
ATOM     23  OXT UNL     1     -39.276  21.676   0.418  0.00  0.00    -0.244 OA
ATOM     24  C   UNL     1     -39.449  21.930   1.593  0.00  0.00    +0.352 C 
BRANCH  24  25
ATOM     25  O   UNL     1     -40.061  21.143   2.499  0.00  0.00    -0.476 OA
ATOM     26  H   UNL     1     -39.551  20.623   3.089  0.00  0.00    +0.295 HD
ENDBRANCH  24  25
ENDBRANCH   7  24
BRANCH   8  27
ATOM     27  C   UNL     1     -36.760  22.172   2.864  0.00  0.00    +0.235 C 
BRANCH  27  28
ATOM     28  O   UNL     1     -35.724  22.549   3.746  0.00  0.00    -0.430 OA
BRANCH  28  31
ATOM     29  O   UNL     1     -35.015  20.652   4.843  0.00  0.00    -0.227 OA
ATOM     30  N   UNL     1     -36.043  22.365   5.981  0.00  0.00    -0.295 N 
ATOM     31  C   UNL     1     -35.546  21.757   4.854  0.00  0.00    +0.399 C 
ATOM     32  H   UNL     1     -36.458  23.256   5.918  0.00  0.00    +0.148 HD
ATOM     33  H   UNL     1     -35.983  21.911   6.852  0.00  0.00    +0.148 HD
ENDBRANCH  28  31
ENDBRANCH  27  28
ENDBRANCH   8  27
TORSDOF 9
ENDMDL
MODEL 3
REMARK VINA RESULT:      -5.9      3.949      8.905
REMARK  Name = 57267191
REMARK  9 active torsions:
REMARK  status: ('A' for Active; 'I' for Inactive)
REMARK    1  A    between atoms: CA_5  and  N_11
REMARK    2  A    between atoms: CA_7  and  C_24
REMARK    3  A    between atoms: C_8  and  C_27
REMARK    4  A    between atoms: C_12  and  C_15
REMARK    5  A    between atoms: N_14  and  O_21
REMARK    6  A    between atoms: C_15  and  C_17
REMARK    7  A    between atoms: C_24  and  O_25
REMARK    8  A    between atoms: C_27  and  O_28
REMARK    9  A    between atoms: O_28  and  C_31
REMARK                            x       y       z     vdW  Elec       q    Type
REMARK                         _______ _______ _______ _____ _____    ______ ____
ROOT
ATOM      1  S   UNL     1     -34.162  26.047   1.456  0.00  0.00    -0.114 S 
ATOM      2  O   UNL     1     -34.476  26.355   6.086  0.00  0.00    -0.273 OA
ATOM      3  N   UNL     1     -34.173  25.294   4.002  0.00  0.00    -0.242 N 
ATOM      4  C   UNL     1     -33.287  25.911   3.032  0.00  0.00    +0.155 C 
ATOM      5  CA  UNL     1     -33.316  27.159   3.942  0.00  0.00    +0.179 C 
ATOM      6  C   UNL     1     -34.072  26.248   4.953  0.00  0.00    +0.251 C 
ATOM      7  CA  UNL     1     -34.808  24.111   3.800  0.00  0.00    +0.127 C 
ATOM      8  C   UNL     1     -34.896  23.557   2.567  0.00  0.00    +0.030 C 
ATOM      9  C   UNL     1     -34.389  24.243   1.300  0.00  0.00    +0.086 C 
ENDROOT
BRANCH   5  11
ATOM     10  O   UNL     1     -32.593  29.721   5.206  0.00  0.00    -0.268 OA
ATOM     11  N   UNL     1     -32.001  27.595   4.404  0.00  0.00    -0.291 N 
ATOM     12  C   UNL     1     -31.785  28.833   4.987  0.00  0.00    +0.270 C 
ATOM     13  H   UNL     1     -31.236  26.984   4.296  0.00  0.00    +0.150 HD
BRANCH  12  15
ATOM     14  N   UNL     1     -30.065  29.699   6.478  0.00  0.00    -0.075 NA
ATOM     15  C   UNL     1     -30.350  29.055   5.387  0.00  0.00    +0.207 C 
BRANCH  15  17
ATOM     16  O   UNL     1     -28.805  27.277   4.752  0.00  0.00    -0.449 OA
ATOM     17  C   UNL     1     -29.270  28.530   4.507  0.00  0.00    +0.171 C 
ATOM     18  C   UNL     1     -28.614  29.088   3.435  0.00  0.00    +0.043 C 
ATOM     19  C   UNL     1     -27.686  28.116   2.993  0.00  0.00    +0.044 C 
ATOM     20  C   UNL     1     -27.841  27.032   3.827  0.00  0.00    +0.180 C 
ENDBRANCH  15  17
BRANCH  14  21
ATOM     21  O   UNL     1     -28.681  29.808   6.671  0.00  0.00    -0.373 OA
ATOM     22  C   UNL     1     -28.412  29.600   8.049  0.00  0.00    +0.288 C 
ENDBRANCH  14  21
ENDBRANCH  12  15
ENDBRANCH   5  11
BRANCH   7  24
ATOM     23  OXT UNL     1     -34.961  22.596   5.625  0.00  0.00    -0.244 OA
ATOM     24  C   UNL     1     -35.452  23.491   4.967  0.00  0.00    +0.352 C 
BRANCH  24  25
ATOM     25  O   UNL     1     -36.650  24.071   5.176  0.00  0.00    -0.476 OA
ATOM     26  H   UNL     1     -37.102  24.482   4.466  0.00  0.00    +0.295 HD
ENDBRANCH  24  25
ENDBRANCH   7  24
BRANCH   8  27
ATOM     27  C   UNL     1     -35.512  22.210   2.274  0.00  0.00    +0.235 C 
BRANCH  27  28
ATOM     28  O   UNL     1     -36.733  22.394   1.589  0.00  0.00    -0.430 OA
BRANCH  28  31
ATOM     29  O   UNL     1     -38.378  23.174   3.000  0.00  0.00    -0.227 OA
ATOM     30  N   UNL     1     -38.392  21.001   2.249  0.00  0.00    -0.295 N 
ATOM     31  C   UNL     1     -37.878  22.271   2.338  0.00  0.00    +0.399 C 
ATOM     32  H   UNL     1     -37.939  20.324   1.698  0.00  0.00    +0.148 HD
ATOM     33  H   UNL     1     -39.216  20.769   2.737  0.00  0.00    +0.148 HD
ENDBRANCH  28  31
ENDBRANCH  27  28
ENDBRANCH   8  27
TORSDOF 9
ENDMDL
MODEL 4
REMARK VINA RESULT:      -5.9      3.174      8.052
REMARK  Name = 57267191
REMARK  9 active torsions:
REMARK  status: ('A' for Active; 'I' for Inactive)
REMARK    1  A    between atoms: CA_5  and  N_11
REMARK    2  A    between atoms: CA_7  and  C_24
REMARK    3  A    between atoms: C_8  and  C_27
REMARK    4  A    between atoms: C_12  and  C_15
REMARK    5  A    between atoms: N_14  and  O_21
REMARK    6  A    between atoms: C_15  and  C_17
REMARK    7  A    between atoms: C_24  and  O_25
REMARK    8  A    between atoms: C_27  and  O_28
REMARK    9  A    between atoms: O_28  and  C_31
REMARK                            x       y       z     vdW  Elec       q    Type
REMARK                         _______ _______ _______ _____ _____    ______ ____
ROOT
ATOM      1  S   UNL     1     -38.622  24.265   2.983  0.00  0.00    -0.114 S 
ATOM      2  O   UNL     1     -35.088  21.529   4.270  0.00  0.00    -0.273 OA
ATOM      3  N   UNL     1     -36.604  22.550   2.781  0.00  0.00    -0.242 N 
ATOM      4  C   UNL     1     -36.839  23.978   2.902  0.00  0.00    +0.155 C 
ATOM      5  CA  UNL     1     -36.096  23.889   4.253  0.00  0.00    +0.179 C 
ATOM      6  C   UNL     1     -35.758  22.431   3.828  0.00  0.00    +0.251 C 
ATOM      7  CA  UNL     1     -37.174  21.769   1.829  0.00  0.00    +0.127 C 
ATOM      8  C   UNL     1     -38.228  22.201   1.097  0.00  0.00    +0.030 C 
ATOM      9  C   UNL     1     -38.926  23.538   1.337  0.00  0.00    +0.086 C 
ENDROOT
BRANCH   5  11
ATOM     10  O   UNL     1     -35.794  26.329   5.877  0.00  0.00    -0.268 OA
ATOM     11  N   UNL     1     -34.931  24.763   4.355  0.00  0.00    -0.291 N 
ATOM     12  C   UNL     1     -34.909  25.891   5.160  0.00  0.00    +0.270 C 
ATOM     13  H   UNL     1     -34.127  24.543   3.831  0.00  0.00    +0.150 HD
BRANCH  12  15
ATOM     14  N   UNL     1     -32.993  26.973   6.203  0.00  0.00    -0.075 NA
ATOM     15  C   UNL     1     -33.598  26.630   5.106  0.00  0.00    +0.207 C 
BRANCH  15  17
ATOM     16  O   UNL     1     -32.241  26.025   3.170  0.00  0.00    -0.449 OA
ATOM     17  C   UNL     1     -33.015  26.962   3.777  0.00  0.00    +0.171 C 
ATOM     18  C   UNL     1     -33.111  28.090   2.995  0.00  0.00    +0.043 C 
ATOM     19  C   UNL     1     -32.346  27.829   1.834  0.00  0.00    +0.044 C 
ATOM     20  C   UNL     1     -31.837  26.560   1.989  0.00  0.00    +0.180 C 
ENDBRANCH  15  17
BRANCH  14  21
ATOM     21  O   UNL     1     -31.796  27.655   5.944  0.00  0.00    -0.373 OA
ATOM     22  C   UNL     1     -31.808  28.863   6.689  0.00  0.00    +0.288 C 
ENDBRANCH  14  21
ENDBRANCH  12  15
ENDBRANCH   5  11
BRANCH   7  24
ATOM     23  OXT UNL     1     -35.989  20.035   0.716  0.00  0.00    -0.244 OA
ATOM     24  C   UNL     1     -36.637  20.409   1.672  0.00  0.00    +0.352 C 
BRANCH  24  25
ATOM     25  O   UNL     1     -36.979  19.668   2.744  0.00  0.00    -0.476 OA
ATOM     26  H   UNL     1     -36.388  19.020   3.074  0.00  0.00    +0.295 HD
ENDBRANCH  24  25
ENDBRANCH   7  24
BRANCH   8  27
ATOM     27  C   UNL     1     -38.864  21.426  -0.033  0.00  0.00    +0.235 C 
BRANCH  27  28
ATOM     28  O   UNL     1     -40.062  20.834   0.423  0.00  0.00    -0.430 OA
BRANCH  28  31
ATOM     29  O   UNL     1     -41.377  19.855  -1.195  0.00  0.00    -0.227 OA
ATOM     30  N   UNL     1     -41.813  21.983  -0.441  0.00  0.00    -0.295 N 
ATOM     31  C   UNL     1     -41.107  20.805  -0.468  0.00  0.00    +0.399 C 
ATOM     32  H   UNL     1     -41.541  22.706   0.169  0.00  0.00    +0.148 HD
ATOM     33  H   UNL     1     -42.593  22.103  -1.031  0.00  0.00    +0.148 HD
ENDBRANCH  28  31
ENDBRANCH  27  28
ENDBRANCH   8  27
TORSDOF 9
ENDMDL
MODEL 5
REMARK VINA RESULT:      -5.9      5.419     10.258
REMARK  Name = 57267191
REMARK  9 active torsions:
REMARK  status: ('A' for Active; 'I' for Inactive)
REMARK    1  A    between atoms: CA_5  and  N_11
REMARK    2  A    between atoms: CA_7  and  C_24
REMARK    3  A    between atoms: C_8  and  C_27
REMARK    4  A    between atoms: C_12  and  C_15
REMARK    5  A    between atoms: N_14  and  O_21
REMARK    6  A    between atoms: C_15  and  C_17
REMARK    7  A    between atoms: C_24  and  O_25
REMARK    8  A    between atoms: C_27  and  O_28
REMARK    9  A    between atoms: O_28  and  C_31
REMARK                            x       y       z     vdW  Elec       q    Type
REMARK                         _______ _______ _______ _____ _____    ______ ____
ROOT
ATOM      1  S   UNL     1     -37.888  26.173   2.449  0.00  0.00    -0.114 S 
ATOM      2  O   UNL     1     -41.956  24.296   1.201  0.00  0.00    -0.273 OA
ATOM      3  N   UNL     1     -39.860  24.403   2.275  0.00  0.00    -0.242 N 
ATOM      4  C   UNL     1     -39.515  25.612   3.002  0.00  0.00    +0.155 C 
ATOM      5  CA  UNL     1     -40.736  26.260   2.313  0.00  0.00    +0.179 C 
ATOM      6  C   UNL     1     -41.058  24.823   1.813  0.00  0.00    +0.251 C 
ATOM      7  CA  UNL     1     -39.064  23.306   2.213  0.00  0.00    +0.127 C 
ATOM      8  C   UNL     1     -37.761  23.356   2.580  0.00  0.00    +0.030 C 
ATOM      9  C   UNL     1     -37.053  24.644   2.993  0.00  0.00    +0.086 C 
ENDROOT
BRANCH   5  11
ATOM     10  O   UNL     1     -42.054  28.894   2.217  0.00  0.00    -0.268 OA
ATOM     11  N   UNL     1     -41.727  26.804   3.237  0.00  0.00    -0.291 N 
ATOM     12  C   UNL     1     -42.278  28.067   3.086  0.00  0.00    +0.270 C 
ATOM     13  H   UNL     1     -42.016  26.252   3.999  0.00  0.00    +0.150 HD
BRANCH  12  15
ATOM     14  N   UNL     1     -43.017  29.322   5.037  0.00  0.00    -0.075 NA
ATOM     15  C   UNL     1     -43.282  28.405   4.157  0.00  0.00    +0.207 C 
BRANCH  15  17
ATOM     16  O   UNL     1     -45.602  28.150   3.447  0.00  0.00    -0.449 OA
ATOM     17  C   UNL     1     -44.573  27.665   4.190  0.00  0.00    +0.171 C 
ATOM     18  C   UNL     1     -44.955  26.524   4.857  0.00  0.00    +0.043 C 
ATOM     19  C   UNL     1     -46.304  26.294   4.501  0.00  0.00    +0.044 C 
ATOM     20  C   UNL     1     -46.652  27.311   3.641  0.00  0.00    +0.180 C 
ENDBRANCH  15  17
BRANCH  14  21
ATOM     21  O   UNL     1     -44.068  29.484   5.950  0.00  0.00    -0.373 OA
ATOM     22  C   UNL     1     -43.737  30.559   6.816  0.00  0.00    +0.288 C 
ENDBRANCH  14  21
ENDBRANCH  12  15
ENDBRANCH   5  11
BRANCH   7  24
ATOM     23  OXT UNL     1     -40.267  21.259   2.331  0.00  0.00    -0.244 OA
ATOM     24  C   UNL     1     -39.661  22.078   1.668  0.00  0.00    +0.352 C 
BRANCH  24  25
ATOM     25  O   UNL     1     -39.427  22.017   0.343  0.00  0.00    -0.476 OA
ATOM     26  H   UNL     1     -39.177  21.205  -0.052  0.00  0.00    +0.295 HD
ENDBRANCH  24  25
ENDBRANCH   7  24
BRANCH   8  27
ATOM     27  C   UNL     1     -36.834  22.164   2.617  0.00  0.00    +0.235 C 
BRANCH  27  28
ATOM     28  O   UNL     1     -35.712  22.470   3.418  0.00  0.00    -0.430 OA
BRANCH  28  31
ATOM     29  O   UNL     1     -35.014  20.614   4.590  0.00  0.00    -0.227 OA
ATOM     30  N   UNL     1     -36.066  22.361   5.652  0.00  0.00    -0.295 N 
ATOM     31  C   UNL     1     -35.549  21.717   4.555  0.00  0.00    +0.399 C 
ATOM     32  H   UNL     1     -36.482  23.247   5.553  0.00  0.00    +0.148 HD
ATOM     33  H   UNL     1     -36.018  21.936   6.540  0.00  0.00    +0.148 HD
ENDBRANCH  28  31
ENDBRANCH  27  28
ENDBRANCH   8  27
TORSDOF 9
ENDMDL
MODEL 6
REMARK VINA RESULT:      -5.8      4.033      8.956
REMARK  Name = 57267191
REMARK  9 active torsions:
REMARK  status: ('A' for Active; 'I' for Inactive)
REMARK    1  A    between atoms: CA_5  and  N_11
REMARK    2  A    between atoms: CA_7  and  C_24
REMARK    3  A    between atoms: C_8  and  C_27
REMARK    4  A    between atoms: C_12  and  C_15
REMARK    5  A    between atoms: N_14  and  O_21
REMARK    6  A    between atoms: C_15  and  C_17
REMARK    7  A    between atoms: C_24  and  O_25
REMARK    8  A    between atoms: C_27  and  O_28
REMARK    9  A    between atoms: O_28  and  C_31
REMARK                            x       y       z     vdW  Elec       q    Type
REMARK                         _______ _______ _______ _____ _____    ______ ____
ROOT
ATOM      1  S   UNL     1     -35.128  26.780   1.480  0.00  0.00    -0.114 S 
ATOM      2  O   UNL     1     -34.051  26.463   5.994  0.00  0.00    -0.273 OA
ATOM      3  N   UNL     1     -34.448  25.687   3.803  0.00  0.00    -0.242 N 
ATOM      4  C   UNL     1     -33.843  26.402   2.694  0.00  0.00    +0.155 C 
ATOM      5  CA  UNL     1     -33.515  27.514   3.715  0.00  0.00    +0.179 C 
ATOM      6  C   UNL     1     -34.005  26.499   4.787  0.00  0.00    +0.251 C 
ATOM      7  CA  UNL     1     -35.196  24.564   3.659  0.00  0.00    +0.127 C 
ATOM      8  C   UNL     1     -35.680  24.187   2.451  0.00  0.00    +0.030 C 
ATOM      9  C   UNL     1     -35.518  25.022   1.183  0.00  0.00    +0.086 C 
ENDROOT
BRANCH   5  11
ATOM     10  O   UNL     1     -32.209  29.413   5.551  0.00  0.00    -0.268 OA
ATOM     11  N   UNL     1     -32.095  27.841   3.811  0.00  0.00    -0.291 N 
ATOM     12  C   UNL     1     -31.597  28.759   4.722  0.00  0.00    +0.270 C 
ATOM     13  H   UNL     1     -31.464  27.391   3.203  0.00  0.00    +0.150 HD
BRANCH  12  15
ATOM     14  N   UNL     1     -29.552  29.347   3.540  0.00  0.00    -0.075 NA
ATOM     15  C   UNL     1     -30.103  28.924   4.637  0.00  0.00    +0.207 C 
BRANCH  15  17
ATOM     16  O   UNL     1     -28.837  27.307   5.954  0.00  0.00    -0.449 OA
ATOM     17  C   UNL     1     -29.274  28.587   5.826  0.00  0.00    +0.171 C 
ATOM     18  C   UNL     1     -28.835  29.355   6.880  0.00  0.00    +0.043 C 
ATOM     19  C   UNL     1     -28.081  28.492   7.708  0.00  0.00    +0.044 C 
ATOM     20  C   UNL     1     -28.111  27.257   7.101  0.00  0.00    +0.180 C 
ENDBRANCH  15  17
BRANCH  14  21
ATOM     21  O   UNL     1     -28.157  29.426   3.657  0.00  0.00    -0.373 OA
ATOM     22  C   UNL     1     -27.741  30.674   3.121  0.00  0.00    +0.288 C 
ENDBRANCH  14  21
ENDBRANCH  12  15
ENDBRANCH   5  11
BRANCH   7  24
ATOM     23  OXT UNL     1     -36.555  23.915   5.498  0.00  0.00    -0.244 OA
ATOM     24  C   UNL     1     -35.513  23.812   4.882  0.00  0.00    +0.352 C 
BRANCH  24  25
ATOM     25  O   UNL     1     -34.477  23.009   5.194  0.00  0.00    -0.476 OA
ATOM     26  H   UNL     1     -33.832  23.296   5.809  0.00  0.00    +0.295 HD
ENDBRANCH  24  25
ENDBRANCH   7  24
BRANCH   8  27
ATOM     27  C   UNL     1     -36.449  22.913   2.195  0.00  0.00    +0.235 C 
BRANCH  27  28
ATOM     28  O   UNL     1     -35.540  21.852   1.986  0.00  0.00    -0.430 OA
BRANCH  28  31
ATOM     29  O   UNL     1     -35.112  20.489   3.792  0.00  0.00    -0.227 OA
ATOM     30  N   UNL     1     -36.681  19.909   2.215  0.00  0.00    -0.295 N 
ATOM     31  C   UNL     1     -35.723  20.730   2.757  0.00  0.00    +0.399 C 
ATOM     32  H   UNL     1     -37.133  20.165   1.379  0.00  0.00    +0.148 HD
ATOM     33  H   UNL     1     -36.917  19.065   2.664  0.00  0.00    +0.148 HD
ENDBRANCH  28  31
ENDBRANCH  27  28
ENDBRANCH   8  27
TORSDOF 9
ENDMDL
MODEL 7
REMARK VINA RESULT:      -5.7      4.095      9.114
REMARK  Name = 57267191
REMARK  9 active torsions:
REMARK  status: ('A' for Active; 'I' for Inactive)
REMARK    1  A    between atoms: CA_5  and  N_11
REMARK    2  A    between atoms: CA_7  and  C_24
REMARK    3  A    between atoms: C_8  and  C_27
REMARK    4  A    between atoms: C_12  and  C_15
REMARK    5  A    between atoms: N_14  and  O_21
REMARK    6  A    between atoms: C_15  and  C_17
REMARK    7  A    between atoms: C_24  and  O_25
REMARK    8  A    between atoms: C_27  and  O_28
REMARK    9  A    between atoms: O_28  and  C_31
REMARK                            x       y       z     vdW  Elec       q    Type
REMARK                         _______ _______ _______ _____ _____    ______ ____
ROOT
ATOM      1  S   UNL     1     -34.177  26.354   0.986  0.00  0.00    -0.114 S 
ATOM      2  O   UNL     1     -34.779  26.633   5.589  0.00  0.00    -0.273 OA
ATOM      3  N   UNL     1     -34.458  25.572   3.508  0.00  0.00    -0.242 N 
ATOM      4  C   UNL     1     -33.438  26.092   2.615  0.00  0.00    +0.155 C 
ATOM      5  CA  UNL     1     -33.383  27.321   3.549  0.00  0.00    +0.179 C 
ATOM      6  C   UNL     1     -34.311  26.494   4.485  0.00  0.00    +0.251 C 
ATOM      7  CA  UNL     1     -35.213  24.477   3.237  0.00  0.00    +0.127 C 
ATOM      8  C   UNL     1     -35.278  23.955   1.989  0.00  0.00    +0.030 C 
ATOM      9  C   UNL     1     -34.604  24.592   0.775  0.00  0.00    +0.086 C 
ENDROOT
BRANCH   5  11
ATOM     10  O   UNL     1     -32.580  29.530   5.327  0.00  0.00    -0.268 OA
ATOM     11  N   UNL     1     -32.061  27.590   4.109  0.00  0.00    -0.291 N 
ATOM     12  C   UNL     1     -31.805  28.670   4.940  0.00  0.00    +0.270 C 
ATOM     13  H   UNL     1     -31.321  26.979   3.888  0.00  0.00    +0.150 HD
BRANCH  12  15
ATOM     14  N   UNL     1     -29.913  27.863   6.243  0.00  0.00    -0.075 NA
ATOM     15  C   UNL     1     -30.372  28.735   5.397  0.00  0.00    +0.207 C 
BRANCH  15  17
ATOM     16  O   UNL     1     -28.766  29.556   3.754  0.00  0.00    -0.449 OA
ATOM     17  C   UNL     1     -29.499  29.818   4.868  0.00  0.00    +0.171 C 
ATOM     18  C   UNL     1     -29.273  31.103   5.303  0.00  0.00    +0.043 C 
ATOM     19  C   UNL     1     -28.342  31.666   4.399  0.00  0.00    +0.044 C 
ATOM     20  C   UNL     1     -28.065  30.685   3.475  0.00  0.00    +0.180 C 
ENDBRANCH  15  17
BRANCH  14  21
ATOM     21  O   UNL     1     -28.566  28.096   6.549  0.00  0.00    -0.373 OA
ATOM     22  C   UNL     1     -28.027  26.904   7.101  0.00  0.00    +0.288 C 
ENDBRANCH  14  21
ENDBRANCH  12  15
ENDBRANCH   5  11
BRANCH   7  24
ATOM     23  OXT UNL     1     -37.189  24.146   4.515  0.00  0.00    -0.244 OA
ATOM     24  C   UNL     1     -36.007  23.923   4.343  0.00  0.00    +0.352 C 
BRANCH  24  25
ATOM     25  O   UNL     1     -35.220  23.148   5.114  0.00  0.00    -0.476 OA
ATOM     26  H   UNL     1     -34.448  23.506   5.505  0.00  0.00    +0.295 HD
ENDBRANCH  24  25
ENDBRANCH   7  24
BRANCH   8  27
ATOM     27  C   UNL     1     -36.027  22.696   1.624  0.00  0.00    +0.235 C 
BRANCH  27  28
ATOM     28  O   UNL     1     -35.193  21.577   1.839  0.00  0.00    -0.430 OA
BRANCH  28  31
ATOM     29  O   UNL     1     -35.192  20.501   3.875  0.00  0.00    -0.227 OA
ATOM     30  N   UNL     1     -36.660  19.893   2.214  0.00  0.00    -0.295 N 
ATOM     31  C   UNL     1     -35.641  20.645   2.744  0.00  0.00    +0.399 C 
ATOM     32  H   UNL     1     -36.972  20.063   1.296  0.00  0.00    +0.148 HD
ATOM     33  H   UNL     1     -37.080  19.184   2.754  0.00  0.00    +0.148 HD
ENDBRANCH  28  31
ENDBRANCH  27  28
ENDBRANCH   8  27
TORSDOF 9
ENDMDL
MODEL 8
REMARK VINA RESULT:      -5.7      3.566      9.167
REMARK  Name = 57267191
REMARK  9 active torsions:
REMARK  status: ('A' for Active; 'I' for Inactive)
REMARK    1  A    between atoms: CA_5  and  N_11
REMARK    2  A    between atoms: CA_7  and  C_24
REMARK    3  A    between atoms: C_8  and  C_27
REMARK    4  A    between atoms: C_12  and  C_15
REMARK    5  A    between atoms: N_14  and  O_21
REMARK    6  A    between atoms: C_15  and  C_17
REMARK    7  A    between atoms: C_24  and  O_25
REMARK    8  A    between atoms: C_27  and  O_28
REMARK    9  A    between atoms: O_28  and  C_31
REMARK                            x       y       z     vdW  Elec       q    Type
REMARK                         _______ _______ _______ _____ _____    ______ ____
ROOT
ATOM      1  S   UNL     1     -35.187  25.954   0.657  0.00  0.00    -0.114 S 
ATOM      2  O   UNL     1     -35.624  26.570   5.246  0.00  0.00    -0.273 OA
ATOM      3  N   UNL     1     -34.925  25.506   3.261  0.00  0.00    -0.242 N 
ATOM      4  C   UNL     1     -34.337  26.317   2.210  0.00  0.00    +0.155 C 
ATOM      5  CA  UNL     1     -34.847  27.542   3.002  0.00  0.00    +0.179 C 
ATOM      6  C   UNL     1     -35.203  26.515   4.116  0.00  0.00    +0.251 C 
ATOM      7  CA  UNL     1     -35.057  24.157   3.190  0.00  0.00    +0.127 C 
ATOM      8  C   UNL     1     -34.918  23.494   2.017  0.00  0.00    +0.030 C 
ATOM      9  C   UNL     1     -34.704  24.194   0.677  0.00  0.00    +0.086 C 
ENDROOT
BRANCH   5  11
ATOM     10  O   UNL     1     -35.061  30.468   3.270  0.00  0.00    -0.268 OA
ATOM     11  N   UNL     1     -33.802  28.490   3.379  0.00  0.00    -0.291 N 
ATOM     12  C   UNL     1     -34.026  29.854   3.472  0.00  0.00    +0.270 C 
ATOM     13  H   UNL     1     -32.901  28.146   3.576  0.00  0.00    +0.150 HD
BRANCH  12  15
ATOM     14  N   UNL     1     -32.526  31.766   3.323  0.00  0.00    -0.075 NA
ATOM     15  C   UNL     1     -32.801  30.627   3.883  0.00  0.00    +0.207 C 
BRANCH  15  17
ATOM     16  O   UNL     1     -30.954  29.178   4.546  0.00  0.00    -0.449 OA
ATOM     17  C   UNL     1     -31.913  30.059   4.933  0.00  0.00    +0.171 C 
ATOM     18  C   UNL     1     -31.863  30.260   6.293  0.00  0.00    +0.043 C 
ATOM     19  C   UNL     1     -30.807  29.451   6.772  0.00  0.00    +0.044 C 
ATOM     20  C   UNL     1     -30.285  28.812   5.670  0.00  0.00    +0.180 C 
ENDBRANCH  15  17
BRANCH  14  21
ATOM     21  O   UNL     1     -31.346  32.324   3.834  0.00  0.00    -0.373 OA
ATOM     22  C   UNL     1     -30.715  33.051   2.790  0.00  0.00    +0.288 C 
ENDBRANCH  14  21
ENDBRANCH  12  15
ENDBRANCH   5  11
BRANCH   7  24
ATOM     23  OXT UNL     1     -34.622  23.049   5.248  0.00  0.00    -0.244 OA
ATOM     24  C   UNL     1     -35.423  23.456   4.430  0.00  0.00    +0.352 C 
BRANCH  24  25
ATOM     25  O   UNL     1     -36.763  23.344   4.500  0.00  0.00    -0.476 OA
ATOM     26  H   UNL     1     -37.156  22.507   4.655  0.00  0.00    +0.295 HD
ENDBRANCH  24  25
ENDBRANCH   7  24
BRANCH   8  27
ATOM     27  C   UNL     1     -34.970  21.992   1.870  0.00  0.00    +0.235 C 
BRANCH  27  28
ATOM     28  O   UNL     1     -36.143  21.631   1.172  0.00  0.00    -0.430 OA
BRANCH  28  31
ATOM     29  O   UNL     1     -38.145  21.795   2.298  0.00  0.00    -0.227 OA
ATOM     30  N   UNL     1     -36.987  19.811   2.222  0.00  0.00    -0.295 N 
ATOM     31  C   UNL     1     -37.178  21.139   1.929  0.00  0.00    +0.399 C 
ATOM     32  H   UNL     1     -36.186  19.344   1.892  0.00  0.00    +0.148 HD
ATOM     33  H   UNL     1     -37.654  19.325   2.760  0.00  0.00    +0.148 HD
ENDBRANCH  28  31
ENDBRANCH  27  28
ENDBRANCH   8  27
TORSDOF 9
ENDMDL
MODEL 9
REMARK VINA RESULT:      -5.7      3.023      4.448
REMARK  Name = 57267191
REMARK  9 active torsions:
REMARK  status: ('A' for Active; 'I' for Inactive)
REMARK    1  A    between atoms: CA_5  and  N_11
REMARK    2  A    between atoms: CA_7  and  C_24
REMARK    3  A    between atoms: C_8  and  C_27
REMARK    4  A    between atoms: C_12  and  C_15
REMARK    5  A    between atoms: N_14  and  O_21
REMARK    6  A    between atoms: C_15  and  C_17
REMARK    7  A    between atoms: C_24  and  O_25
REMARK    8  A    between atoms: C_27  and  O_28
REMARK    9  A    between atoms: O_28  and  C_31
REMARK                            x       y       z     vdW  Elec       q    Type
REMARK                         _______ _______ _______ _____ _____    ______ ____
ROOT
ATOM      1  S   UNL     1     -36.135  24.528   1.391  0.00  0.00    -0.114 S 
ATOM      2  O   UNL     1     -35.116  20.334   3.124  0.00  0.00    -0.273 OA
ATOM      3  N   UNL     1     -36.040  22.503   3.106  0.00  0.00    -0.242 N 
ATOM      4  C   UNL     1     -36.784  22.931   1.935  0.00  0.00    +0.155 C 
ATOM      5  CA  UNL     1     -36.208  21.681   1.232  0.00  0.00    +0.179 C 
ATOM      6  C   UNL     1     -35.680  21.286   2.642  0.00  0.00    +0.251 C 
ATOM      7  CA  UNL     1     -35.880  23.264   4.219  0.00  0.00    +0.127 C 
ATOM      8  C   UNL     1     -36.154  24.590   4.213  0.00  0.00    +0.030 C 
ATOM      9  C   UNL     1     -36.561  25.359   2.959  0.00  0.00    +0.086 C 
ENDROOT
BRANCH   5  11
ATOM     10  O   UNL     1     -35.812  19.351  -0.528  0.00  0.00    -0.268 OA
ATOM     11  N   UNL     1     -37.220  20.772   0.701  0.00  0.00    -0.291 N 
ATOM     12  C   UNL     1     -36.908  19.703  -0.124  0.00  0.00    +0.270 C 
ATOM     13  H   UNL     1     -38.164  20.925   0.938  0.00  0.00    +0.150 HD
BRANCH  12  15
ATOM     14  N   UNL     1     -38.113  17.611  -0.440  0.00  0.00    -0.075 NA
ATOM     15  C   UNL     1     -38.116  18.906  -0.539  0.00  0.00    +0.207 C 
BRANCH  15  17
ATOM     16  O   UNL     1     -40.173  20.167  -0.173  0.00  0.00    -0.449 OA
ATOM     17  C   UNL     1     -39.305  19.628  -1.069  0.00  0.00    +0.171 C 
ATOM     18  C   UNL     1     -39.725  19.874  -2.356  0.00  0.00    +0.043 C 
ATOM     19  C   UNL     1     -40.926  20.612  -2.243  0.00  0.00    +0.044 C 
ATOM     20  C   UNL     1     -41.156  20.765  -0.895  0.00  0.00    +0.180 C 
ENDBRANCH  15  17
BRANCH  14  21
ATOM     21  O   UNL     1     -39.321  17.054  -0.882  0.00  0.00    -0.373 OA
ATOM     22  C   UNL     1     -39.245  15.646  -0.710  0.00  0.00    +0.288 C 
ENDBRANCH  14  21
ENDBRANCH  12  15
ENDBRANCH   5  11
BRANCH   7  24
ATOM     23  OXT UNL     1     -34.155  22.560   5.694  0.00  0.00    -0.244 OA
ATOM     24  C   UNL     1     -35.335  22.597   5.411  0.00  0.00    +0.352 C 
BRANCH  24  25
ATOM     25  O   UNL     1     -36.344  22.049   6.116  0.00  0.00    -0.476 OA
ATOM     26  H   UNL     1     -36.991  22.598   6.513  0.00  0.00    +0.295 HD
ENDBRANCH  24  25
ENDBRANCH   7  24
BRANCH   8  27
ATOM     27  C   UNL     1     -36.080  25.486   5.427  0.00  0.00    +0.235 C 
BRANCH  27  28
ATOM     28  O   UNL     1     -35.425  26.688   5.081  0.00  0.00    -0.430 OA
BRANCH  28  31
ATOM     29  O   UNL     1     -33.398  25.875   5.812  0.00  0.00    -0.227 OA
ATOM     30  N   UNL     1     -33.509  27.699   4.418  0.00  0.00    -0.295 N 
ATOM     31  C   UNL     1     -34.053  26.682   5.162  0.00  0.00    +0.399 C 
ATOM     32  H   UNL     1     -34.096  28.312   3.919  0.00  0.00    +0.148 HD
ATOM     33  H   UNL     1     -32.532  27.815   4.383  0.00  0.00    +0.148 HD
ENDBRANCH  28  31
ENDBRANCH  27  28
ENDBRANCH   8  27
TORSDOF 9
ENDMDL
