MODEL 1
REMARK VINA RESULT:      -6.6      0.000      0.000
REMARK  Name = 53734706
REMARK  9 active torsions:
REMARK  status: ('A' for Active; 'I' for Inactive)
REMARK    1  A    between atoms: N_2  and  CA_18
REMARK    2  A    between atoms: C_3  and  CA_7
REMARK    3  A    between atoms: C_11  and  CA_12
REMARK    4  A    between atoms: CA_12  and  N_14
REMARK    5  A    between atoms: CA_18  and  C_20
REMARK    6  A    between atoms: CA_18  and  CB_23
REMARK    7  A    between atoms: C_20  and  O_21
REMARK    8  A    between atoms: CB_23  and  CG_24
REMARK    9  A    between atoms: CZ_29  and  OH_30
REMARK                            x       y       z     vdW  Elec       q    Type
REMARK                         _______ _______ _______ _____ _____    ______ ____
ROOT
ATOM      1  O   PRO A   2     -31.273  27.750   4.133  0.00  0.00    -0.273 OA
ATOM      2  N   TYR A   3     -33.309  27.739   5.261  0.00  0.00    -0.295 N 
ATOM      3  C   PRO A   2     -31.992  28.113   5.060  0.00  0.00    +0.241 C 
ATOM      4  H   TYR A   3     -33.784  28.098   6.046  0.00  0.00    +0.150 HD
ENDROOT
BRANCH   3   7
ATOM      5  O   ALA A   1     -29.391  27.225   6.750  0.00  0.00    -0.277 OA
ATOM      6  N   PRO A   2     -30.079  29.259   5.888  0.00  0.00    -0.275 N 
ATOM      7  CA  PRO A   2     -31.505  29.063   6.113  0.00  0.00    +0.152 C 
ATOM      8  CB  PRO A   2     -32.118  30.449   5.952  0.00  0.00    +0.031 C 
ATOM      9  CG  PRO A   2     -31.177  31.141   4.969  0.00  0.00    +0.024 C 
ATOM     10  CD  PRO A   2     -29.810  30.590   5.346  0.00  0.00    +0.094 C 
ATOM     11  C   ALA A   1     -29.126  28.340   6.296  0.00  0.00    +0.205 C 
BRANCH  11  12
ATOM     12  CA  ALA A   1     -27.692  28.780   6.144  0.00  0.00    +0.013 C 
ATOM     13  CB  ALA A   1     -26.973  27.870   5.169  0.00  0.00    -0.015 C 
BRANCH  12  14
ATOM     14  N   ALA A   1     -27.088  28.712   7.465  0.00  0.00    +0.387 N 
ATOM     15  H1  ALA A   1     -26.354  29.417   7.539  0.00  0.00    -0.089 HD
ATOM     16  H2  ALA A   1     -26.685  27.786   7.607  0.00  0.00    -0.089 HD
ATOM     17  H3  ALA A   1     -27.801  28.887   8.173  0.00  0.00    -0.089 HD
ENDBRANCH  12  14
ENDBRANCH  11  12
ENDBRANCH   3   7
BRANCH   2  18
ATOM     18  CA  TYR A   3     -34.022  26.849   4.374  0.00  0.00    +0.176 C 
BRANCH  18  20
ATOM     19  OXT TYR A   3     -34.300  27.174   1.993  0.00  0.00    -0.248 OA
ATOM     20  C   TYR A   3     -34.505  27.582   3.132  0.00  0.00    +0.332 C 
BRANCH  20  21
ATOM     21  O   TYR A   3     -35.187  28.727   3.375  0.00  0.00    -0.479 OA
ATOM     22  H   TYR A   3     -35.045  29.481   2.836  0.00  0.00    +0.295 HD
ENDBRANCH  20  21
ENDBRANCH  18  20
BRANCH  18  23
ATOM     23  CB  TYR A   3     -35.211  26.192   5.088  0.00  0.00    +0.057 C 
BRANCH  23  24
ATOM     24  CG  TYR A   3     -35.304  24.707   4.831  0.00  0.00    -0.020 C 
ATOM     25  CD1 TYR A   3     -35.187  23.807   5.890  0.00  0.00    -0.001 C 
ATOM     26  CD2 TYR A   3     -35.507  24.235   3.535  0.00  0.00    -0.001 C 
ATOM     27  CE1 TYR A   3     -35.274  22.436   5.653  0.00  0.00    +0.036 C 
ATOM     28  CE2 TYR A   3     -35.594  22.863   3.297  0.00  0.00    +0.036 C 
ATOM     29  CZ  TYR A   3     -35.477  21.964   4.356  0.00  0.00    +0.134 C 
BRANCH  29  30
ATOM     30  OH  TYR A   3     -35.562  20.625   4.125  0.00  0.00    -0.506 OA
ATOM     31  HH  TYR A   3     -35.390  20.018   4.817  0.00  0.00    +0.292 HD
ENDBRANCH  29  30
ENDBRANCH  23  24
ENDBRANCH  18  23
ENDBRANCH   2  18
TORSDOF 9
ENDMDL
MODEL 2
REMARK VINA RESULT:      -6.4      4.428      9.318
REMARK  Name = 53734706
REMARK  9 active torsions:
REMARK  status: ('A' for Active; 'I' for Inactive)
REMARK    1  A    between atoms: N_2  and  CA_18
REMARK    2  A    between atoms: C_3  and  CA_7
REMARK    3  A    between atoms: C_11  and  CA_12
REMARK    4  A    between atoms: CA_12  and  N_14
REMARK    5  A    between atoms: CA_18  and  C_20
REMARK    6  A    between atoms: CA_18  and  CB_23
REMARK    7  A    between atoms: C_20  and  O_21
REMARK    8  A    between atoms: CB_23  and  CG_24
REMARK    9  A    between atoms: CZ_29  and  OH_30
REMARK                            x       y       z     vdW  Elec       q    Type
REMARK                         _______ _______ _______ _____ _____    ______ ____
ROOT
ATOM      1  O   PRO A   2     -36.013  22.875   1.722  0.00  0.00    -0.273 OA
ATOM      2  N   TYR A   3     -36.829  22.458   3.862  0.00  0.00    -0.295 N 
ATOM      3  C   PRO A   2     -36.895  22.478   2.479  0.00  0.00    +0.241 C 
ATOM      4  H   TYR A   3     -37.605  22.116   4.363  0.00  0.00    +0.150 HD
ENDROOT
BRANCH   3   7
ATOM      5  O   ALA A   1     -39.595  24.024   3.333  0.00  0.00    -0.277 OA
ATOM      6  N   PRO A   2     -38.917  23.031   1.355  0.00  0.00    -0.275 N 
ATOM      7  CA  PRO A   2     -38.190  21.925   1.964  0.00  0.00    +0.152 C 
ATOM      8  CB  PRO A   2     -37.969  20.934   0.828  0.00  0.00    +0.031 C 
ATOM      9  CG  PRO A   2     -37.917  21.822  -0.413  0.00  0.00    +0.024 C 
ATOM     10  CD  PRO A   2     -38.926  22.917  -0.101  0.00  0.00    +0.094 C 
ATOM     11  C   ALA A   1     -39.626  23.958   2.102  0.00  0.00    +0.205 C 
BRANCH  11  12
ATOM     12  CA  ALA A   1     -40.463  24.929   1.309  0.00  0.00    +0.013 C 
ATOM     13  CB  ALA A   1     -40.591  26.238   2.061  0.00  0.00    -0.015 C 
BRANCH  12  14
ATOM     14  N   ALA A   1     -41.763  24.307   1.118  0.00  0.00    +0.387 N 
ATOM     15  H1  ALA A   1     -42.210  24.171   2.025  0.00  0.00    -0.089 HD
ATOM     16  H2  ALA A   1     -41.644  23.404   0.659  0.00  0.00    -0.089 HD
ATOM     17  H3  ALA A   1     -42.346  24.911   0.538  0.00  0.00    -0.089 HD
ENDBRANCH  12  14
ENDBRANCH  11  12
ENDBRANCH   3   7
BRANCH   2  18
ATOM     18  CA  TYR A   3     -35.679  22.916   4.606  0.00  0.00    +0.176 C 
BRANCH  18  20
ATOM     19  OXT TYR A   3     -35.152  22.246   6.870  0.00  0.00    -0.248 OA
ATOM     20  C   TYR A   3     -35.300  21.923   5.695  0.00  0.00    +0.332 C 
BRANCH  20  21
ATOM     21  O   TYR A   3     -35.141  20.646   5.272  0.00  0.00    -0.479 OA
ATOM     22  H   TYR A   3     -34.447  20.121   5.620  0.00  0.00    +0.295 HD
ENDBRANCH  20  21
ENDBRANCH  18  20
BRANCH  18  23
ATOM     23  CB  TYR A   3     -35.932  24.297   5.223  0.00  0.00    +0.057 C 
BRANCH  23  24
ATOM     24  CG  TYR A   3     -34.857  25.301   4.880  0.00  0.00    -0.020 C 
ATOM     25  CD1 TYR A   3     -34.258  26.054   5.889  0.00  0.00    -0.001 C 
ATOM     26  CD2 TYR A   3     -34.465  25.475   3.553  0.00  0.00    -0.001 C 
ATOM     27  CE1 TYR A   3     -33.266  26.981   5.571  0.00  0.00    +0.036 C 
ATOM     28  CE2 TYR A   3     -33.472  26.403   3.235  0.00  0.00    +0.036 C 
ATOM     29  CZ  TYR A   3     -32.873  27.155   4.245  0.00  0.00    +0.134 C 
BRANCH  29  30
ATOM     30  OH  TYR A   3     -31.903  28.059   3.935  0.00  0.00    -0.506 OA
ATOM     31  HH  TYR A   3     -31.160  28.159   4.496  0.00  0.00    +0.292 HD
ENDBRANCH  29  30
ENDBRANCH  23  24
ENDBRANCH  18  23
ENDBRANCH   2  18
TORSDOF 9
ENDMDL
MODEL 3
REMARK VINA RESULT:      -6.3      4.710      9.418
REMARK  Name = 53734706
REMARK  9 active torsions:
REMARK  status: ('A' for Active; 'I' for Inactive)
REMARK    1  A    between atoms: N_2  and  CA_18
REMARK    2  A    between atoms: C_3  and  CA_7
REMARK    3  A    between atoms: C_11  and  CA_12
REMARK    4  A    between atoms: CA_12  and  N_14
REMARK    5  A    between atoms: CA_18  and  C_20
REMARK    6  A    between atoms: CA_18  and  CB_23
REMARK    7  A    between atoms: C_20  and  O_21
REMARK    8  A    between atoms: CB_23  and  CG_24
REMARK    9  A    between atoms: CZ_29  and  OH_30
REMARK                            x       y       z     vdW  Elec       q    Type
REMARK                         _______ _______ _______ _____ _____    ______ ____
ROOT
ATOM      1  O   PRO A   2     -37.157  22.517   1.118  0.00  0.00    -0.273 OA
ATOM      2  N   TYR A   3     -37.345  22.365   3.433  0.00  0.00    -0.295 N 
ATOM      3  C   PRO A   2     -37.831  22.397   2.137  0.00  0.00    +0.241 C 
ATOM      4  H   TYR A   3     -37.987  22.265   4.172  0.00  0.00    +0.150 HD
ENDROOT
BRANCH   3   7
ATOM      5  O   ALA A   1     -39.592  24.610   3.690  0.00  0.00    -0.277 OA
ATOM      6  N   PRO A   2     -39.872  23.523   1.666  0.00  0.00    -0.275 N 
ATOM      7  CA  PRO A   2     -39.321  22.242   2.086  0.00  0.00    +0.152 C 
ATOM      8  CB  PRO A   2     -39.751  21.260   1.003  0.00  0.00    +0.031 C 
ATOM      9  CG  PRO A   2     -39.853  22.133  -0.246  0.00  0.00    +0.024 C 
ATOM     10  CD  PRO A   2     -40.372  23.457   0.294  0.00  0.00    +0.094 C 
ATOM     11  C   ALA A   1     -40.027  24.590   2.537  0.00  0.00    +0.205 C 
BRANCH  11  12
ATOM     12  CA  ALA A   1     -40.773  25.777   1.984  0.00  0.00    +0.013 C 
ATOM     13  CB  ALA A   1     -39.817  26.691   1.244  0.00  0.00    -0.015 C 
BRANCH  12  14
ATOM     14  N   ALA A   1     -41.378  26.460   3.115  0.00  0.00    +0.387 N 
ATOM     15  H1  ALA A   1     -40.807  26.311   3.947  0.00  0.00    -0.089 HD
ATOM     16  H2  ALA A   1     -42.315  26.089   3.275  0.00  0.00    -0.089 HD
ATOM     17  H3  ALA A   1     -41.437  27.459   2.917  0.00  0.00    -0.089 HD
ENDBRANCH  12  14
ENDBRANCH  11  12
ENDBRANCH   3   7
BRANCH   2  18
ATOM     18  CA  TYR A   3     -35.940  22.472   3.754  0.00  0.00    +0.176 C 
BRANCH  18  20
ATOM     19  OXT TYR A   3     -35.033  20.341   3.054  0.00  0.00    -0.248 OA
ATOM     20  C   TYR A   3     -35.322  21.099   3.975  0.00  0.00    +0.332 C 
BRANCH  20  21
ATOM     21  O   TYR A   3     -35.110  20.772   5.272  0.00  0.00    -0.479 OA
ATOM     22  H   TYR A   3     -35.333  21.379   5.950  0.00  0.00    +0.295 HD
ENDBRANCH  20  21
ENDBRANCH  18  20
BRANCH  18  23
ATOM     23  CB  TYR A   3     -35.720  23.349   4.993  0.00  0.00    +0.057 C 
BRANCH  23  24
ATOM     24  CG  TYR A   3     -34.861  24.558   4.713  0.00  0.00    -0.020 C 
ATOM     25  CD1 TYR A   3     -34.373  24.786   3.426  0.00  0.00    -0.001 C 
ATOM     26  CD2 TYR A   3     -34.554  25.449   5.741  0.00  0.00    -0.001 C 
ATOM     27  CE1 TYR A   3     -33.580  25.903   3.168  0.00  0.00    +0.036 C 
ATOM     28  CE2 TYR A   3     -33.761  26.567   5.483  0.00  0.00    +0.036 C 
ATOM     29  CZ  TYR A   3     -33.274  26.794   4.196  0.00  0.00    +0.134 C 
BRANCH  29  30
ATOM     30  OH  TYR A   3     -32.500  27.885   3.945  0.00  0.00    -0.506 OA
ATOM     31  HH  TYR A   3     -32.748  28.489   3.272  0.00  0.00    +0.292 HD
ENDBRANCH  29  30
ENDBRANCH  23  24
ENDBRANCH  18  23
ENDBRANCH   2  18
TORSDOF 9
ENDMDL
MODEL 4
REMARK VINA RESULT:      -6.2      5.166      9.497
REMARK  Name = 53734706
REMARK  9 active torsions:
REMARK  status: ('A' for Active; 'I' for Inactive)
REMARK    1  A    between atoms: N_2  and  CA_18
REMARK    2  A    between atoms: C_3  and  CA_7
REMARK    3  A    between atoms: C_11  and  CA_12
REMARK    4  A    between atoms: CA_12  and  N_14
REMARK    5  A    between atoms: CA_18  and  C_20
REMARK    6  A    between atoms: CA_18  and  CB_23
REMARK    7  A    between atoms: C_20  and  O_21
REMARK    8  A    between atoms: CB_23  and  CG_24
REMARK    9  A    between atoms: CZ_29  and  OH_30
REMARK                            x       y       z     vdW  Elec       q    Type
REMARK                         _______ _______ _______ _____ _____    ______ ____
ROOT
ATOM      1  O   PRO A   2     -37.717  22.384   0.475  0.00  0.00    -0.273 OA
ATOM      2  N   TYR A   3     -37.533  21.963   2.757  0.00  0.00    -0.295 N 
ATOM      3  C   PRO A   2     -38.221  22.210   1.581  0.00  0.00    +0.241 C 
ATOM      4  H   TYR A   3     -38.051  21.841   3.586  0.00  0.00    +0.150 HD
ENDROOT
BRANCH   3   7
ATOM      5  O   ALA A   1     -39.400  24.389   3.647  0.00  0.00    -0.277 OA
ATOM      6  N   PRO A   2     -40.151  23.600   1.607  0.00  0.00    -0.275 N 
ATOM      7  CA  PRO A   2     -39.707  22.224   1.785  0.00  0.00    +0.152 C 
ATOM      8  CB  PRO A   2     -40.434  21.437   0.701  0.00  0.00    +0.031 C 
ATOM      9  CG  PRO A   2     -40.631  22.464  -0.411  0.00  0.00    +0.024 C 
ATOM     10  CD  PRO A   2     -40.878  23.759   0.349  0.00  0.00    +0.094 C 
ATOM     11  C   ALA A   1     -40.021  24.560   2.597  0.00  0.00    +0.205 C 
BRANCH  11  12
ATOM     12  CA  ALA A   1     -40.690  25.881   2.314  0.00  0.00    +0.013 C 
ATOM     13  CB  ALA A   1     -39.768  26.765   1.500  0.00  0.00    -0.015 C 
BRANCH  12  14
ATOM     14  N   ALA A   1     -40.992  26.485   3.601  0.00  0.00    +0.387 N 
ATOM     15  H1  ALA A   1     -41.549  27.327   3.458  0.00  0.00    -0.089 HD
ATOM     16  H2  ALA A   1     -40.121  26.729   4.073  0.00  0.00    -0.089 HD
ATOM     17  H3  ALA A   1     -41.515  25.822   4.173  0.00  0.00    -0.089 HD
ENDBRANCH  12  14
ENDBRANCH  11  12
ENDBRANCH   3   7
BRANCH   2  18
ATOM     18  CA  TYR A   3     -36.093  21.877   2.827  0.00  0.00    +0.176 C 
BRANCH  18  20
ATOM     19  OXT TYR A   3     -34.458  20.274   2.046  0.00  0.00    -0.248 OA
ATOM     20  C   TYR A   3     -35.606  20.495   2.418  0.00  0.00    +0.332 C 
BRANCH  20  21
ATOM     21  O   TYR A   3     -36.539  19.515   2.498  0.00  0.00    -0.479 OA
ATOM     22  H   TYR A   3     -36.966  19.341   3.314  0.00  0.00    +0.295 HD
ENDBRANCH  20  21
ENDBRANCH  18  20
BRANCH  18  23
ATOM     23  CB  TYR A   3     -35.586  22.213   4.235  0.00  0.00    +0.057 C 
BRANCH  23  24
ATOM     24  CG  TYR A   3     -35.070  23.627   4.353  0.00  0.00    -0.020 C 
ATOM     25  CD1 TYR A   3     -35.119  24.289   5.580  0.00  0.00    -0.001 C 
ATOM     26  CD2 TYR A   3     -34.544  24.273   3.234  0.00  0.00    -0.001 C 
ATOM     27  CE1 TYR A   3     -34.642  25.594   5.688  0.00  0.00    +0.036 C 
ATOM     28  CE2 TYR A   3     -34.066  25.579   3.342  0.00  0.00    +0.036 C 
ATOM     29  CZ  TYR A   3     -34.115  26.239   4.569  0.00  0.00    +0.134 C 
BRANCH  29  30
ATOM     30  OH  TYR A   3     -33.649  27.514   4.675  0.00  0.00    -0.506 OA
ATOM     31  HH  TYR A   3     -33.841  28.140   4.004  0.00  0.00    +0.292 HD
ENDBRANCH  29  30
ENDBRANCH  23  24
ENDBRANCH  18  23
ENDBRANCH   2  18
TORSDOF 9
ENDMDL
MODEL 5
REMARK VINA RESULT:      -6.1      1.651      2.095
REMARK  Name = 53734706
REMARK  9 active torsions:
REMARK  status: ('A' for Active; 'I' for Inactive)
REMARK    1  A    between atoms: N_2  and  CA_18
REMARK    2  A    between atoms: C_3  and  CA_7
REMARK    3  A    between atoms: C_11  and  CA_12
REMARK    4  A    between atoms: CA_12  and  N_14
REMARK    5  A    between atoms: CA_18  and  C_20
REMARK    6  A    between atoms: CA_18  and  CB_23
REMARK    7  A    between atoms: C_20  and  O_21
REMARK    8  A    between atoms: CB_23  and  CG_24
REMARK    9  A    between atoms: CZ_29  and  OH_30
REMARK                            x       y       z     vdW  Elec       q    Type
REMARK                         _______ _______ _______ _____ _____    ______ ____
ROOT
ATOM      1  O   PRO A   2     -32.359  27.010   3.960  0.00  0.00    -0.273 OA
ATOM      2  N   TYR A   3     -34.452  27.962   3.596  0.00  0.00    -0.295 N 
ATOM      3  C   PRO A   2     -33.104  27.985   3.911  0.00  0.00    +0.241 C 
ATOM      4  H   TYR A   3     -34.947  28.813   3.590  0.00  0.00    +0.150 HD
ENDROOT
BRANCH   3   7
ATOM      5  O   ALA A   1     -31.869  28.568   6.834  0.00  0.00    -0.277 OA
ATOM      6  N   PRO A   2     -31.257  29.253   4.710  0.00  0.00    -0.275 N 
ATOM      7  CA  PRO A   2     -32.607  29.375   4.177  0.00  0.00    +0.152 C 
ATOM      8  CB  PRO A   2     -32.447  30.174   2.890  0.00  0.00    +0.031 C 
ATOM      9  CG  PRO A   2     -31.037  29.817   2.424  0.00  0.00    +0.024 C 
ATOM     10  CD  PRO A   2     -30.263  29.680   3.727  0.00  0.00    +0.094 C 
ATOM     11  C   ALA A   1     -31.003  28.924   6.032  0.00  0.00    +0.205 C 
BRANCH  11  12
ATOM     12  CA  ALA A   1     -29.560  29.014   6.459  0.00  0.00    +0.013 C 
ATOM     13  CB  ALA A   1     -28.860  27.697   6.197  0.00  0.00    -0.015 C 
BRANCH  12  14
ATOM     14  N   ALA A   1     -29.559  29.334   7.877  0.00  0.00    +0.387 N 
ATOM     15  H1  ALA A   1     -30.353  28.880   8.328  0.00  0.00    -0.089 HD
ATOM     16  H2  ALA A   1     -29.632  30.344   7.997  0.00  0.00    -0.089 HD
ATOM     17  H3  ALA A   1     -28.692  29.003   8.299  0.00  0.00    -0.089 HD
ENDBRANCH  12  14
ENDBRANCH  11  12
ENDBRANCH   3   7
BRANCH   2  18
ATOM     18  CA  TYR A   3     -35.168  26.748   3.275  0.00  0.00    +0.176 C 
BRANCH  18  20
ATOM     19  OXT TYR A   3     -35.782  27.144   0.969  0.00  0.00    -0.248 OA
ATOM     20  C   TYR A   3     -36.143  26.974   2.130  0.00  0.00    +0.332 C 
BRANCH  20  21
ATOM     21  O   TYR A   3     -37.451  26.970   2.485  0.00  0.00    -0.479 OA
ATOM     22  H   TYR A   3     -38.076  26.506   1.963  0.00  0.00    +0.295 HD
ENDBRANCH  20  21
ENDBRANCH  18  20
BRANCH  18  23
ATOM     23  CB  TYR A   3     -35.917  26.208   4.500  0.00  0.00    +0.057 C 
BRANCH  23  24
ATOM     24  CG  TYR A   3     -35.719  24.725   4.703  0.00  0.00    -0.020 C 
ATOM     25  CD1 TYR A   3     -35.963  23.837   3.655  0.00  0.00    -0.001 C 
ATOM     26  CD2 TYR A   3     -35.292  24.242   5.940  0.00  0.00    -0.001 C 
ATOM     27  CE1 TYR A   3     -35.779  22.468   3.844  0.00  0.00    +0.036 C 
ATOM     28  CE2 TYR A   3     -35.108  22.872   6.129  0.00  0.00    +0.036 C 
ATOM     29  CZ  TYR A   3     -35.352  21.985   5.081  0.00  0.00    +0.134 C 
BRANCH  29  30
ATOM     30  OH  TYR A   3     -35.172  20.649   5.265  0.00  0.00    -0.506 OA
ATOM     31  HH  TYR A   3     -35.880  20.120   5.579  0.00  0.00    +0.292 HD
ENDBRANCH  29  30
ENDBRANCH  23  24
ENDBRANCH  18  23
ENDBRANCH   2  18
TORSDOF 9
ENDMDL
MODEL 6
REMARK VINA RESULT:      -6.1      3.629      6.449
REMARK  Name = 53734706
REMARK  9 active torsions:
REMARK  status: ('A' for Active; 'I' for Inactive)
REMARK    1  A    between atoms: N_2  and  CA_18
REMARK    2  A    between atoms: C_3  and  CA_7
REMARK    3  A    between atoms: C_11  and  CA_12
REMARK    4  A    between atoms: CA_12  and  N_14
REMARK    5  A    between atoms: CA_18  and  C_20
REMARK    6  A    between atoms: CA_18  and  CB_23
REMARK    7  A    between atoms: C_20  and  O_21
REMARK    8  A    between atoms: CB_23  and  CG_24
REMARK    9  A    between atoms: CZ_29  and  OH_30
REMARK                            x       y       z     vdW  Elec       q    Type
REMARK                         _______ _______ _______ _____ _____    ______ ____
ROOT
ATOM      1  O   PRO A   2     -34.956  24.428   1.964  0.00  0.00    -0.273 OA
ATOM      2  N   TYR A   3     -35.250  22.352   2.973  0.00  0.00    -0.295 N 
ATOM      3  C   PRO A   2     -34.910  23.693   2.947  0.00  0.00    +0.241 C 
ATOM      4  H   TYR A   3     -35.170  21.865   3.826  0.00  0.00    +0.150 HD
ENDROOT
BRANCH   3   7
ATOM      5  O   ALA A   1     -32.445  25.774   3.020  0.00  0.00    -0.277 OA
ATOM      6  N   PRO A   2     -34.427  25.651   4.208  0.00  0.00    -0.275 N 
ATOM      7  CA  PRO A   2     -34.482  24.198   4.292  0.00  0.00    +0.152 C 
ATOM      8  CB  PRO A   2     -35.528  23.910   5.363  0.00  0.00    +0.031 C 
ATOM      9  CG  PRO A   2     -36.468  25.109   5.272  0.00  0.00    +0.024 C 
ATOM     10  CD  PRO A   2     -35.532  26.263   4.943  0.00  0.00    +0.094 C 
ATOM     11  C   ALA A   1     -33.362  26.325   3.632  0.00  0.00    +0.205 C 
BRANCH  11  12
ATOM     12  CA  ALA A   1     -33.381  27.824   3.787  0.00  0.00    +0.013 C 
ATOM     13  CB  ALA A   1     -32.781  28.479   2.559  0.00  0.00    -0.015 C 
BRANCH  12  14
ATOM     14  N   ALA A   1     -32.606  28.136   4.977  0.00  0.00    +0.387 N 
ATOM     15  H1  ALA A   1     -31.894  28.828   4.746  0.00  0.00    -0.089 HD
ATOM     16  H2  ALA A   1     -32.157  27.287   5.321  0.00  0.00    -0.089 HD
ATOM     17  H3  ALA A   1     -33.225  28.510   5.696  0.00  0.00    -0.089 HD
ENDBRANCH  12  14
ENDBRANCH  11  12
ENDBRANCH   3   7
BRANCH   2  18
ATOM     18  CA  TYR A   3     -35.716  21.631   1.811  0.00  0.00    +0.176 C 
BRANCH  18  20
ATOM     19  OXT TYR A   3     -37.777  22.628   1.031  0.00  0.00    -0.248 OA
ATOM     20  C   TYR A   3     -37.227  21.737   1.670  0.00  0.00    +0.332 C 
BRANCH  20  21
ATOM     21  O   TYR A   3     -37.928  20.766   2.304  0.00  0.00    -0.479 OA
ATOM     22  H   TYR A   3     -38.183  20.881   3.199  0.00  0.00    +0.295 HD
ENDBRANCH  20  21
ENDBRANCH  18  20
BRANCH  18  23
ATOM     23  CB  TYR A   3     -35.299  20.156   1.871  0.00  0.00    +0.057 C 
BRANCH  23  24
ATOM     24  CG  TYR A   3     -33.937  19.904   1.271  0.00  0.00    -0.020 C 
ATOM     25  CD1 TYR A   3     -33.355  20.857   0.435  0.00  0.00    -0.001 C 
ATOM     26  CD2 TYR A   3     -33.260  18.718   1.552  0.00  0.00    -0.001 C 
ATOM     27  CE1 TYR A   3     -32.097  20.624  -0.119  0.00  0.00    +0.036 C 
ATOM     28  CE2 TYR A   3     -32.001  18.484   0.998  0.00  0.00    +0.036 C 
ATOM     29  CZ  TYR A   3     -31.420  19.438   0.163  0.00  0.00    +0.134 C 
BRANCH  29  30
ATOM     30  OH  TYR A   3     -30.191  19.211  -0.378  0.00  0.00    -0.506 OA
ATOM     31  HH  TYR A   3     -29.742  19.900  -0.826  0.00  0.00    +0.292 HD
ENDBRANCH  29  30
ENDBRANCH  23  24
ENDBRANCH  18  23
ENDBRANCH   2  18
TORSDOF 9
ENDMDL
MODEL 7
REMARK VINA RESULT:      -6.1      2.336      3.362
REMARK  Name = 53734706
REMARK  9 active torsions:
REMARK  status: ('A' for Active; 'I' for Inactive)
REMARK    1  A    between atoms: N_2  and  CA_18
REMARK    2  A    between atoms: C_3  and  CA_7
REMARK    3  A    between atoms: C_11  and  CA_12
REMARK    4  A    between atoms: CA_12  and  N_14
REMARK    5  A    between atoms: CA_18  and  C_20
REMARK    6  A    between atoms: CA_18  and  CB_23
REMARK    7  A    between atoms: C_20  and  O_21
REMARK    8  A    between atoms: CB_23  and  CG_24
REMARK    9  A    between atoms: CZ_29  and  OH_30
REMARK                            x       y       z     vdW  Elec       q    Type
REMARK                         _______ _______ _______ _____ _____    ______ ____
ROOT
ATOM      1  O   PRO A   2     -32.558  25.829   3.015  0.00  0.00    -0.273 OA
ATOM      2  N   TYR A   3     -34.298  27.235   2.372  0.00  0.00    -0.295 N 
ATOM      3  C   PRO A   2     -32.971  26.902   2.583  0.00  0.00    +0.241 C 
ATOM      4  H   TYR A   3     -34.505  28.132   2.021  0.00  0.00    +0.150 HD
ENDROOT
BRANCH   3   7
ATOM      5  O   ALA A   1     -33.223  29.669   4.222  0.00  0.00    -0.277 OA
ATOM      6  N   PRO A   2     -31.404  28.483   3.421  0.00  0.00    -0.275 N 
ATOM      7  CA  PRO A   2     -32.038  28.011   2.197  0.00  0.00    +0.152 C 
ATOM      8  CB  PRO A   2     -30.888  27.508   1.333  0.00  0.00    +0.031 C 
ATOM      9  CG  PRO A   2     -29.847  27.060   2.355  0.00  0.00    +0.024 C 
ATOM     10  CD  PRO A   2     -30.004  28.070   3.481  0.00  0.00    +0.094 C 
ATOM     11  C   ALA A   1     -32.037  29.342   4.306  0.00  0.00    +0.205 C 
BRANCH  11  12
ATOM     12  CA  ALA A   1     -31.178  29.870   5.426  0.00  0.00    +0.013 C 
ATOM     13  CB  ALA A   1     -31.739  29.427   6.762  0.00  0.00    -0.015 C 
BRANCH  12  14
ATOM     14  N   ALA A   1     -31.182  31.319   5.312  0.00  0.00    +0.387 N 
ATOM     15  H1  ALA A   1     -30.351  31.698   5.767  0.00  0.00    -0.089 HD
ATOM     16  H2  ALA A   1     -32.017  31.693   5.764  0.00  0.00    -0.089 HD
ATOM     17  H3  ALA A   1     -31.181  31.583   4.327  0.00  0.00    -0.089 HD
ENDBRANCH  12  14
ENDBRANCH  11  12
ENDBRANCH   3   7
BRANCH   2  18
ATOM     18  CA  TYR A   3     -35.393  26.333   2.643  0.00  0.00    +0.176 C 
BRANCH  18  20
ATOM     19  OXT TYR A   3     -37.640  26.133   1.768  0.00  0.00    -0.248 OA
ATOM     20  C   TYR A   3     -36.695  26.861   2.060  0.00  0.00    +0.332 C 
BRANCH  20  21
ATOM     21  O   TYR A   3     -36.739  28.204   1.887  0.00  0.00    -0.479 OA
ATOM     22  H   TYR A   3     -36.777  28.770   2.633  0.00  0.00    +0.295 HD
ENDBRANCH  20  21
ENDBRANCH  18  20
BRANCH  18  23
ATOM     23  CB  TYR A   3     -35.554  26.094   4.149  0.00  0.00    +0.057 C 
BRANCH  23  24
ATOM     24  CG  TYR A   3     -35.483  24.633   4.524  0.00  0.00    -0.020 C 
ATOM     25  CD1 TYR A   3     -35.635  23.652   3.544  0.00  0.00    -0.001 C 
ATOM     26  CD2 TYR A   3     -35.265  24.264   5.851  0.00  0.00    -0.001 C 
ATOM     27  CE1 TYR A   3     -35.568  22.303   3.892  0.00  0.00    +0.036 C 
ATOM     28  CE2 TYR A   3     -35.198  22.914   6.199  0.00  0.00    +0.036 C 
ATOM     29  CZ  TYR A   3     -35.350  21.934   5.219  0.00  0.00    +0.134 C 
BRANCH  29  30
ATOM     30  OH  TYR A   3     -35.284  20.618   5.558  0.00  0.00    -0.506 OA
ATOM     31  HH  TYR A   3     -34.512  20.123   5.366  0.00  0.00    +0.292 HD
ENDBRANCH  29  30
ENDBRANCH  23  24
ENDBRANCH  18  23
ENDBRANCH   2  18
TORSDOF 9
ENDMDL
MODEL 8
REMARK VINA RESULT:      -6.0      4.979      8.200
REMARK  Name = 53734706
REMARK  9 active torsions:
REMARK  status: ('A' for Active; 'I' for Inactive)
REMARK    1  A    between atoms: N_2  and  CA_18
REMARK    2  A    between atoms: C_3  and  CA_7
REMARK    3  A    between atoms: C_11  and  CA_12
REMARK    4  A    between atoms: CA_12  and  N_14
REMARK    5  A    between atoms: CA_18  and  C_20
REMARK    6  A    between atoms: CA_18  and  CB_23
REMARK    7  A    between atoms: C_20  and  O_21
REMARK    8  A    between atoms: CB_23  and  CG_24
REMARK    9  A    between atoms: CZ_29  and  OH_30
REMARK                            x       y       z     vdW  Elec       q    Type
REMARK                         _______ _______ _______ _____ _____    ______ ____
ROOT
ATOM      1  O   PRO A   2     -36.974  23.326   0.454  0.00  0.00    -0.273 OA
ATOM      2  N   TYR A   3     -36.655  21.610   1.992  0.00  0.00    -0.295 N 
ATOM      3  C   PRO A   2     -37.149  22.829   1.563  0.00  0.00    +0.241 C 
ATOM      4  H   TYR A   3     -36.863  21.317   2.909  0.00  0.00    +0.150 HD
ENDROOT
BRANCH   3   7
ATOM      5  O   ALA A   1     -35.660  23.614   4.315  0.00  0.00    -0.277 OA
ATOM      6  N   PRO A   2     -37.243  24.703   3.026  0.00  0.00    -0.275 N 
ATOM      7  CA  PRO A   2     -37.973  23.511   2.614  0.00  0.00    +0.152 C 
ATOM      8  CB  PRO A   2     -39.288  24.035   2.051  0.00  0.00    +0.031 C 
ATOM      9  CG  PRO A   2     -38.920  25.418   1.519  0.00  0.00    +0.024 C 
ATOM     10  CD  PRO A   2     -37.887  25.914   2.521  0.00  0.00    +0.094 C 
ATOM     11  C   ALA A   1     -36.178  24.657   3.910  0.00  0.00    +0.205 C 
BRANCH  11  12
ATOM     12  CA  ALA A   1     -35.652  25.995   4.364  0.00  0.00    +0.013 C 
ATOM     13  CB  ALA A   1     -34.175  25.889   4.685  0.00  0.00    -0.015 C 
BRANCH  12  14
ATOM     14  N   ALA A   1     -36.417  26.371   5.542  0.00  0.00    +0.387 N 
ATOM     15  H1  ALA A   1     -36.875  25.545   5.927  0.00  0.00    -0.089 HD
ATOM     16  H2  ALA A   1     -37.121  27.062   5.283  0.00  0.00    -0.089 HD
ATOM     17  H3  ALA A   1     -35.789  26.769   6.241  0.00  0.00    -0.089 HD
ENDBRANCH  12  14
ENDBRANCH  11  12
ENDBRANCH   3   7
BRANCH   2  18
ATOM     18  CA  TYR A   3     -35.850  20.745   1.161  0.00  0.00    +0.176 C 
BRANCH  18  20
ATOM     19  OXT TYR A   3     -37.175  20.094  -0.756  0.00  0.00    -0.248 OA
ATOM     20  C   TYR A   3     -36.721  19.801   0.346  0.00  0.00    +0.332 C 
BRANCH  20  21
ATOM     21  O   TYR A   3     -36.959  18.601   0.928  0.00  0.00    -0.479 OA
ATOM     22  H   TYR A   3     -37.705  18.490   1.485  0.00  0.00    +0.295 HD
ENDBRANCH  20  21
ENDBRANCH  18  20
BRANCH  18  23
ATOM     23  CB  TYR A   3     -34.852  19.940   2.003  0.00  0.00    +0.057 C 
BRANCH  23  24
ATOM     24  CG  TYR A   3     -33.548  19.683   1.285  0.00  0.00    -0.020 C 
ATOM     25  CD1 TYR A   3     -32.860  18.488   1.494  0.00  0.00    -0.001 C 
ATOM     26  CD2 TYR A   3     -33.033  20.641   0.413  0.00  0.00    -0.001 C 
ATOM     27  CE1 TYR A   3     -31.657  18.252   0.830  0.00  0.00    +0.036 C 
ATOM     28  CE2 TYR A   3     -31.829  20.404  -0.252  0.00  0.00    +0.036 C 
ATOM     29  CZ  TYR A   3     -31.141  19.209  -0.042  0.00  0.00    +0.134 C 
BRANCH  29  30
ATOM     30  OH  TYR A   3     -29.967  18.978  -0.690  0.00  0.00    -0.506 OA
ATOM     31  HH  TYR A   3     -29.836  19.313  -1.556  0.00  0.00    +0.292 HD
ENDBRANCH  29  30
ENDBRANCH  23  24
ENDBRANCH  18  23
ENDBRANCH   2  18
TORSDOF 9
ENDMDL
MODEL 9
REMARK VINA RESULT:      -6.0      5.638      7.891
REMARK  Name = 53734706
REMARK  9 active torsions:
REMARK  status: ('A' for Active; 'I' for Inactive)
REMARK    1  A    between atoms: N_2  and  CA_18
REMARK    2  A    between atoms: C_3  and  CA_7
REMARK    3  A    between atoms: C_11  and  CA_12
REMARK    4  A    between atoms: CA_12  and  N_14
REMARK    5  A    between atoms: CA_18  and  C_20
REMARK    6  A    between atoms: CA_18  and  CB_23
REMARK    7  A    between atoms: C_20  and  O_21
REMARK    8  A    between atoms: CB_23  and  CG_24
REMARK    9  A    between atoms: CZ_29  and  OH_30
REMARK                            x       y       z     vdW  Elec       q    Type
REMARK                         _______ _______ _______ _____ _____    ______ ____
ROOT
ATOM      1  O   PRO A   2     -37.331  23.023  -0.264  0.00  0.00    -0.273 OA
ATOM      2  N   TYR A   3     -35.883  22.736   1.536  0.00  0.00    -0.295 N 
ATOM      3  C   PRO A   2     -36.710  23.466   0.699  0.00  0.00    +0.241 C 
ATOM      4  H   TYR A   3     -35.436  23.205   2.277  0.00  0.00    +0.150 HD
ENDROOT
BRANCH   3   7
ATOM      5  O   ALA A   1     -37.626  24.081   3.730  0.00  0.00    -0.277 OA
ATOM      6  N   PRO A   2     -36.048  25.051   2.344  0.00  0.00    -0.275 N 
ATOM      7  CA  PRO A   2     -36.801  24.906   1.105  0.00  0.00    +0.152 C 
ATOM      8  CB  PRO A   2     -36.094  25.820   0.112  0.00  0.00    +0.031 C 
ATOM      9  CG  PRO A   2     -34.649  25.828   0.603  0.00  0.00    +0.024 C 
ATOM     10  CD  PRO A   2     -34.794  25.767   2.117  0.00  0.00    +0.094 C 
ATOM     11  C   ALA A   1     -36.563  24.685   3.577  0.00  0.00    +0.205 C 
BRANCH  11  12
ATOM     12  CA  ALA A   1     -35.724  25.065   4.770  0.00  0.00    +0.013 C 
ATOM     13  CB  ALA A   1     -35.508  23.856   5.657  0.00  0.00    -0.015 C 
BRANCH  12  14
ATOM     14  N   ALA A   1     -36.445  26.109   5.478  0.00  0.00    +0.387 N 
ATOM     15  H1  ALA A   1     -37.431  26.077   5.218  0.00  0.00    -0.089 HD
ATOM     16  H2  ALA A   1     -36.057  27.019   5.228  0.00  0.00    -0.089 HD
ATOM     17  H3  ALA A   1     -36.353  25.964   6.483  0.00  0.00    -0.089 HD
ENDBRANCH  12  14
ENDBRANCH  11  12
ENDBRANCH   3   7
BRANCH   2  18
ATOM     18  CA  TYR A   3     -35.644  21.321   1.374  0.00  0.00    +0.176 C 
BRANCH  18  20
ATOM     19  OXT TYR A   3     -35.238  20.744   3.688  0.00  0.00    -0.248 OA
ATOM     20  C   TYR A   3     -35.902  20.569   2.671  0.00  0.00    +0.332 C 
BRANCH  20  21
ATOM     21  O   TYR A   3     -36.930  19.688   2.624  0.00  0.00    -0.479 OA
ATOM     22  H   TYR A   3     -37.588  19.771   1.961  0.00  0.00    +0.295 HD
ENDBRANCH  20  21
ENDBRANCH  18  20
BRANCH  18  23
ATOM     23  CB  TYR A   3     -34.212  21.053   0.892  0.00  0.00    +0.057 C 
BRANCH  23  24
ATOM     24  CG  TYR A   3     -33.933  19.587   0.661  0.00  0.00    -0.020 C 
ATOM     25  CD1 TYR A   3     -34.809  18.822  -0.110  0.00  0.00    -0.001 C 
ATOM     26  CD2 TYR A   3     -32.800  18.997   1.220  0.00  0.00    -0.001 C 
ATOM     27  CE1 TYR A   3     -34.550  17.469  -0.323  0.00  0.00    +0.036 C 
ATOM     28  CE2 TYR A   3     -32.541  17.642   1.007  0.00  0.00    +0.036 C 
ATOM     29  CZ  TYR A   3     -33.417  16.879   0.235  0.00  0.00    +0.134 C 
BRANCH  29  30
ATOM     30  OH  TYR A   3     -33.164  15.558   0.027  0.00  0.00    -0.506 OA
ATOM     31  HH  TYR A   3     -33.634  15.090  -0.636  0.00  0.00    +0.292 HD
ENDBRANCH  29  30
ENDBRANCH  23  24
ENDBRANCH  18  23
ENDBRANCH   2  18
TORSDOF 9
ENDMDL
