MODEL 1
REMARK VINA RESULT:      -6.0      0.000      0.000
REMARK  Name = 195267
REMARK  12 active torsions:
REMARK  status: ('A' for Active; 'I' for Inactive)
REMARK    1  A    between atoms: C_2  and  C_9
REMARK    2  A    between atoms: C_3  and  C_19
REMARK    3  A    between atoms: C_4  and  C_24
REMARK    4  A    between atoms: C_5  and  C_27
REMARK    5  A    between atoms: C_12  and  N_17
REMARK    6  A    between atoms: C_19  and  O_20
REMARK    7  A    between atoms: O_20  and  C_21
REMARK    8  A    between atoms: C_24  and  O_25
REMARK    9  A    between atoms: C_27  and  S_28
REMARK   10  A    between atoms: S_28  and  C_29
REMARK   11  A    between atoms: C_29  and  C_30
REMARK   12  A    between atoms: C_30  and  N_32
REMARK                            x       y       z     vdW  Elec       q    Type
REMARK                         _______ _______ _______ _____ _____    ______ ____
ROOT
ATOM      1  N   UNL     1     -37.681  25.858   3.619  0.00  0.00    -0.333 N 
ATOM      2  C   UNL     1     -36.977  23.128   3.329  0.00  0.00    +0.011 C 
ATOM      3  C   UNL     1     -38.162  23.774   2.605  0.00  0.00    +0.072 C 
ATOM      4  C   UNL     1     -36.321  24.064   4.350  0.00  0.00    +0.085 C 
ATOM      5  C   UNL     1     -38.444  25.088   2.756  0.00  0.00    +0.109 C 
ATOM      6  C   UNL     1     -36.673  25.367   4.434  0.00  0.00    +0.028 C 
ATOM      7  C   UNL     1     -36.060  26.379   5.363  0.00  0.00    +0.047 C 
ATOM      8  H   UNL     1     -37.869  26.824   3.657  0.00  0.00    +0.147 HD
ENDROOT
BRANCH   2   9
ATOM      9  C   UNL     1     -35.956  22.663   2.330  0.00  0.00    +0.002 C 
ATOM     10  C   UNL     1     -35.681  21.301   2.198  0.00  0.00    +0.024 C 
ATOM     11  C   UNL     1     -35.285  23.592   1.537  0.00  0.00    +0.000 C 
ATOM     12  C   UNL     1     -34.733  20.870   1.269  0.00  0.00    +0.143 C 
ATOM     13  C   UNL     1     -34.338  23.160   0.608  0.00  0.00    +0.002 C 
ATOM     14  C   UNL     1     -34.061  21.799   0.475  0.00  0.00    +0.024 C 
BRANCH  12  17
ATOM     15  O   UNL     1     -35.226  18.773   0.447  0.00  0.00    -0.126 OA
ATOM     16  O   UNL     1     -33.439  19.010   1.701  0.00  0.00    -0.126 OA
ATOM     17  N   UNL     1     -34.452  19.485   1.133  0.00  0.00    +0.058 N 
ENDBRANCH  12  17
ENDBRANCH   2   9
BRANCH   3  19
ATOM     18  O   UNL     1     -39.940  22.253   2.228  0.00  0.00    -0.245 OA
ATOM     19  C   UNL     1     -38.997  22.882   1.784  0.00  0.00    +0.339 C 
BRANCH  19  20
ATOM     20  O   UNL     1     -38.528  22.905   0.514  0.00  0.00    -0.446 OA
BRANCH  20  21
ATOM     21  C   UNL     1     -39.075  21.906  -0.354  0.00  0.00    +0.209 C 
ATOM     22  C   UNL     1     -38.125  20.728  -0.409  0.00  0.00    +0.051 C 
ENDBRANCH  20  21
ENDBRANCH  19  20
ENDBRANCH   3  19
BRANCH   4  24
ATOM     23  O   UNL     1     -34.162  23.788   5.287  0.00  0.00    -0.245 OA
ATOM     24  C   UNL     1     -35.334  23.460   5.259  0.00  0.00    +0.342 C 
BRANCH  24  25
ATOM     25  O   UNL     1     -35.962  22.523   6.010  0.00  0.00    -0.441 OA
ATOM     26  C   UNL     1     -35.277  21.270   6.113  0.00  0.00    +0.256 C 
ENDBRANCH  24  25
ENDBRANCH   4  24
BRANCH   5  27
ATOM     27  C   UNL     1     -39.550  25.828   2.053  0.00  0.00    +0.082 C 
BRANCH  27  28
ATOM     28  S   UNL     1     -40.928  26.070   3.189  0.00  0.00    -0.136 S 
BRANCH  28  29
ATOM     29  C   UNL     1     -42.191  26.560   1.990  0.00  0.00    +0.079 C 
BRANCH  29  30
ATOM     30  C   UNL     1     -42.580  28.026   2.131  0.00  0.00    +0.101 C 
BRANCH  30  32
ATOM     31  O   UNL     1     -42.146  29.079   4.834  0.00  0.00    -0.265 OA
ATOM     32  N   UNL     1     -43.557  28.253   3.161  0.00  0.00    -0.296 N 
ATOM     33  C   UNL     1     -43.248  28.755   4.409  0.00  0.00    +0.300 C 
ATOM     34  H   UNL     1     -44.498  28.038   2.966  0.00  0.00    +0.150 HD
ENDBRANCH  30  32
ENDBRANCH  29  30
ENDBRANCH  28  29
ENDBRANCH  27  28
ENDBRANCH   5  27
TORSDOF 12
ENDMDL
MODEL 2
REMARK VINA RESULT:      -5.7      1.665      2.009
REMARK  Name = 195267
REMARK  12 active torsions:
REMARK  status: ('A' for Active; 'I' for Inactive)
REMARK    1  A    between atoms: C_2  and  C_9
REMARK    2  A    between atoms: C_3  and  C_19
REMARK    3  A    between atoms: C_4  and  C_24
REMARK    4  A    between atoms: C_5  and  C_27
REMARK    5  A    between atoms: C_12  and  N_17
REMARK    6  A    between atoms: C_19  and  O_20
REMARK    7  A    between atoms: O_20  and  C_21
REMARK    8  A    between atoms: C_24  and  O_25
REMARK    9  A    between atoms: C_27  and  S_28
REMARK   10  A    between atoms: S_28  and  C_29
REMARK   11  A    between atoms: C_29  and  C_30
REMARK   12  A    between atoms: C_30  and  N_32
REMARK                            x       y       z     vdW  Elec       q    Type
REMARK                         _______ _______ _______ _____ _____    ______ ____
ROOT
ATOM      1  N   UNL     1     -37.830  25.407   2.533  0.00  0.00    -0.333 N 
ATOM      2  C   UNL     1     -37.067  22.727   3.049  0.00  0.00    +0.011 C 
ATOM      3  C   UNL     1     -38.237  23.110   2.137  0.00  0.00    +0.072 C 
ATOM      4  C   UNL     1     -36.466  23.930   3.782  0.00  0.00    +0.085 C 
ATOM      5  C   UNL     1     -38.548  24.405   1.901  0.00  0.00    +0.109 C 
ATOM      6  C   UNL     1     -36.844  25.194   3.483  0.00  0.00    +0.028 C 
ATOM      7  C   UNL     1     -36.282  26.444   4.106  0.00  0.00    +0.047 C 
ATOM      8  H   UNL     1     -38.036  26.339   2.290  0.00  0.00    +0.147 HD
ENDROOT
BRANCH   2   9
ATOM      9  C   UNL     1     -36.003  22.026   2.254  0.00  0.00    +0.002 C 
ATOM     10  C   UNL     1     -35.294  22.722   1.274  0.00  0.00    +0.024 C 
ATOM     11  C   UNL     1     -35.724  20.682   2.496  0.00  0.00    +0.000 C 
ATOM     12  C   UNL     1     -34.305  22.070   0.536  0.00  0.00    +0.143 C 
ATOM     13  C   UNL     1     -34.735  20.032   1.759  0.00  0.00    +0.002 C 
ATOM     14  C   UNL     1     -34.026  20.725   0.778  0.00  0.00    +0.024 C 
BRANCH  12  17
ATOM     15  O   UNL     1     -32.331  22.817  -0.391  0.00  0.00    -0.126 OA
ATOM     16  O   UNL     1     -34.216  23.342  -1.386  0.00  0.00    -0.126 OA
ATOM     17  N   UNL     1     -33.583  22.777  -0.461  0.00  0.00    +0.058 N 
ENDBRANCH  12  17
ENDBRANCH   2   9
BRANCH   3  19
ATOM     18  O   UNL     1     -39.927  21.449   2.183  0.00  0.00    -0.245 OA
ATOM     19  C   UNL     1     -39.025  22.000   1.578  0.00  0.00    +0.339 C 
BRANCH  19  20
ATOM     20  O   UNL     1     -38.570  21.737   0.330  0.00  0.00    -0.446 OA
BRANCH  20  21
ATOM     21  C   UNL     1     -38.468  20.347   0.001  0.00  0.00    +0.209 C 
ATOM     22  C   UNL     1     -37.289  20.144  -0.926  0.00  0.00    +0.051 C 
ENDBRANCH  20  21
ENDBRANCH  19  20
ENDBRANCH   3  19
BRANCH   4  24
ATOM     23  O   UNL     1     -34.334  23.975   4.816  0.00  0.00    -0.245 OA
ATOM     24  C   UNL     1     -35.502  23.635   4.854  0.00  0.00    +0.342 C 
BRANCH  24  25
ATOM     25  O   UNL     1     -36.145  22.950   5.831  0.00  0.00    -0.441 OA
ATOM     26  C   UNL     1     -35.480  21.763   6.277  0.00  0.00    +0.256 C 
ENDBRANCH  24  25
ENDBRANCH   4  24
BRANCH   5  27
ATOM     27  C   UNL     1     -39.640  24.886   0.985  0.00  0.00    +0.082 C 
BRANCH  27  28
ATOM     28  S   UNL     1     -39.606  26.686   0.902  0.00  0.00    -0.136 S 
BRANCH  28  29
ATOM     29  C   UNL     1     -41.301  27.019   1.439  0.00  0.00    +0.079 C 
BRANCH  29  30
ATOM     30  C   UNL     1     -41.613  26.383   2.788  0.00  0.00    +0.101 C 
BRANCH  30  32
ATOM     31  O   UNL     1     -42.013  28.749   4.475  0.00  0.00    -0.265 OA
ATOM     32  N   UNL     1     -42.839  26.861   3.365  0.00  0.00    -0.296 N 
ATOM     33  C   UNL     1     -42.922  27.994   4.151  0.00  0.00    +0.300 C 
ATOM     34  H   UNL     1     -43.665  26.354   3.191  0.00  0.00    +0.150 HD
ENDBRANCH  30  32
ENDBRANCH  29  30
ENDBRANCH  28  29
ENDBRANCH  27  28
ENDBRANCH   5  27
TORSDOF 12
ENDMDL
MODEL 3
REMARK VINA RESULT:      -5.7      3.231      7.542
REMARK  Name = 195267
REMARK  12 active torsions:
REMARK  status: ('A' for Active; 'I' for Inactive)
REMARK    1  A    between atoms: C_2  and  C_9
REMARK    2  A    between atoms: C_3  and  C_19
REMARK    3  A    between atoms: C_4  and  C_24
REMARK    4  A    between atoms: C_5  and  C_27
REMARK    5  A    between atoms: C_12  and  N_17
REMARK    6  A    between atoms: C_19  and  O_20
REMARK    7  A    between atoms: O_20  and  C_21
REMARK    8  A    between atoms: C_24  and  O_25
REMARK    9  A    between atoms: C_27  and  S_28
REMARK   10  A    between atoms: S_28  and  C_29
REMARK   11  A    between atoms: C_29  and  C_30
REMARK   12  A    between atoms: C_30  and  N_32
REMARK                            x       y       z     vdW  Elec       q    Type
REMARK                         _______ _______ _______ _____ _____    ______ ____
ROOT
ATOM      1  N   UNL     1     -35.562  21.333   4.054  0.00  0.00    -0.333 N 
ATOM      2  C   UNL     1     -35.583  23.879   2.808  0.00  0.00    +0.011 C 
ATOM      3  C   UNL     1     -35.623  22.559   2.030  0.00  0.00    +0.072 C 
ATOM      4  C   UNL     1     -35.360  23.677   4.310  0.00  0.00    +0.085 C 
ATOM      5  C   UNL     1     -35.637  21.368   2.670  0.00  0.00    +0.109 C 
ATOM      6  C   UNL     1     -35.384  22.443   4.863  0.00  0.00    +0.028 C 
ATOM      7  C   UNL     1     -35.226  22.140   6.329  0.00  0.00    +0.047 C 
ATOM      8  H   UNL     1     -35.641  20.455   4.493  0.00  0.00    +0.147 HD
ENDROOT
BRANCH   2   9
ATOM      9  C   UNL     1     -36.850  24.650   2.577  0.00  0.00    +0.002 C 
ATOM     10  C   UNL     1     -36.812  25.865   1.892  0.00  0.00    +0.024 C 
ATOM     11  C   UNL     1     -38.065  24.151   3.046  0.00  0.00    +0.000 C 
ATOM     12  C   UNL     1     -37.990  26.581   1.677  0.00  0.00    +0.143 C 
ATOM     13  C   UNL     1     -39.242  24.867   2.831  0.00  0.00    +0.002 C 
ATOM     14  C   UNL     1     -39.205  26.082   2.147  0.00  0.00    +0.024 C 
BRANCH  12  17
ATOM     15  O   UNL     1     -36.936  28.546   1.092  0.00  0.00    -0.126 OA
ATOM     16  O   UNL     1     -38.933  28.148   0.271  0.00  0.00    -0.126 OA
ATOM     17  N   UNL     1     -37.952  27.818   0.980  0.00  0.00    +0.058 N 
ENDBRANCH  12  17
ENDBRANCH   2   9
BRANCH   3  19
ATOM     18  O   UNL     1     -34.587  22.909  -0.072  0.00  0.00    -0.245 OA
ATOM     19  C   UNL     1     -35.595  22.660   0.562  0.00  0.00    +0.339 C 
BRANCH  19  20
ATOM     20  O   UNL     1     -36.845  22.433   0.094  0.00  0.00    -0.446 OA
BRANCH  20  21
ATOM     21  C   UNL     1     -37.291  23.343  -0.918  0.00  0.00    +0.209 C 
ATOM     22  C   UNL     1     -38.749  23.669  -0.680  0.00  0.00    +0.051 C 
ENDBRANCH  20  21
ENDBRANCH  19  20
ENDBRANCH   3  19
BRANCH   4  24
ATOM     23  O   UNL     1     -35.895  25.437   5.804  0.00  0.00    -0.245 OA
ATOM     24  C   UNL     1     -35.070  24.884   5.101  0.00  0.00    +0.342 C 
BRANCH  24  25
ATOM     25  O   UNL     1     -33.775  25.227   4.898  0.00  0.00    -0.441 OA
ATOM     26  C   UNL     1     -33.564  26.586   4.499  0.00  0.00    +0.256 C 
ENDBRANCH  24  25
ENDBRANCH   4  24
BRANCH   5  27
ATOM     27  C   UNL     1     -35.726  20.022   2.004  0.00  0.00    +0.082 C 
BRANCH  27  28
ATOM     28  S   UNL     1     -34.086  19.509   1.461  0.00  0.00    -0.136 S 
BRANCH  28  29
ATOM     29  C   UNL     1     -34.467  19.156  -0.272  0.00  0.00    +0.079 C 
BRANCH  29  30
ATOM     30  C   UNL     1     -35.352  17.927  -0.427  0.00  0.00    +0.101 C 
BRANCH  30  32
ATOM     31  O   UNL     1     -36.461  15.211  -0.392  0.00  0.00    -0.265 OA
ATOM     32  N   UNL     1     -34.707  16.712  -0.009  0.00  0.00    -0.296 N 
ATOM     33  C   UNL     1     -35.321  15.475  -0.031  0.00  0.00    +0.300 C 
ATOM     34  H   UNL     1     -33.777  16.765   0.311  0.00  0.00    +0.150 HD
ENDBRANCH  30  32
ENDBRANCH  29  30
ENDBRANCH  28  29
ENDBRANCH  27  28
ENDBRANCH   5  27
TORSDOF 12
ENDMDL
MODEL 4
REMARK VINA RESULT:      -5.7      3.138      6.935
REMARK  Name = 195267
REMARK  12 active torsions:
REMARK  status: ('A' for Active; 'I' for Inactive)
REMARK    1  A    between atoms: C_2  and  C_9
REMARK    2  A    between atoms: C_3  and  C_19
REMARK    3  A    between atoms: C_4  and  C_24
REMARK    4  A    between atoms: C_5  and  C_27
REMARK    5  A    between atoms: C_12  and  N_17
REMARK    6  A    between atoms: C_19  and  O_20
REMARK    7  A    between atoms: O_20  and  C_21
REMARK    8  A    between atoms: C_24  and  O_25
REMARK    9  A    between atoms: C_27  and  S_28
REMARK   10  A    between atoms: S_28  and  C_29
REMARK   11  A    between atoms: C_29  and  C_30
REMARK   12  A    between atoms: C_30  and  N_32
REMARK                            x       y       z     vdW  Elec       q    Type
REMARK                         _______ _______ _______ _____ _____    ______ ____
ROOT
ATOM      1  N   UNL     1     -35.638  21.403   3.996  0.00  0.00    -0.333 N 
ATOM      2  C   UNL     1     -35.257  23.919   2.749  0.00  0.00    +0.011 C 
ATOM      3  C   UNL     1     -35.337  22.599   1.976  0.00  0.00    +0.072 C 
ATOM      4  C   UNL     1     -35.235  23.720   4.267  0.00  0.00    +0.085 C 
ATOM      5  C   UNL     1     -35.545  21.424   2.614  0.00  0.00    +0.109 C 
ATOM      6  C   UNL     1     -35.447  22.502   4.818  0.00  0.00    +0.028 C 
ATOM      7  C   UNL     1     -35.494  22.208   6.293  0.00  0.00    +0.047 C 
ATOM      8  H   UNL     1     -35.856  20.544   4.426  0.00  0.00    +0.147 HD
ENDROOT
BRANCH   2   9
ATOM      9  C   UNL     1     -36.405  24.809   2.366  0.00  0.00    +0.002 C 
ATOM     10  C   UNL     1     -37.716  24.400   2.613  0.00  0.00    +0.024 C 
ATOM     11  C   UNL     1     -36.160  26.042   1.763  0.00  0.00    +0.000 C 
ATOM     12  C   UNL     1     -38.782  25.228   2.257  0.00  0.00    +0.143 C 
ATOM     13  C   UNL     1     -37.226  26.869   1.409  0.00  0.00    +0.002 C 
ATOM     14  C   UNL     1     -38.537  26.461   1.655  0.00  0.00    +0.024 C 
BRANCH  12  17
ATOM     15  O   UNL     1     -40.480  23.673   2.130  0.00  0.00    -0.126 OA
ATOM     16  O   UNL     1     -40.896  25.596   3.104  0.00  0.00    -0.126 OA
ATOM     17  N   UNL     1     -40.117  24.813   2.509  0.00  0.00    +0.058 N 
ENDBRANCH  12  17
ENDBRANCH   2   9
BRANCH   3  19
ATOM     18  O   UNL     1     -34.029  22.801   0.010  0.00  0.00    -0.245 OA
ATOM     19  C   UNL     1     -35.127  22.674   0.522  0.00  0.00    +0.339 C 
BRANCH  19  20
ATOM     20  O   UNL     1     -36.330  22.579  -0.091  0.00  0.00    -0.446 OA
BRANCH  20  21
ATOM     21  C   UNL     1     -36.559  23.534  -1.134  0.00  0.00    +0.209 C 
ATOM     22  C   UNL     1     -38.017  23.940  -1.120  0.00  0.00    +0.051 C 
ENDBRANCH  20  21
ENDBRANCH  19  20
ENDBRANCH   3  19
BRANCH   4  24
ATOM     23  O   UNL     1     -35.718  25.422   5.843  0.00  0.00    -0.245 OA
ATOM     24  C   UNL     1     -34.921  24.903   5.083  0.00  0.00    +0.342 C 
BRANCH  24  25
ATOM     25  O   UNL     1     -33.642  25.271   4.830  0.00  0.00    -0.441 OA
ATOM     26  C   UNL     1     -33.446  26.671   4.606  0.00  0.00    +0.256 C 
ENDBRANCH  24  25
ENDBRANCH   4  24
BRANCH   5  27
ATOM     27  C   UNL     1     -35.689  20.084   1.946  0.00  0.00    +0.082 C 
BRANCH  27  28
ATOM     28  S   UNL     1     -34.062  19.470   1.473  0.00  0.00    -0.136 S 
BRANCH  28  29
ATOM     29  C   UNL     1     -34.531  18.574  -0.027  0.00  0.00    +0.079 C 
BRANCH  29  30
ATOM     30  C   UNL     1     -36.042  18.450  -0.175  0.00  0.00    +0.101 C 
BRANCH  30  32
ATOM     31  O   UNL     1     -38.744  17.404  -0.633  0.00  0.00    -0.265 OA
ATOM     32  N   UNL     1     -36.520  17.111   0.033  0.00  0.00    -0.296 N 
ATOM     33  C   UNL     1     -37.820  16.717  -0.214  0.00  0.00    +0.300 C 
ATOM     34  H   UNL     1     -35.886  16.437   0.371  0.00  0.00    +0.150 HD
ENDBRANCH  30  32
ENDBRANCH  29  30
ENDBRANCH  28  29
ENDBRANCH  27  28
ENDBRANCH   5  27
TORSDOF 12
ENDMDL
MODEL 5
REMARK VINA RESULT:      -5.6      2.681      3.366
REMARK  Name = 195267
REMARK  12 active torsions:
REMARK  status: ('A' for Active; 'I' for Inactive)
REMARK    1  A    between atoms: C_2  and  C_9
REMARK    2  A    between atoms: C_3  and  C_19
REMARK    3  A    between atoms: C_4  and  C_24
REMARK    4  A    between atoms: C_5  and  C_27
REMARK    5  A    between atoms: C_12  and  N_17
REMARK    6  A    between atoms: C_19  and  O_20
REMARK    7  A    between atoms: O_20  and  C_21
REMARK    8  A    between atoms: C_24  and  O_25
REMARK    9  A    between atoms: C_27  and  S_28
REMARK   10  A    between atoms: S_28  and  C_29
REMARK   11  A    between atoms: C_29  and  C_30
REMARK   12  A    between atoms: C_30  and  N_32
REMARK                            x       y       z     vdW  Elec       q    Type
REMARK                         _______ _______ _______ _____ _____    ______ ____
ROOT
ATOM      1  N   UNL     1     -37.570  25.524   2.524  0.00  0.00    -0.333 N 
ATOM      2  C   UNL     1     -36.954  22.818   3.100  0.00  0.00    +0.011 C 
ATOM      3  C   UNL     1     -38.103  23.243   2.180  0.00  0.00    +0.072 C 
ATOM      4  C   UNL     1     -36.286  24.003   3.804  0.00  0.00    +0.085 C 
ATOM      5  C   UNL     1     -38.343  24.547   1.915  0.00  0.00    +0.109 C 
ATOM      6  C   UNL     1     -36.595  25.279   3.477  0.00  0.00    +0.028 C 
ATOM      7  C   UNL     1     -35.964  26.509   4.070  0.00  0.00    +0.047 C 
ATOM      8  H   UNL     1     -37.725  26.459   2.259  0.00  0.00    +0.147 HD
ENDROOT
BRANCH   2   9
ATOM      9  C   UNL     1     -35.931  22.042   2.320  0.00  0.00    +0.002 C 
ATOM     10  C   UNL     1     -35.216  22.665   1.297  0.00  0.00    +0.024 C 
ATOM     11  C   UNL     1     -35.698  20.700   2.618  0.00  0.00    +0.000 C 
ATOM     12  C   UNL     1     -34.266  21.944   0.573  0.00  0.00    +0.143 C 
ATOM     13  C   UNL     1     -34.748  19.981   1.894  0.00  0.00    +0.002 C 
ATOM     14  C   UNL     1     -34.032  20.602   0.871  0.00  0.00    +0.024 C 
BRANCH  12  17
ATOM     15  O   UNL     1     -34.167  23.114  -1.412  0.00  0.00    -0.126 OA
ATOM     16  O   UNL     1     -32.282  22.585  -0.417  0.00  0.00    -0.126 OA
ATOM     17  N   UNL     1     -33.536  22.578  -0.469  0.00  0.00    +0.058 N 
ENDBRANCH  12  17
ENDBRANCH   2   9
BRANCH   3  19
ATOM     18  O   UNL     1     -39.859  21.655   2.279  0.00  0.00    -0.245 OA
ATOM     19  C   UNL     1     -38.952  22.166   1.648  0.00  0.00    +0.339 C 
BRANCH  19  20
ATOM     20  O   UNL     1     -38.541  21.879   0.390  0.00  0.00    -0.446 OA
BRANCH  20  21
ATOM     21  C   UNL     1     -38.573  20.490   0.042  0.00  0.00    +0.209 C 
ATOM     22  C   UNL     1     -37.350  20.161  -0.786  0.00  0.00    +0.051 C 
ENDBRANCH  20  21
ENDBRANCH  19  20
ENDBRANCH   3  19
BRANCH   4  24
ATOM     23  O   UNL     1     -34.154  23.966   4.840  0.00  0.00    -0.245 OA
ATOM     24  C   UNL     1     -35.336  23.680   4.881  0.00  0.00    +0.342 C 
BRANCH  24  25
ATOM     25  O   UNL     1     -36.010  23.039   5.867  0.00  0.00    -0.441 OA
ATOM     26  C   UNL     1     -35.384  21.846   6.353  0.00  0.00    +0.256 C 
ENDBRANCH  24  25
ENDBRANCH   4  24
BRANCH   5  27
ATOM     27  C   UNL     1     -39.410  25.066   0.990  0.00  0.00    +0.082 C 
BRANCH  27  28
ATOM     28  S   UNL     1     -40.895  25.447   1.938  0.00  0.00    -0.136 S 
BRANCH  28  29
ATOM     29  C   UNL     1     -42.127  24.746   0.813  0.00  0.00    +0.079 C 
BRANCH  29  30
ATOM     30  C   UNL     1     -41.490  23.909  -0.289  0.00  0.00    +0.101 C 
BRANCH  30  32
ATOM     31  O   UNL     1     -41.971  21.917  -2.388  0.00  0.00    -0.265 OA
ATOM     32  N   UNL     1     -41.731  22.500  -0.134  0.00  0.00    -0.296 N 
ATOM     33  C   UNL     1     -41.948  21.642  -1.194  0.00  0.00    +0.300 C 
ATOM     34  H   UNL     1     -41.742  22.126   0.777  0.00  0.00    +0.150 HD
ENDBRANCH  30  32
ENDBRANCH  29  30
ENDBRANCH  28  29
ENDBRANCH  27  28
ENDBRANCH   5  27
TORSDOF 12
ENDMDL
MODEL 6
REMARK VINA RESULT:      -5.6      3.121      7.685
REMARK  Name = 195267
REMARK  12 active torsions:
REMARK  status: ('A' for Active; 'I' for Inactive)
REMARK    1  A    between atoms: C_2  and  C_9
REMARK    2  A    between atoms: C_3  and  C_19
REMARK    3  A    between atoms: C_4  and  C_24
REMARK    4  A    between atoms: C_5  and  C_27
REMARK    5  A    between atoms: C_12  and  N_17
REMARK    6  A    between atoms: C_19  and  O_20
REMARK    7  A    between atoms: O_20  and  C_21
REMARK    8  A    between atoms: C_24  and  O_25
REMARK    9  A    between atoms: C_27  and  S_28
REMARK   10  A    between atoms: S_28  and  C_29
REMARK   11  A    between atoms: C_29  and  C_30
REMARK   12  A    between atoms: C_30  and  N_32
REMARK                            x       y       z     vdW  Elec       q    Type
REMARK                         _______ _______ _______ _____ _____    ______ ____
ROOT
ATOM      1  N   UNL     1     -35.594  21.402   3.948  0.00  0.00    -0.333 N 
ATOM      2  C   UNL     1     -35.243  23.944   2.745  0.00  0.00    +0.011 C 
ATOM      3  C   UNL     1     -35.284  22.634   1.951  0.00  0.00    +0.072 C 
ATOM      4  C   UNL     1     -35.241  23.721   4.261  0.00  0.00    +0.085 C 
ATOM      5  C   UNL     1     -35.480  21.446   2.568  0.00  0.00    +0.109 C 
ATOM      6  C   UNL     1     -35.438  22.492   4.789  0.00  0.00    +0.028 C 
ATOM      7  C   UNL     1     -35.503  22.174   6.259  0.00  0.00    +0.047 C 
ATOM      8  H   UNL     1     -35.802  20.533   4.361  0.00  0.00    +0.147 HD
ENDROOT
BRANCH   2   9
ATOM      9  C   UNL     1     -36.402  24.817   2.357  0.00  0.00    +0.002 C 
ATOM     10  C   UNL     1     -37.708  24.385   2.589  0.00  0.00    +0.024 C 
ATOM     11  C   UNL     1     -36.172  26.058   1.765  0.00  0.00    +0.000 C 
ATOM     12  C   UNL     1     -38.784  25.197   2.228  0.00  0.00    +0.143 C 
ATOM     13  C   UNL     1     -37.248  26.869   1.405  0.00  0.00    +0.002 C 
ATOM     14  C   UNL     1     -38.554  26.438   1.636  0.00  0.00    +0.024 C 
BRANCH  12  17
ATOM     15  O   UNL     1     -40.916  25.533   3.040  0.00  0.00    -0.126 OA
ATOM     16  O   UNL     1     -40.452  23.609   2.090  0.00  0.00    -0.126 OA
ATOM     17  N   UNL     1     -40.114  24.758   2.464  0.00  0.00    +0.058 N 
ENDBRANCH  12  17
ENDBRANCH   2   9
BRANCH   3  19
ATOM     18  O   UNL     1     -33.951  22.904   0.011  0.00  0.00    -0.245 OA
ATOM     19  C   UNL     1     -35.052  22.736   0.502  0.00  0.00    +0.339 C 
BRANCH  19  20
ATOM     20  O   UNL     1     -36.242  22.612  -0.132  0.00  0.00    -0.446 OA
BRANCH  20  21
ATOM     21  C   UNL     1     -36.502  23.601  -1.135  0.00  0.00    +0.209 C 
ATOM     22  C   UNL     1     -37.982  23.920  -1.142  0.00  0.00    +0.051 C 
ENDBRANCH  20  21
ENDBRANCH  19  20
ENDBRANCH   3  19
BRANCH   4  24
ATOM     23  O   UNL     1     -35.798  25.420   5.816  0.00  0.00    -0.245 OA
ATOM     24  C   UNL     1     -34.964  24.898   5.100  0.00  0.00    +0.342 C 
BRANCH  24  25
ATOM     25  O   UNL     1     -33.669  25.256   4.920  0.00  0.00    -0.441 OA
ATOM     26  C   UNL     1     -33.457  26.643   4.636  0.00  0.00    +0.256 C 
ENDBRANCH  24  25
ENDBRANCH   4  24
BRANCH   5  27
ATOM     27  C   UNL     1     -35.586  20.114   1.878  0.00  0.00    +0.082 C 
BRANCH  27  28
ATOM     28  S   UNL     1     -33.935  19.485   1.526  0.00  0.00    -0.136 S 
BRANCH  28  29
ATOM     29  C   UNL     1     -34.345  18.388   0.147  0.00  0.00    +0.079 C 
BRANCH  29  30
ATOM     30  C   UNL     1     -33.635  17.045   0.248  0.00  0.00    +0.101 C 
BRANCH  30  32
ATOM     31  O   UNL     1     -30.957  17.416   1.386  0.00  0.00    -0.265 OA
ATOM     32  N   UNL     1     -32.371  17.023  -0.436  0.00  0.00    -0.296 N 
ATOM     33  C   UNL     1     -31.158  17.211   0.195  0.00  0.00    +0.300 C 
ATOM     34  H   UNL     1     -32.371  16.867  -1.409  0.00  0.00    +0.150 HD
ENDBRANCH  30  32
ENDBRANCH  29  30
ENDBRANCH  28  29
ENDBRANCH  27  28
ENDBRANCH   5  27
TORSDOF 12
ENDMDL
MODEL 7
REMARK VINA RESULT:      -5.4      2.948      7.693
REMARK  Name = 195267
REMARK  12 active torsions:
REMARK  status: ('A' for Active; 'I' for Inactive)
REMARK    1  A    between atoms: C_2  and  C_9
REMARK    2  A    between atoms: C_3  and  C_19
REMARK    3  A    between atoms: C_4  and  C_24
REMARK    4  A    between atoms: C_5  and  C_27
REMARK    5  A    between atoms: C_12  and  N_17
REMARK    6  A    between atoms: C_19  and  O_20
REMARK    7  A    between atoms: O_20  and  C_21
REMARK    8  A    between atoms: C_24  and  O_25
REMARK    9  A    between atoms: C_27  and  S_28
REMARK   10  A    between atoms: S_28  and  C_29
REMARK   11  A    between atoms: C_29  and  C_30
REMARK   12  A    between atoms: C_30  and  N_32
REMARK                            x       y       z     vdW  Elec       q    Type
REMARK                         _______ _______ _______ _____ _____    ______ ____
ROOT
ATOM      1  N   UNL     1     -39.193  22.591   1.147  0.00  0.00    -0.333 N 
ATOM      2  C   UNL     1     -37.983  24.612   2.723  0.00  0.00    +0.011 C 
ATOM      3  C   UNL     1     -37.418  23.194   2.592  0.00  0.00    +0.072 C 
ATOM      4  C   UNL     1     -39.352  24.771   2.054  0.00  0.00    +0.085 C 
ATOM      5  C   UNL     1     -38.017  22.270   1.807  0.00  0.00    +0.109 C 
ATOM      6  C   UNL     1     -39.878  23.786   1.289  0.00  0.00    +0.028 C 
ATOM      7  C   UNL     1     -41.187  23.860   0.550  0.00  0.00    +0.047 C 
ATOM      8  H   UNL     1     -39.568  21.920   0.531  0.00  0.00    +0.147 HD
ENDROOT
BRANCH   2   9
ATOM      9  C   UNL     1     -37.014  25.606   2.150  0.00  0.00    +0.002 C 
ATOM     10  C   UNL     1     -36.318  26.468   2.998  0.00  0.00    +0.024 C 
ATOM     11  C   UNL     1     -36.811  25.666   0.772  0.00  0.00    +0.000 C 
ATOM     12  C   UNL     1     -35.417  27.391   2.465  0.00  0.00    +0.143 C 
ATOM     13  C   UNL     1     -35.911  26.589   0.240  0.00  0.00    +0.002 C 
ATOM     14  C   UNL     1     -35.214  27.452   1.086  0.00  0.00    +0.024 C 
BRANCH  12  17
ATOM     15  O   UNL     1     -33.946  27.781   4.197  0.00  0.00    -0.126 OA
ATOM     16  O   UNL     1     -34.860  29.508   3.194  0.00  0.00    -0.126 OA
ATOM     17  N   UNL     1     -34.708  28.269   3.327  0.00  0.00    +0.058 N 
ENDBRANCH  12  17
ENDBRANCH   2   9
BRANCH   3  19
ATOM     18  O   UNL     1     -35.144  22.613   2.916  0.00  0.00    -0.245 OA
ATOM     19  C   UNL     1     -36.228  22.883   3.400  0.00  0.00    +0.339 C 
BRANCH  19  20
ATOM     20  O   UNL     1     -36.567  22.955   4.709  0.00  0.00    -0.446 OA
BRANCH  20  21
ATOM     21  C   UNL     1     -35.488  23.253   5.601  0.00  0.00    +0.209 C 
ATOM     22  C   UNL     1     -35.120  22.000   6.366  0.00  0.00    +0.051 C 
ENDBRANCH  20  21
ENDBRANCH  19  20
ENDBRANCH   3  19
BRANCH   4  24
ATOM     23  O   UNL     1     -40.047  26.989   1.593  0.00  0.00    -0.245 OA
ATOM     24  C   UNL     1     -40.079  26.020   2.329  0.00  0.00    +0.342 C 
BRANCH  24  25
ATOM     25  O   UNL     1     -40.750  25.877   3.497  0.00  0.00    -0.441 OA
ATOM     26  C   UNL     1     -41.814  26.812   3.704  0.00  0.00    +0.256 C 
ENDBRANCH  24  25
ENDBRANCH   4  24
BRANCH   5  27
ATOM     27  C   UNL     1     -37.517  20.871   1.571  0.00  0.00    +0.082 C 
BRANCH  27  28
ATOM     28  S   UNL     1     -36.982  20.704  -0.141  0.00  0.00    -0.136 S 
BRANCH  28  29
ATOM     29  C   UNL     1     -35.197  20.605   0.136  0.00  0.00    +0.079 C 
BRANCH  29  30
ATOM     30  C   UNL     1     -34.831  19.528   1.150  0.00  0.00    +0.101 C 
BRANCH  30  32
ATOM     31  O   UNL     1     -32.406  17.971   1.697  0.00  0.00    -0.265 OA
ATOM     32  N   UNL     1     -34.411  18.298   0.537  0.00  0.00    -0.296 N 
ATOM     33  C   UNL     1     -33.243  17.639   0.868  0.00  0.00    +0.300 C 
ATOM     34  H   UNL     1     -34.988  17.902  -0.157  0.00  0.00    +0.150 HD
ENDBRANCH  30  32
ENDBRANCH  29  30
ENDBRANCH  28  29
ENDBRANCH  27  28
ENDBRANCH   5  27
TORSDOF 12
ENDMDL
MODEL 8
REMARK VINA RESULT:      -5.3      3.514      6.409
REMARK  Name = 195267
REMARK  12 active torsions:
REMARK  status: ('A' for Active; 'I' for Inactive)
REMARK    1  A    between atoms: C_2  and  C_9
REMARK    2  A    between atoms: C_3  and  C_19
REMARK    3  A    between atoms: C_4  and  C_24
REMARK    4  A    between atoms: C_5  and  C_27
REMARK    5  A    between atoms: C_12  and  N_17
REMARK    6  A    between atoms: C_19  and  O_20
REMARK    7  A    between atoms: O_20  and  C_21
REMARK    8  A    between atoms: C_24  and  O_25
REMARK    9  A    between atoms: C_27  and  S_28
REMARK   10  A    between atoms: S_28  and  C_29
REMARK   11  A    between atoms: C_29  and  C_30
REMARK   12  A    between atoms: C_30  and  N_32
REMARK                            x       y       z     vdW  Elec       q    Type
REMARK                         _______ _______ _______ _____ _____    ______ ____
ROOT
ATOM      1  N   UNL     1     -33.706  25.056   1.694  0.00  0.00    -0.333 N 
ATOM      2  C   UNL     1     -35.701  23.057   1.940  0.00  0.00    +0.011 C 
ATOM      3  C   UNL     1     -35.578  24.248   2.896  0.00  0.00    +0.072 C 
ATOM      4  C   UNL     1     -34.537  22.970   0.947  0.00  0.00    +0.085 C 
ATOM      5  C   UNL     1     -34.624  25.191   2.723  0.00  0.00    +0.109 C 
ATOM      6  C   UNL     1     -33.623  23.962   0.848  0.00  0.00    +0.028 C 
ATOM      7  C   UNL     1     -32.475  23.997  -0.124  0.00  0.00    +0.047 C 
ATOM      8  H   UNL     1     -33.067  25.792   1.553  0.00  0.00    +0.147 HD
ENDROOT
BRANCH   2   9
ATOM      9  C   UNL     1     -37.004  23.126   1.197  0.00  0.00    +0.002 C 
ATOM     10  C   UNL     1     -38.021  22.217   1.488  0.00  0.00    +0.024 C 
ATOM     11  C   UNL     1     -37.197  24.100   0.218  0.00  0.00    +0.000 C 
ATOM     12  C   UNL     1     -39.232  22.282   0.798  0.00  0.00    +0.143 C 
ATOM     13  C   UNL     1     -38.408  24.165  -0.471  0.00  0.00    +0.002 C 
ATOM     14  C   UNL     1     -39.425  23.256  -0.181  0.00  0.00    +0.024 C 
BRANCH  12  17
ATOM     15  O   UNL     1     -40.460  21.021   2.288  0.00  0.00    -0.126 OA
ATOM     16  O   UNL     1     -40.963  20.900   0.154  0.00  0.00    -0.126 OA
ATOM     17  N   UNL     1     -40.268  21.357   1.094  0.00  0.00    +0.058 N 
ENDBRANCH  12  17
ENDBRANCH   2   9
BRANCH   3  19
ATOM     18  O   UNL     1     -37.264  25.214   4.253  0.00  0.00    -0.245 OA
ATOM     19  C   UNL     1     -36.515  24.280   4.030  0.00  0.00    +0.339 C 
BRANCH  19  20
ATOM     20  O   UNL     1     -36.381  23.129   4.730  0.00  0.00    -0.446 OA
BRANCH  20  21
ATOM     21  C   UNL     1     -35.448  23.182   5.815  0.00  0.00    +0.209 C 
ATOM     22  C   UNL     1     -34.949  21.783   6.105  0.00  0.00    +0.051 C 
ENDBRANCH  20  21
ENDBRANCH  19  20
ENDBRANCH   3  19
BRANCH   4  24
ATOM     23  O   UNL     1     -34.749  21.672  -1.025  0.00  0.00    -0.245 OA
ATOM     24  C   UNL     1     -34.441  21.735   0.151  0.00  0.00    +0.342 C 
BRANCH  24  25
ATOM     25  O   UNL     1     -33.969  20.748   0.949  0.00  0.00    -0.441 OA
ATOM     26  C   UNL     1     -34.739  19.541   0.941  0.00  0.00    +0.256 C 
ENDBRANCH  24  25
ENDBRANCH   4  24
BRANCH   5  27
ATOM     27  C   UNL     1     -34.451  26.421   3.572  0.00  0.00    +0.082 C 
BRANCH  27  28
ATOM     28  S   UNL     1     -34.869  27.883   2.605  0.00  0.00    -0.136 S 
BRANCH  28  29
ATOM     29  C   UNL     1     -33.458  28.923   3.053  0.00  0.00    +0.079 C 
BRANCH  29  30
ATOM     30  C   UNL     1     -32.537  28.242   4.057  0.00  0.00    +0.101 C 
BRANCH  30  32
ATOM     31  O   UNL     1     -30.708  27.769   6.301  0.00  0.00    -0.265 OA
ATOM     32  N   UNL     1     -32.517  28.897   5.336  0.00  0.00    -0.296 N 
ATOM     33  C   UNL     1     -31.608  28.599   6.332  0.00  0.00    +0.300 C 
ATOM     34  H   UNL     1     -33.188  29.597   5.512  0.00  0.00    +0.150 HD
ENDBRANCH  30  32
ENDBRANCH  29  30
ENDBRANCH  28  29
ENDBRANCH  27  28
ENDBRANCH   5  27
TORSDOF 12
ENDMDL
MODEL 9
REMARK VINA RESULT:      -5.3      3.240      7.543
REMARK  Name = 195267
REMARK  12 active torsions:
REMARK  status: ('A' for Active; 'I' for Inactive)
REMARK    1  A    between atoms: C_2  and  C_9
REMARK    2  A    between atoms: C_3  and  C_19
REMARK    3  A    between atoms: C_4  and  C_24
REMARK    4  A    between atoms: C_5  and  C_27
REMARK    5  A    between atoms: C_12  and  N_17
REMARK    6  A    between atoms: C_19  and  O_20
REMARK    7  A    between atoms: O_20  and  C_21
REMARK    8  A    between atoms: C_24  and  O_25
REMARK    9  A    between atoms: C_27  and  S_28
REMARK   10  A    between atoms: S_28  and  C_29
REMARK   11  A    between atoms: C_29  and  C_30
REMARK   12  A    between atoms: C_30  and  N_32
REMARK                            x       y       z     vdW  Elec       q    Type
REMARK                         _______ _______ _______ _____ _____    ______ ____
ROOT
ATOM      1  N   UNL     1     -35.537  21.434   4.021  0.00  0.00    -0.333 N 
ATOM      2  C   UNL     1     -35.183  23.995   2.860  0.00  0.00    +0.011 C 
ATOM      3  C   UNL     1     -35.161  22.693   2.052  0.00  0.00    +0.072 C 
ATOM      4  C   UNL     1     -35.246  23.757   4.372  0.00  0.00    +0.085 C 
ATOM      5  C   UNL     1     -35.361  21.495   2.648  0.00  0.00    +0.109 C 
ATOM      6  C   UNL     1     -35.442  22.518   4.879  0.00  0.00    +0.028 C 
ATOM      7  C   UNL     1     -35.567  22.184   6.341  0.00  0.00    +0.047 C 
ATOM      8  H   UNL     1     -35.746  20.557   4.416  0.00  0.00    +0.147 HD
ENDROOT
BRANCH   2   9
ATOM      9  C   UNL     1     -36.340  24.849   2.427  0.00  0.00    +0.002 C 
ATOM     10  C   UNL     1     -36.110  26.118   1.896  0.00  0.00    +0.024 C 
ATOM     11  C   UNL     1     -37.644  24.372   2.556  0.00  0.00    +0.000 C 
ATOM     12  C   UNL     1     -37.186  26.911   1.494  0.00  0.00    +0.143 C 
ATOM     13  C   UNL     1     -38.719  25.164   2.153  0.00  0.00    +0.002 C 
ATOM     14  C   UNL     1     -38.490  26.433   1.623  0.00  0.00    +0.024 C 
BRANCH  12  17
ATOM     15  O   UNL     1     -35.783  28.659   0.953  0.00  0.00    -0.126 OA
ATOM     16  O   UNL     1     -37.921  28.854   0.491  0.00  0.00    -0.126 OA
ATOM     17  N   UNL     1     -36.953  28.203   0.954  0.00  0.00    +0.058 N 
ENDBRANCH  12  17
ENDBRANCH   2   9
BRANCH   3  19
ATOM     18  O   UNL     1     -35.727  22.886  -0.241  0.00  0.00    -0.245 OA
ATOM     19  C   UNL     1     -34.865  22.815   0.616  0.00  0.00    +0.339 C 
BRANCH  19  20
ATOM     20  O   UNL     1     -33.521  22.829   0.456  0.00  0.00    -0.446 OA
BRANCH  20  21
ATOM     21  C   UNL     1     -33.023  23.855  -0.411  0.00  0.00    +0.209 C 
ATOM     22  C   UNL     1     -32.589  25.040   0.426  0.00  0.00    +0.051 C 
ENDBRANCH  20  21
ENDBRANCH  19  20
ENDBRANCH   3  19
BRANCH   4  24
ATOM     23  O   UNL     1     -35.916  25.452   5.886  0.00  0.00    -0.245 OA
ATOM     24  C   UNL     1     -35.031  24.930   5.233  0.00  0.00    +0.342 C 
BRANCH  24  25
ATOM     25  O   UNL     1     -33.726  25.286   5.154  0.00  0.00    -0.441 OA
ATOM     26  C   UNL     1     -33.489  26.687   4.975  0.00  0.00    +0.256 C 
ENDBRANCH  24  25
ENDBRANCH   4  24
BRANCH   5  27
ATOM     27  C   UNL     1     -35.409  20.168   1.941  0.00  0.00    +0.082 C 
BRANCH  27  28
ATOM     28  S   UNL     1     -37.039  19.936   1.208  0.00  0.00    -0.136 S 
BRANCH  28  29
ATOM     29  C   UNL     1     -36.559  18.932  -0.218  0.00  0.00    +0.079 C 
BRANCH  29  30
ATOM     30  C   UNL     1     -35.080  18.569  -0.195  0.00  0.00    +0.101 C 
BRANCH  30  32
ATOM     31  O   UNL     1     -32.529  17.226   0.346  0.00  0.00    -0.265 OA
ATOM     32  N   UNL     1     -34.847  17.170   0.036  0.00  0.00    -0.296 N 
ATOM     33  C   UNL     1     -33.599  16.634   0.283  0.00  0.00    +0.300 C 
ATOM     34  H   UNL     1     -35.620  16.560   0.017  0.00  0.00    +0.150 HD
ENDBRANCH  30  32
ENDBRANCH  29  30
ENDBRANCH  28  29
ENDBRANCH  27  28
ENDBRANCH   5  27
TORSDOF 12
ENDMDL
