MODEL 1
REMARK VINA RESULT:      -5.2      0.000      0.000
REMARK  Name = 195302
REMARK  19 active torsions:
REMARK  status: ('A' for Active; 'I' for Inactive)
REMARK    1  A    between atoms: C_2  and  C_4
REMARK    2  A    between atoms: C_3  and  C_15
REMARK    3  A    between atoms: C_4  and  O_5
REMARK    4  A    between atoms: C_4  and  C_7
REMARK    5  A    between atoms: C_7  and  O_8
REMARK    6  A    between atoms: C_7  and  C_10
REMARK    7  A    between atoms: C_10  and  C_11
REMARK    8  A    between atoms: C_11  and  C_12
REMARK    9  A    between atoms: C_12  and  C_13
REMARK   10  A    between atoms: C_15  and  O_16
REMARK   11  A    between atoms: C_15  and  C_18
REMARK   12  A    between atoms: C_18  and  C_19
REMARK   13  A    between atoms: C_19  and  C_20
REMARK   14  A    between atoms: C_20  and  C_21
REMARK   15  A    between atoms: C_21  and  C_22
REMARK   16  A    between atoms: C_22  and  C_23
REMARK   17  A    between atoms: C_23  and  C_24
REMARK   18  A    between atoms: C_24  and  C_26
REMARK   19  A    between atoms: C_26  and  O_27
REMARK                            x       y       z     vdW  Elec       q    Type
REMARK                         _______ _______ _______ _____ _____    ______ ____
ROOT
ATOM      1  O   UNL     1     -38.282  23.710   0.834  0.00  0.00    -0.349 OA
ATOM      2  C   UNL     1     -39.246  23.139   1.729  0.00  0.00    +0.174 C 
ATOM      3  C   UNL     1     -38.291  24.206   2.179  0.00  0.00    +0.171 C 
ENDROOT
BRANCH   2   4
ATOM      4  C   UNL     1     -39.008  21.715   2.060  0.00  0.00    +0.167 C 
BRANCH   4   5
ATOM      5  O   UNL     1     -40.249  20.999   2.082  0.00  0.00    -0.379 OA
ATOM      6  H   UNL     1     -40.667  21.103   2.950  0.00  0.00    +0.211 HD
ENDBRANCH   4   5
BRANCH   4   7
ATOM      7  C   UNL     1     -38.024  21.004   1.103  0.00  0.00    +0.140 C 
BRANCH   7   8
ATOM      8  O   UNL     1     -38.672  19.894   0.482  0.00  0.00    -0.382 OA
ATOM      9  H   UNL     1     -38.702  20.032  -0.478  0.00  0.00    +0.210 HD
ENDBRANCH   7   8
BRANCH   7  10
ATOM     10  C   UNL     1     -36.780  20.478   1.835  0.00  0.00    +0.032 C 
BRANCH  10  11
ATOM     11  C   UNL     1     -35.682  20.033   0.861  0.00  0.00    +0.003 C 
BRANCH  11  12
ATOM     12  C   UNL     1     -34.293  20.198   1.479  0.00  0.00    +0.000 C 
BRANCH  12  13
ATOM     13  C   UNL     1     -33.236  19.431   0.684  0.00  0.00    +0.000 C 
ATOM     14  C   UNL     1     -32.767  18.193   1.431  0.00  0.00    +0.000 C 
ENDBRANCH  12  13
ENDBRANCH  11  12
ENDBRANCH  10  11
ENDBRANCH   7  10
ENDBRANCH   4   7
ENDBRANCH   2   4
BRANCH   3  15
ATOM     15  C   UNL     1     -38.736  25.633   2.315  0.00  0.00    +0.140 C 
BRANCH  15  16
ATOM     16  O   UNL     1     -39.246  25.842   3.629  0.00  0.00    -0.382 OA
ATOM     17  H   UNL     1     -39.737  25.056   3.916  0.00  0.00    +0.210 HD
ENDBRANCH  15  16
BRANCH  15  18
ATOM     18  C   UNL     1     -37.578  26.606   2.067  0.00  0.00    +0.032 C 
BRANCH  18  19
ATOM     19  C   UNL     1     -36.222  26.000   2.439  0.00  0.00    +0.003 C 
BRANCH  19  20
ATOM     20  C   UNL     1     -35.641  26.665   3.689  0.00  0.00    +0.000 C 
BRANCH  20  21
ATOM     21  C   UNL     1     -36.035  25.906   4.958  0.00  0.00    +0.000 C 
BRANCH  21  22
ATOM     22  C   UNL     1     -34.828  25.199   5.577  0.00  0.00    +0.001 C 
BRANCH  22  23
ATOM     23  C   UNL     1     -34.342  23.979   4.785  0.00  0.00    +0.012 C 
BRANCH  23  24
ATOM     24  C   UNL     1     -35.424  22.931   4.516  0.00  0.00    +0.109 C 
BRANCH  24  26
ATOM     25  O   UNL     1     -36.011  22.099   6.730  0.00  0.00    -0.250 OA
ATOM     26  C   UNL     1     -35.560  21.896   5.612  0.00  0.00    +0.314 C 
BRANCH  26  27
ATOM     27  O   UNL     1     -35.080  20.688   5.216  0.00  0.00    -0.480 OA
ATOM     28  H   UNL     1     -35.520  20.206   4.543  0.00  0.00    +0.295 HD
ENDBRANCH  26  27
ENDBRANCH  24  26
ENDBRANCH  23  24
ENDBRANCH  22  23
ENDBRANCH  21  22
ENDBRANCH  20  21
ENDBRANCH  19  20
ENDBRANCH  18  19
ENDBRANCH  15  18
ENDBRANCH   3  15
TORSDOF 19
ENDMDL
MODEL 2
REMARK VINA RESULT:      -5.1      1.592      4.215
REMARK  Name = 195302
REMARK  19 active torsions:
REMARK  status: ('A' for Active; 'I' for Inactive)
REMARK    1  A    between atoms: C_2  and  C_4
REMARK    2  A    between atoms: C_3  and  C_15
REMARK    3  A    between atoms: C_4  and  O_5
REMARK    4  A    between atoms: C_4  and  C_7
REMARK    5  A    between atoms: C_7  and  O_8
REMARK    6  A    between atoms: C_7  and  C_10
REMARK    7  A    between atoms: C_10  and  C_11
REMARK    8  A    between atoms: C_11  and  C_12
REMARK    9  A    between atoms: C_12  and  C_13
REMARK   10  A    between atoms: C_15  and  O_16
REMARK   11  A    between atoms: C_15  and  C_18
REMARK   12  A    between atoms: C_18  and  C_19
REMARK   13  A    between atoms: C_19  and  C_20
REMARK   14  A    between atoms: C_20  and  C_21
REMARK   15  A    between atoms: C_21  and  C_22
REMARK   16  A    between atoms: C_22  and  C_23
REMARK   17  A    between atoms: C_23  and  C_24
REMARK   18  A    between atoms: C_24  and  C_26
REMARK   19  A    between atoms: C_26  and  O_27
REMARK                            x       y       z     vdW  Elec       q    Type
REMARK                         _______ _______ _______ _____ _____    ______ ____
ROOT
ATOM      1  O   UNL     1     -35.073  22.540   2.729  0.00  0.00    -0.349 OA
ATOM      2  C   UNL     1     -36.033  21.477   2.795  0.00  0.00    +0.174 C 
ATOM      3  C   UNL     1     -35.235  21.892   3.997  0.00  0.00    +0.171 C 
ENDROOT
BRANCH   2   4
ATOM      4  C   UNL     1     -35.668  20.271   2.018  0.00  0.00    +0.167 C 
BRANCH   4   5
ATOM      5  O   UNL     1     -36.811  19.423   1.856  0.00  0.00    -0.379 OA
ATOM      6  H   UNL     1     -37.133  19.485   0.944  0.00  0.00    +0.211 HD
ENDBRANCH   4   5
BRANCH   4   7
ATOM      7  C   UNL     1     -35.059  20.580   0.630  0.00  0.00    +0.140 C 
BRANCH   7   8
ATOM      8  O   UNL     1     -35.935  20.113  -0.395  0.00  0.00    -0.382 OA
ATOM      9  H   UNL     1     -36.141  19.177  -0.242  0.00  0.00    +0.210 HD
ENDBRANCH   7   8
BRANCH   7  10
ATOM     10  C   UNL     1     -33.694  19.903   0.433  0.00  0.00    +0.032 C 
BRANCH  10  11
ATOM     11  C   UNL     1     -33.427  18.825   1.491  0.00  0.00    +0.003 C 
BRANCH  11  12
ATOM     12  C   UNL     1     -32.066  18.162   1.275  0.00  0.00    +0.000 C 
BRANCH  12  13
ATOM     13  C   UNL     1     -31.276  18.859   0.166  0.00  0.00    +0.000 C 
ATOM     14  C   UNL     1     -29.788  18.574   0.278  0.00  0.00    +0.000 C 
ENDBRANCH  12  13
ENDBRANCH  11  12
ENDBRANCH  10  11
ENDBRANCH   7  10
ENDBRANCH   4   7
ENDBRANCH   2   4
BRANCH   3  15
ATOM     15  C   UNL     1     -35.839  22.754   5.066  0.00  0.00    +0.140 C 
BRANCH  15  16
ATOM     16  O   UNL     1     -36.098  21.958   6.220  0.00  0.00    -0.382 OA
ATOM     17  H   UNL     1     -35.365  21.339   6.358  0.00  0.00    +0.210 HD
ENDBRANCH  15  16
BRANCH  15  18
ATOM     18  C   UNL     1     -34.905  23.906   5.452  0.00  0.00    +0.032 C 
BRANCH  18  19
ATOM     19  C   UNL     1     -35.403  25.256   4.928  0.00  0.00    +0.003 C 
BRANCH  19  20
ATOM     20  C   UNL     1     -36.897  25.207   4.600  0.00  0.00    +0.000 C 
BRANCH  20  21
ATOM     21  C   UNL     1     -37.149  25.455   3.111  0.00  0.00    +0.000 C 
BRANCH  21  22
ATOM     22  C   UNL     1     -38.581  25.087   2.722  0.00  0.00    +0.001 C 
BRANCH  22  23
ATOM     23  C   UNL     1     -38.853  23.578   2.681  0.00  0.00    +0.012 C 
BRANCH  23  24
ATOM     24  C   UNL     1     -39.366  23.067   1.333  0.00  0.00    +0.109 C 
BRANCH  24  26
ATOM     25  O   UNL     1     -38.824  20.886   0.392  0.00  0.00    -0.250 OA
ATOM     26  C   UNL     1     -39.412  21.559   1.227  0.00  0.00    +0.314 C 
BRANCH  26  27
ATOM     27  O   UNL     1     -40.228  21.019   2.170  0.00  0.00    -0.480 OA
ATOM     28  H   UNL     1     -40.420  21.495   2.953  0.00  0.00    +0.295 HD
ENDBRANCH  26  27
ENDBRANCH  24  26
ENDBRANCH  23  24
ENDBRANCH  22  23
ENDBRANCH  21  22
ENDBRANCH  20  21
ENDBRANCH  19  20
ENDBRANCH  18  19
ENDBRANCH  15  18
ENDBRANCH   3  15
TORSDOF 19
ENDMDL
MODEL 3
REMARK VINA RESULT:      -5.1      3.781      4.585
REMARK  Name = 195302
REMARK  19 active torsions:
REMARK  status: ('A' for Active; 'I' for Inactive)
REMARK    1  A    between atoms: C_2  and  C_4
REMARK    2  A    between atoms: C_3  and  C_15
REMARK    3  A    between atoms: C_4  and  O_5
REMARK    4  A    between atoms: C_4  and  C_7
REMARK    5  A    between atoms: C_7  and  O_8
REMARK    6  A    between atoms: C_7  and  C_10
REMARK    7  A    between atoms: C_10  and  C_11
REMARK    8  A    between atoms: C_11  and  C_12
REMARK    9  A    between atoms: C_12  and  C_13
REMARK   10  A    between atoms: C_15  and  O_16
REMARK   11  A    between atoms: C_15  and  C_18
REMARK   12  A    between atoms: C_18  and  C_19
REMARK   13  A    between atoms: C_19  and  C_20
REMARK   14  A    between atoms: C_20  and  C_21
REMARK   15  A    between atoms: C_21  and  C_22
REMARK   16  A    between atoms: C_22  and  C_23
REMARK   17  A    between atoms: C_23  and  C_24
REMARK   18  A    between atoms: C_24  and  C_26
REMARK   19  A    between atoms: C_26  and  O_27
REMARK                            x       y       z     vdW  Elec       q    Type
REMARK                         _______ _______ _______ _____ _____    ______ ____
ROOT
ATOM      1  O   UNL     1     -36.735  22.733   3.936  0.00  0.00    -0.349 OA
ATOM      2  C   UNL     1     -36.574  22.938   2.526  0.00  0.00    +0.174 C 
ATOM      3  C   UNL     1     -37.409  23.861   3.364  0.00  0.00    +0.171 C 
ENDROOT
BRANCH   2   4
ATOM      4  C   UNL     1     -37.203  21.900   1.678  0.00  0.00    +0.167 C 
BRANCH   4   5
ATOM      5  O   UNL     1     -37.340  22.376   0.334  0.00  0.00    -0.379 OA
ATOM      6  H   UNL     1     -38.135  22.924   0.264  0.00  0.00    +0.211 HD
ENDBRANCH   4   5
BRANCH   4   7
ATOM      7  C   UNL     1     -36.443  20.553   1.669  0.00  0.00    +0.140 C 
BRANCH   7   8
ATOM      8  O   UNL     1     -36.848  19.764   2.787  0.00  0.00    -0.382 OA
ATOM      9  H   UNL     1     -37.422  20.292   3.364  0.00  0.00    +0.210 HD
ENDBRANCH   7   8
BRANCH   7  10
ATOM     10  C   UNL     1     -34.921  20.745   1.749  0.00  0.00    +0.032 C 
BRANCH  10  11
ATOM     11  C   UNL     1     -34.161  19.651   0.988  0.00  0.00    +0.003 C 
BRANCH  11  12
ATOM     12  C   UNL     1     -32.878  20.201   0.363  0.00  0.00    +0.000 C 
BRANCH  12  13
ATOM     13  C   UNL     1     -31.709  19.233   0.551  0.00  0.00    +0.000 C 
ATOM     14  C   UNL     1     -32.130  17.993   1.322  0.00  0.00    +0.000 C 
ENDBRANCH  12  13
ENDBRANCH  11  12
ENDBRANCH  10  11
ENDBRANCH   7  10
ENDBRANCH   4   7
ENDBRANCH   2   4
BRANCH   3  15
ATOM     15  C   UNL     1     -36.882  25.194   3.807  0.00  0.00    +0.140 C 
BRANCH  15  16
ATOM     16  O   UNL     1     -37.968  26.108   3.941  0.00  0.00    -0.382 OA
ATOM     17  H   UNL     1     -38.751  25.635   4.264  0.00  0.00    +0.210 HD
ENDBRANCH  15  16
BRANCH  15  18
ATOM     18  C   UNL     1     -36.148  25.088   5.148  0.00  0.00    +0.032 C 
BRANCH  18  19
ATOM     19  C   UNL     1     -34.635  25.277   4.997  0.00  0.00    +0.003 C 
BRANCH  19  20
ATOM     20  C   UNL     1     -34.068  26.138   6.128  0.00  0.00    +0.000 C 
BRANCH  20  21
ATOM     21  C   UNL     1     -33.062  27.162   5.598  0.00  0.00    +0.000 C 
BRANCH  21  22
ATOM     22  C   UNL     1     -32.274  27.807   6.739  0.00  0.00    +0.001 C 
BRANCH  22  23
ATOM     23  C   UNL     1     -31.685  29.181   6.397  0.00  0.00    +0.012 C 
BRANCH  23  24
ATOM     24  C   UNL     1     -30.290  29.130   5.772  0.00  0.00    +0.109 C 
BRANCH  24  26
ATOM     25  O   UNL     1     -28.809  27.257   6.258  0.00  0.00    -0.250 OA
ATOM     26  C   UNL     1     -29.286  28.336   6.579  0.00  0.00    +0.314 C 
BRANCH  26  27
ATOM     27  O   UNL     1     -28.989  28.956   7.751  0.00  0.00    -0.480 OA
ATOM     28  H   UNL     1     -28.801  28.449   8.517  0.00  0.00    +0.295 HD
ENDBRANCH  26  27
ENDBRANCH  24  26
ENDBRANCH  23  24
ENDBRANCH  22  23
ENDBRANCH  21  22
ENDBRANCH  20  21
ENDBRANCH  19  20
ENDBRANCH  18  19
ENDBRANCH  15  18
ENDBRANCH   3  15
TORSDOF 19
ENDMDL
MODEL 4
REMARK VINA RESULT:      -4.9      2.214      4.723
REMARK  Name = 195302
REMARK  19 active torsions:
REMARK  status: ('A' for Active; 'I' for Inactive)
REMARK    1  A    between atoms: C_2  and  C_4
REMARK    2  A    between atoms: C_3  and  C_15
REMARK    3  A    between atoms: C_4  and  O_5
REMARK    4  A    between atoms: C_4  and  C_7
REMARK    5  A    between atoms: C_7  and  O_8
REMARK    6  A    between atoms: C_7  and  C_10
REMARK    7  A    between atoms: C_10  and  C_11
REMARK    8  A    between atoms: C_11  and  C_12
REMARK    9  A    between atoms: C_12  and  C_13
REMARK   10  A    between atoms: C_15  and  O_16
REMARK   11  A    between atoms: C_15  and  C_18
REMARK   12  A    between atoms: C_18  and  C_19
REMARK   13  A    between atoms: C_19  and  C_20
REMARK   14  A    between atoms: C_20  and  C_21
REMARK   15  A    between atoms: C_21  and  C_22
REMARK   16  A    between atoms: C_22  and  C_23
REMARK   17  A    between atoms: C_23  and  C_24
REMARK   18  A    between atoms: C_24  and  C_26
REMARK   19  A    between atoms: C_26  and  O_27
REMARK                            x       y       z     vdW  Elec       q    Type
REMARK                         _______ _______ _______ _____ _____    ______ ____
ROOT
ATOM      1  O   UNL     1     -34.560  19.948   2.798  0.00  0.00    -0.349 OA
ATOM      2  C   UNL     1     -34.791  20.606   1.545  0.00  0.00    +0.174 C 
ATOM      3  C   UNL     1     -35.766  20.715   2.682  0.00  0.00    +0.171 C 
ENDROOT
BRANCH   2   4
ATOM      4  C   UNL     1     -35.045  19.692   0.409  0.00  0.00    +0.167 C 
BRANCH   4   5
ATOM      5  O   UNL     1     -35.484  20.436  -0.735  0.00  0.00    -0.379 OA
ATOM      6  H   UNL     1     -35.848  21.287  -0.447  0.00  0.00    +0.211 HD
ENDBRANCH   4   5
BRANCH   4   7
ATOM      7  C   UNL     1     -33.827  18.824   0.017  0.00  0.00    +0.140 C 
BRANCH   7   8
ATOM      8  O   UNL     1     -33.615  17.817   1.006  0.00  0.00    -0.382 OA
ATOM      9  H   UNL     1     -34.260  17.103   0.883  0.00  0.00    +0.210 HD
ENDBRANCH   7   8
BRANCH   7  10
ATOM     10  C   UNL     1     -32.538  19.652  -0.100  0.00  0.00    +0.032 C 
BRANCH  10  11
ATOM     11  C   UNL     1     -31.342  18.954   0.557  0.00  0.00    +0.003 C 
BRANCH  11  12
ATOM     12  C   UNL     1     -30.177  18.811  -0.423  0.00  0.00    +0.000 C 
BRANCH  12  13
ATOM     13  C   UNL     1     -28.854  18.591   0.313  0.00  0.00    +0.000 C 
ATOM     14  C   UNL     1     -28.928  17.395   1.247  0.00  0.00    +0.000 C 
ENDBRANCH  12  13
ENDBRANCH  11  12
ENDBRANCH  10  11
ENDBRANCH   7  10
ENDBRANCH   4   7
ENDBRANCH   2   4
BRANCH   3  15
ATOM     15  C   UNL     1     -35.811  21.940   3.547  0.00  0.00    +0.140 C 
BRANCH  15  16
ATOM     16  O   UNL     1     -37.166  22.360   3.694  0.00  0.00    -0.382 OA
ATOM     17  H   UNL     1     -37.747  21.757   3.205  0.00  0.00    +0.210 HD
ENDBRANCH  15  16
BRANCH  15  18
ATOM     18  C   UNL     1     -35.218  21.670   4.934  0.00  0.00    +0.032 C 
BRANCH  18  19
ATOM     19  C   UNL     1     -35.398  22.858   5.882  0.00  0.00    +0.003 C 
BRANCH  19  20
ATOM     20  C   UNL     1     -34.853  24.149   5.265  0.00  0.00    +0.000 C 
BRANCH  20  21
ATOM     21  C   UNL     1     -35.781  25.334   5.542  0.00  0.00    +0.000 C 
BRANCH  21  22
ATOM     22  C   UNL     1     -35.823  26.294   4.352  0.00  0.00    +0.001 C 
BRANCH  22  23
ATOM     23  C   UNL     1     -36.053  25.608   3.000  0.00  0.00    +0.012 C 
BRANCH  23  24
ATOM     24  C   UNL     1     -37.391  25.949   2.341  0.00  0.00    +0.109 C 
BRANCH  24  26
ATOM     25  O   UNL     1     -38.868  24.448   3.565  0.00  0.00    -0.250 OA
ATOM     26  C   UNL     1     -38.597  25.574   3.174  0.00  0.00    +0.314 C 
BRANCH  26  27
ATOM     27  O   UNL     1     -39.387  26.652   3.419  0.00  0.00    -0.480 OA
ATOM     28  H   UNL     1     -39.128  27.501   3.119  0.00  0.00    +0.295 HD
ENDBRANCH  26  27
ENDBRANCH  24  26
ENDBRANCH  23  24
ENDBRANCH  22  23
ENDBRANCH  21  22
ENDBRANCH  20  21
ENDBRANCH  19  20
ENDBRANCH  18  19
ENDBRANCH  15  18
ENDBRANCH   3  15
TORSDOF 19
ENDMDL
MODEL 5
REMARK VINA RESULT:      -4.9      2.343      5.360
REMARK  Name = 195302
REMARK  19 active torsions:
REMARK  status: ('A' for Active; 'I' for Inactive)
REMARK    1  A    between atoms: C_2  and  C_4
REMARK    2  A    between atoms: C_3  and  C_15
REMARK    3  A    between atoms: C_4  and  O_5
REMARK    4  A    between atoms: C_4  and  C_7
REMARK    5  A    between atoms: C_7  and  O_8
REMARK    6  A    between atoms: C_7  and  C_10
REMARK    7  A    between atoms: C_10  and  C_11
REMARK    8  A    between atoms: C_11  and  C_12
REMARK    9  A    between atoms: C_12  and  C_13
REMARK   10  A    between atoms: C_15  and  O_16
REMARK   11  A    between atoms: C_15  and  C_18
REMARK   12  A    between atoms: C_18  and  C_19
REMARK   13  A    between atoms: C_19  and  C_20
REMARK   14  A    between atoms: C_20  and  C_21
REMARK   15  A    between atoms: C_21  and  C_22
REMARK   16  A    between atoms: C_22  and  C_23
REMARK   17  A    between atoms: C_23  and  C_24
REMARK   18  A    between atoms: C_24  and  C_26
REMARK   19  A    between atoms: C_26  and  O_27
REMARK                            x       y       z     vdW  Elec       q    Type
REMARK                         _______ _______ _______ _____ _____    ______ ____
ROOT
ATOM      1  O   UNL     1     -36.994  23.892   1.229  0.00  0.00    -0.349 OA
ATOM      2  C   UNL     1     -37.584  24.522   2.374  0.00  0.00    +0.174 C 
ATOM      3  C   UNL     1     -38.169  23.277   1.773  0.00  0.00    +0.171 C 
ENDROOT
BRANCH   2   4
ATOM      4  C   UNL     1     -38.180  25.850   2.105  0.00  0.00    +0.167 C 
BRANCH   4   5
ATOM      5  O   UNL     1     -38.652  26.436   3.325  0.00  0.00    -0.379 OA
ATOM      6  H   UNL     1     -39.549  26.120   3.510  0.00  0.00    +0.211 HD
ENDBRANCH   4   5
BRANCH   4   7
ATOM      7  C   UNL     1     -37.220  26.838   1.402  0.00  0.00    +0.140 C 
BRANCH   7   8
ATOM      8  O   UNL     1     -36.798  27.840   2.326  0.00  0.00    -0.382 OA
ATOM      9  H   UNL     1     -35.831  27.916   2.300  0.00  0.00    +0.210 HD
ENDBRANCH   7   8
BRANCH   7  10
ATOM     10  C   UNL     1     -37.884  27.541   0.209  0.00  0.00    +0.032 C 
BRANCH  10  11
ATOM     11  C   UNL     1     -37.462  26.925  -1.131  0.00  0.00    +0.003 C 
BRANCH  11  12
ATOM     12  C   UNL     1     -36.002  26.472  -1.098  0.00  0.00    +0.000 C 
BRANCH  12  13
ATOM     13  C   UNL     1     -35.809  25.158  -1.855  0.00  0.00    +0.000 C 
ATOM     14  C   UNL     1     -37.123  24.640  -2.416  0.00  0.00    +0.000 C 
ENDBRANCH  12  13
ENDBRANCH  11  12
ENDBRANCH  10  11
ENDBRANCH   7  10
ENDBRANCH   4   7
ENDBRANCH   2   4
BRANCH   3  15
ATOM     15  C   UNL     1     -37.938  21.934   2.400  0.00  0.00    +0.140 C 
BRANCH  15  16
ATOM     16  O   UNL     1     -39.127  21.154   2.293  0.00  0.00    -0.382 OA
ATOM     17  H   UNL     1     -39.732  21.385   3.015  0.00  0.00    +0.210 HD
ENDBRANCH  15  16
BRANCH  15  18
ATOM     18  C   UNL     1     -36.787  21.187   1.716  0.00  0.00    +0.032 C 
BRANCH  18  19
ATOM     19  C   UNL     1     -35.713  20.740   2.713  0.00  0.00    +0.003 C 
BRANCH  19  20
ATOM     20  C   UNL     1     -35.311  21.885   3.645  0.00  0.00    +0.000 C 
BRANCH  20  21
ATOM     21  C   UNL     1     -35.198  21.409   5.095  0.00  0.00    +0.000 C 
BRANCH  21  22
ATOM     22  C   UNL     1     -35.201  22.590   6.068  0.00  0.00    +0.001 C 
BRANCH  22  23
ATOM     23  C   UNL     1     -35.720  23.900   5.462  0.00  0.00    +0.012 C 
BRANCH  23  24
ATOM     24  C   UNL     1     -34.766  25.086   5.616  0.00  0.00    +0.109 C 
BRANCH  24  26
ATOM     25  O   UNL     1     -34.578  27.088   4.239  0.00  0.00    -0.250 OA
ATOM     26  C   UNL     1     -35.252  26.354   4.948  0.00  0.00    +0.314 C 
BRANCH  26  27
ATOM     27  O   UNL     1     -36.549  26.613   5.259  0.00  0.00    -0.480 OA
ATOM     28  H   UNL     1     -36.899  26.337   6.084  0.00  0.00    +0.295 HD
ENDBRANCH  26  27
ENDBRANCH  24  26
ENDBRANCH  23  24
ENDBRANCH  22  23
ENDBRANCH  21  22
ENDBRANCH  20  21
ENDBRANCH  19  20
ENDBRANCH  18  19
ENDBRANCH  15  18
ENDBRANCH   3  15
TORSDOF 19
ENDMDL
MODEL 6
REMARK VINA RESULT:      -4.9      1.828      4.441
REMARK  Name = 195302
REMARK  19 active torsions:
REMARK  status: ('A' for Active; 'I' for Inactive)
REMARK    1  A    between atoms: C_2  and  C_4
REMARK    2  A    between atoms: C_3  and  C_15
REMARK    3  A    between atoms: C_4  and  O_5
REMARK    4  A    between atoms: C_4  and  C_7
REMARK    5  A    between atoms: C_7  and  O_8
REMARK    6  A    between atoms: C_7  and  C_10
REMARK    7  A    between atoms: C_10  and  C_11
REMARK    8  A    between atoms: C_11  and  C_12
REMARK    9  A    between atoms: C_12  and  C_13
REMARK   10  A    between atoms: C_15  and  O_16
REMARK   11  A    between atoms: C_15  and  C_18
REMARK   12  A    between atoms: C_18  and  C_19
REMARK   13  A    between atoms: C_19  and  C_20
REMARK   14  A    between atoms: C_20  and  C_21
REMARK   15  A    between atoms: C_21  and  C_22
REMARK   16  A    between atoms: C_22  and  C_23
REMARK   17  A    between atoms: C_23  and  C_24
REMARK   18  A    between atoms: C_24  and  C_26
REMARK   19  A    between atoms: C_26  and  O_27
REMARK                            x       y       z     vdW  Elec       q    Type
REMARK                         _______ _______ _______ _____ _____    ______ ____
ROOT
ATOM      1  O   UNL     1     -37.033  23.458   2.276  0.00  0.00    -0.349 OA
ATOM      2  C   UNL     1     -36.775  22.720   3.478  0.00  0.00    +0.174 C 
ATOM      3  C   UNL     1     -36.514  24.195   3.391  0.00  0.00    +0.171 C 
ENDROOT
BRANCH   2   4
ATOM      4  C   UNL     1     -35.668  21.743   3.372  0.00  0.00    +0.167 C 
BRANCH   4   5
ATOM      5  O   UNL     1     -35.514  21.034   4.608  0.00  0.00    -0.379 OA
ATOM      6  H   UNL     1     -36.286  21.195   5.171  0.00  0.00    +0.211 HD
ENDBRANCH   4   5
BRANCH   4   7
ATOM      7  C   UNL     1     -35.835  20.727   2.218  0.00  0.00    +0.140 C 
BRANCH   7   8
ATOM      8  O   UNL     1     -36.809  19.748   2.576  0.00  0.00    -0.382 OA
ATOM      9  H   UNL     1     -37.403  19.593   1.824  0.00  0.00    +0.210 HD
ENDBRANCH   7   8
BRANCH   7  10
ATOM     10  C   UNL     1     -34.523  19.996   1.894  0.00  0.00    +0.032 C 
BRANCH  10  11
ATOM     11  C   UNL     1     -33.767  20.655   0.735  0.00  0.00    +0.003 C 
BRANCH  11  12
ATOM     12  C   UNL     1     -32.479  19.896   0.410  0.00  0.00    +0.000 C 
BRANCH  12  13
ATOM     13  C   UNL     1     -32.466  18.516   1.068  0.00  0.00    +0.000 C 
ATOM     14  C   UNL     1     -31.087  17.882   1.005  0.00  0.00    +0.000 C 
ENDBRANCH  12  13
ENDBRANCH  11  12
ENDBRANCH  10  11
ENDBRANCH   7  10
ENDBRANCH   4   7
ENDBRANCH   2   4
BRANCH   3  15
ATOM     15  C   UNL     1     -37.472  25.186   3.985  0.00  0.00    +0.140 C 
BRANCH  15  16
ATOM     16  O   UNL     1     -36.736  26.206   4.655  0.00  0.00    -0.382 OA
ATOM     17  H   UNL     1     -35.804  26.162   4.390  0.00  0.00    +0.210 HD
ENDBRANCH  15  16
BRANCH  15  18
ATOM     18  C   UNL     1     -38.352  25.829   2.908  0.00  0.00    +0.032 C 
BRANCH  18  19
ATOM     19  C   UNL     1     -39.838  25.521   3.115  0.00  0.00    +0.003 C 
BRANCH  19  20
ATOM     20  C   UNL     1     -40.406  24.715   1.944  0.00  0.00    +0.000 C 
BRANCH  20  21
ATOM     21  C   UNL     1     -39.707  25.073   0.630  0.00  0.00    +0.000 C 
BRANCH  21  22
ATOM     22  C   UNL     1     -39.928  23.990  -0.427  0.00  0.00    +0.001 C 
BRANCH  22  23
ATOM     23  C   UNL     1     -38.723  23.065  -0.639  0.00  0.00    +0.012 C 
BRANCH  23  24
ATOM     24  C   UNL     1     -39.044  21.575  -0.510  0.00  0.00    +0.109 C 
BRANCH  24  26
ATOM     25  O   UNL     1     -39.439  21.290   1.877  0.00  0.00    -0.250 OA
ATOM     26  C   UNL     1     -39.844  21.226   0.726  0.00  0.00    +0.314 C 
BRANCH  26  27
ATOM     27  O   UNL     1     -41.091  20.790   0.404  0.00  0.00    -0.480 OA
ATOM     28  H   UNL     1     -41.566  21.199  -0.293  0.00  0.00    +0.295 HD
ENDBRANCH  26  27
ENDBRANCH  24  26
ENDBRANCH  23  24
ENDBRANCH  22  23
ENDBRANCH  21  22
ENDBRANCH  20  21
ENDBRANCH  19  20
ENDBRANCH  18  19
ENDBRANCH  15  18
ENDBRANCH   3  15
TORSDOF 19
ENDMDL
MODEL 7
REMARK VINA RESULT:      -4.8      1.668      4.010
REMARK  Name = 195302
REMARK  19 active torsions:
REMARK  status: ('A' for Active; 'I' for Inactive)
REMARK    1  A    between atoms: C_2  and  C_4
REMARK    2  A    between atoms: C_3  and  C_15
REMARK    3  A    between atoms: C_4  and  O_5
REMARK    4  A    between atoms: C_4  and  C_7
REMARK    5  A    between atoms: C_7  and  O_8
REMARK    6  A    between atoms: C_7  and  C_10
REMARK    7  A    between atoms: C_10  and  C_11
REMARK    8  A    between atoms: C_11  and  C_12
REMARK    9  A    between atoms: C_12  and  C_13
REMARK   10  A    between atoms: C_15  and  O_16
REMARK   11  A    between atoms: C_15  and  C_18
REMARK   12  A    between atoms: C_18  and  C_19
REMARK   13  A    between atoms: C_19  and  C_20
REMARK   14  A    between atoms: C_20  and  C_21
REMARK   15  A    between atoms: C_21  and  C_22
REMARK   16  A    between atoms: C_22  and  C_23
REMARK   17  A    between atoms: C_23  and  C_24
REMARK   18  A    between atoms: C_24  and  C_26
REMARK   19  A    between atoms: C_26  and  O_27
REMARK                            x       y       z     vdW  Elec       q    Type
REMARK                         _______ _______ _______ _____ _____    ______ ____
ROOT
ATOM      1  O   UNL     1     -35.236  22.600   2.818  0.00  0.00    -0.349 OA
ATOM      2  C   UNL     1     -36.308  21.652   2.916  0.00  0.00    +0.174 C 
ATOM      3  C   UNL     1     -35.402  21.938   4.078  0.00  0.00    +0.171 C 
ENDROOT
BRANCH   2   4
ATOM      4  C   UNL     1     -36.129  20.435   2.092  0.00  0.00    +0.167 C 
BRANCH   4   5
ATOM      5  O   UNL     1     -37.353  20.105   1.425  0.00  0.00    -0.379 OA
ATOM      6  H   UNL     1     -37.387  20.556   0.568  0.00  0.00    +0.211 HD
ENDBRANCH   4   5
BRANCH   4   7
ATOM      7  C   UNL     1     -34.992  20.546   1.049  0.00  0.00    +0.140 C 
BRANCH   7   8
ATOM      8  O   UNL     1     -35.478  21.196  -0.125  0.00  0.00    -0.382 OA
ATOM      9  H   UNL     1     -36.266  21.716   0.096  0.00  0.00    +0.210 HD
ENDBRANCH   7   8
BRANCH   7  10
ATOM     10  C   UNL     1     -34.446  19.170   0.638  0.00  0.00    +0.032 C 
BRANCH  10  11
ATOM     11  C   UNL     1     -33.251  18.743   1.499  0.00  0.00    +0.003 C 
BRANCH  11  12
ATOM     12  C   UNL     1     -32.010  18.494   0.641  0.00  0.00    +0.000 C 
BRANCH  12  13
ATOM     13  C   UNL     1     -31.458  19.800   0.067  0.00  0.00    +0.000 C 
ATOM     14  C   UNL     1     -30.003  19.656  -0.347  0.00  0.00    +0.000 C 
ENDBRANCH  12  13
ENDBRANCH  11  12
ENDBRANCH  10  11
ENDBRANCH   7  10
ENDBRANCH   4   7
ENDBRANCH   2   4
BRANCH   3  15
ATOM     15  C   UNL     1     -35.843  22.832   5.200  0.00  0.00    +0.140 C 
BRANCH  15  16
ATOM     16  O   UNL     1     -36.118  22.039   6.352  0.00  0.00    -0.382 OA
ATOM     17  H   UNL     1     -36.772  21.358   6.129  0.00  0.00    +0.210 HD
ENDBRANCH  15  16
BRANCH  15  18
ATOM     18  C   UNL     1     -34.767  23.865   5.549  0.00  0.00    +0.032 C 
BRANCH  18  19
ATOM     19  C   UNL     1     -35.325  25.291   5.593  0.00  0.00    +0.003 C 
BRANCH  19  20
ATOM     20  C   UNL     1     -34.374  26.280   4.915  0.00  0.00    +0.000 C 
BRANCH  20  21
ATOM     21  C   UNL     1     -34.469  26.188   3.390  0.00  0.00    +0.000 C 
BRANCH  21  22
ATOM     22  C   UNL     1     -35.165  27.417   2.804  0.00  0.00    +0.001 C 
BRANCH  22  23
ATOM     23  C   UNL     1     -36.451  27.100   2.030  0.00  0.00    +0.012 C 
BRANCH  23  24
ATOM     24  C   UNL     1     -37.034  25.716   2.320  0.00  0.00    +0.109 C 
BRANCH  24  26
ATOM     25  O   UNL     1     -39.313  26.486   2.710  0.00  0.00    -0.250 OA
ATOM     26  C   UNL     1     -38.382  25.751   3.008  0.00  0.00    +0.314 C 
BRANCH  26  27
ATOM     27  O   UNL     1     -38.435  24.874   4.044  0.00  0.00    -0.480 OA
ATOM     28  H   UNL     1     -39.091  24.205   4.060  0.00  0.00    +0.295 HD
ENDBRANCH  26  27
ENDBRANCH  24  26
ENDBRANCH  23  24
ENDBRANCH  22  23
ENDBRANCH  21  22
ENDBRANCH  20  21
ENDBRANCH  19  20
ENDBRANCH  18  19
ENDBRANCH  15  18
ENDBRANCH   3  15
TORSDOF 19
ENDMDL
MODEL 8
REMARK VINA RESULT:      -4.8      2.964      5.676
REMARK  Name = 195302
REMARK  19 active torsions:
REMARK  status: ('A' for Active; 'I' for Inactive)
REMARK    1  A    between atoms: C_2  and  C_4
REMARK    2  A    between atoms: C_3  and  C_15
REMARK    3  A    between atoms: C_4  and  O_5
REMARK    4  A    between atoms: C_4  and  C_7
REMARK    5  A    between atoms: C_7  and  O_8
REMARK    6  A    between atoms: C_7  and  C_10
REMARK    7  A    between atoms: C_10  and  C_11
REMARK    8  A    between atoms: C_11  and  C_12
REMARK    9  A    between atoms: C_12  and  C_13
REMARK   10  A    between atoms: C_15  and  O_16
REMARK   11  A    between atoms: C_15  and  C_18
REMARK   12  A    between atoms: C_18  and  C_19
REMARK   13  A    between atoms: C_19  and  C_20
REMARK   14  A    between atoms: C_20  and  C_21
REMARK   15  A    between atoms: C_21  and  C_22
REMARK   16  A    between atoms: C_22  and  C_23
REMARK   17  A    between atoms: C_23  and  C_24
REMARK   18  A    between atoms: C_24  and  C_26
REMARK   19  A    between atoms: C_26  and  O_27
REMARK                            x       y       z     vdW  Elec       q    Type
REMARK                         _______ _______ _______ _____ _____    ______ ____
ROOT
ATOM      1  O   UNL     1     -37.226  23.309   2.052  0.00  0.00    -0.349 OA
ATOM      2  C   UNL     1     -36.932  22.627   3.278  0.00  0.00    +0.174 C 
ATOM      3  C   UNL     1     -36.778  24.114   3.150  0.00  0.00    +0.171 C 
ENDROOT
BRANCH   2   4
ATOM      4  C   UNL     1     -35.756  21.730   3.216  0.00  0.00    +0.167 C 
BRANCH   4   5
ATOM      5  O   UNL     1     -35.530  21.121   4.493  0.00  0.00    -0.379 OA
ATOM      6  H   UNL     1     -35.992  21.627   5.179  0.00  0.00    +0.211 HD
ENDBRANCH   4   5
BRANCH   4   7
ATOM      7  C   UNL     1     -35.864  20.628   2.136  0.00  0.00    +0.140 C 
BRANCH   7   8
ATOM      8  O   UNL     1     -36.819  19.649   2.541  0.00  0.00    -0.382 OA
ATOM      9  H   UNL     1     -37.712  20.025   2.482  0.00  0.00    +0.210 HD
ENDBRANCH   7   8
BRANCH   7  10
ATOM     10  C   UNL     1     -34.524  19.915   1.899  0.00  0.00    +0.032 C 
BRANCH  10  11
ATOM     11  C   UNL     1     -34.552  19.036   0.643  0.00  0.00    +0.003 C 
BRANCH  11  12
ATOM     12  C   UNL     1     -33.322  19.281  -0.232  0.00  0.00    +0.000 C 
BRANCH  12  13
ATOM     13  C   UNL     1     -32.054  19.410   0.613  0.00  0.00    +0.000 C 
ATOM     14  C   UNL     1     -31.406  18.057   0.856  0.00  0.00    +0.000 C 
ENDBRANCH  12  13
ENDBRANCH  11  12
ENDBRANCH  10  11
ENDBRANCH   7  10
ENDBRANCH   4   7
ENDBRANCH   2   4
BRANCH   3  15
ATOM     15  C   UNL     1     -37.813  25.049   3.702  0.00  0.00    +0.140 C 
BRANCH  15  16
ATOM     16  O   UNL     1     -37.162  26.124   4.377  0.00  0.00    -0.382 OA
ATOM     17  H   UNL     1     -36.587  25.769   5.073  0.00  0.00    +0.210 HD
ENDBRANCH  15  16
BRANCH  15  18
ATOM     18  C   UNL     1     -38.701  25.620   2.592  0.00  0.00    +0.032 C 
BRANCH  18  19
ATOM     19  C   UNL     1     -40.190  25.376   2.858  0.00  0.00    +0.003 C 
BRANCH  19  20
ATOM     20  C   UNL     1     -41.000  25.419   1.560  0.00  0.00    +0.000 C 
BRANCH  20  21
ATOM     21  C   UNL     1     -41.864  26.680   1.484  0.00  0.00    +0.000 C 
BRANCH  21  22
ATOM     22  C   UNL     1     -43.304  26.390   1.909  0.00  0.00    +0.001 C 
BRANCH  22  23
ATOM     23  C   UNL     1     -43.614  26.757   3.366  0.00  0.00    +0.012 C 
BRANCH  23  24
ATOM     24  C   UNL     1     -43.696  28.262   3.631  0.00  0.00    +0.109 C 
BRANCH  24  26
ATOM     25  O   UNL     1     -42.842  29.676   5.422  0.00  0.00    -0.250 OA
ATOM     26  C   UNL     1     -42.672  28.765   4.624  0.00  0.00    +0.314 C 
BRANCH  26  27
ATOM     27  O   UNL     1     -41.495  28.096   4.506  0.00  0.00    -0.480 OA
ATOM     28  H   UNL     1     -40.714  28.449   4.887  0.00  0.00    +0.295 HD
ENDBRANCH  26  27
ENDBRANCH  24  26
ENDBRANCH  23  24
ENDBRANCH  22  23
ENDBRANCH  21  22
ENDBRANCH  20  21
ENDBRANCH  19  20
ENDBRANCH  18  19
ENDBRANCH  15  18
ENDBRANCH   3  15
TORSDOF 19
ENDMDL
MODEL 9
REMARK VINA RESULT:      -4.8      3.939      5.049
REMARK  Name = 195302
REMARK  19 active torsions:
REMARK  status: ('A' for Active; 'I' for Inactive)
REMARK    1  A    between atoms: C_2  and  C_4
REMARK    2  A    between atoms: C_3  and  C_15
REMARK    3  A    between atoms: C_4  and  O_5
REMARK    4  A    between atoms: C_4  and  C_7
REMARK    5  A    between atoms: C_7  and  O_8
REMARK    6  A    between atoms: C_7  and  C_10
REMARK    7  A    between atoms: C_10  and  C_11
REMARK    8  A    between atoms: C_11  and  C_12
REMARK    9  A    between atoms: C_12  and  C_13
REMARK   10  A    between atoms: C_15  and  O_16
REMARK   11  A    between atoms: C_15  and  C_18
REMARK   12  A    between atoms: C_18  and  C_19
REMARK   13  A    between atoms: C_19  and  C_20
REMARK   14  A    between atoms: C_20  and  C_21
REMARK   15  A    between atoms: C_21  and  C_22
REMARK   16  A    between atoms: C_22  and  C_23
REMARK   17  A    between atoms: C_23  and  C_24
REMARK   18  A    between atoms: C_24  and  C_26
REMARK   19  A    between atoms: C_26  and  O_27
REMARK                            x       y       z     vdW  Elec       q    Type
REMARK                         _______ _______ _______ _____ _____    ______ ____
ROOT
ATOM      1  O   UNL     1     -35.901  23.941   2.545  0.00  0.00    -0.349 OA
ATOM      2  C   UNL     1     -35.977  23.031   3.651  0.00  0.00    +0.174 C 
ATOM      3  C   UNL     1     -35.011  24.180   3.643  0.00  0.00    +0.171 C 
ENDROOT
BRANCH   2   4
ATOM      4  C   UNL     1     -35.526  21.654   3.345  0.00  0.00    +0.167 C 
BRANCH   4   5
ATOM      5  O   UNL     1     -35.591  20.840   4.523  0.00  0.00    -0.379 OA
ATOM      6  H   UNL     1     -36.138  21.281   5.191  0.00  0.00    +0.211 HD
ENDBRANCH   4   5
BRANCH   4   7
ATOM      7  C   UNL     1     -36.320  20.972   2.207  0.00  0.00    +0.140 C 
BRANCH   7   8
ATOM      8  O   UNL     1     -36.865  19.738   2.672  0.00  0.00    -0.382 OA
ATOM      9  H   UNL     1     -37.751  19.894   3.037  0.00  0.00    +0.210 HD
ENDBRANCH   7   8
BRANCH   7  10
ATOM     10  C   UNL     1     -35.439  20.671   0.985  0.00  0.00    +0.032 C 
BRANCH  10  11
ATOM     11  C   UNL     1     -34.158  19.919   1.369  0.00  0.00    +0.003 C 
BRANCH  11  12
ATOM     12  C   UNL     1     -33.010  20.259   0.419  0.00  0.00    +0.000 C 
BRANCH  12  13
ATOM     13  C   UNL     1     -31.838  19.292   0.593  0.00  0.00    +0.000 C 
ATOM     14  C   UNL     1     -32.263  18.027   1.320  0.00  0.00    +0.000 C 
ENDBRANCH  12  13
ENDBRANCH  11  12
ENDBRANCH  10  11
ENDBRANCH   7  10
ENDBRANCH   4   7
ENDBRANCH   2   4
BRANCH   3  15
ATOM     15  C   UNL     1     -35.295  25.434   4.416  0.00  0.00    +0.140 C 
BRANCH  15  16
ATOM     16  O   UNL     1     -34.760  25.306   5.731  0.00  0.00    -0.382 OA
ATOM     17  H   UNL     1     -35.404  24.856   6.301  0.00  0.00    +0.210 HD
ENDBRANCH  15  16
BRANCH  15  18
ATOM     18  C   UNL     1     -34.673  26.661   3.740  0.00  0.00    +0.032 C 
BRANCH  18  19
ATOM     19  C   UNL     1     -33.338  27.058   4.376  0.00  0.00    +0.003 C 
BRANCH  19  20
ATOM     20  C   UNL     1     -32.556  28.015   3.473  0.00  0.00    +0.000 C 
BRANCH  20  21
ATOM     21  C   UNL     1     -32.944  29.472   3.737  0.00  0.00    +0.000 C 
BRANCH  21  22
ATOM     22  C   UNL     1     -31.788  30.247   4.370  0.00  0.00    +0.001 C 
BRANCH  22  23
ATOM     23  C   UNL     1     -31.999  30.590   5.850  0.00  0.00    +0.012 C 
BRANCH  23  24
ATOM     24  C   UNL     1     -31.605  29.472   6.817  0.00  0.00    +0.109 C 
BRANCH  24  26
ATOM     25  O   UNL     1     -30.080  27.722   6.075  0.00  0.00    -0.250 OA
ATOM     26  C   UNL     1     -30.259  28.848   6.515  0.00  0.00    +0.314 C 
BRANCH  26  27
ATOM     27  O   UNL     1     -29.240  29.691   6.827  0.00  0.00    -0.480 OA
ATOM     28  H   UNL     1     -29.417  30.501   7.264  0.00  0.00    +0.295 HD
ENDBRANCH  26  27
ENDBRANCH  24  26
ENDBRANCH  23  24
ENDBRANCH  22  23
ENDBRANCH  21  22
ENDBRANCH  20  21
ENDBRANCH  19  20
ENDBRANCH  18  19
ENDBRANCH  15  18
ENDBRANCH   3  15
TORSDOF 19
ENDMDL
