MODEL 1
REMARK VINA RESULT:      -6.6      0.000      0.000
REMARK  Name = 5311120
REMARK  14 active torsions:
REMARK  status: ('A' for Active; 'I' for Inactive)
REMARK    1  A    between atoms: N_2  and  CA_5
REMARK    2  A    between atoms: C_3  and  C_21
REMARK    3  A    between atoms: CA_5  and  C_7
REMARK    4  A    between atoms: CA_5  and  CB_10
REMARK    5  A    between atoms: C_7  and  O_8
REMARK    6  A    between atoms: CB_10  and  CG_11
REMARK    7  A    between atoms: CG_11  and  CD_12
REMARK    8  A    between atoms: CD_12  and  NE_13
REMARK    9  A    between atoms: NE_13  and  CZ_16
REMARK   10  A    between atoms: C_21  and  O_22
REMARK   11  A    between atoms: O_22  and  C_23
REMARK   12  A    between atoms: C_23  and  C_24
REMARK   13  A    between atoms: C_24  and  C_25
REMARK   14  A    between atoms: C_24  and  C_31
REMARK                            x       y       z     vdW  Elec       q    Type
REMARK                         _______ _______ _______ _____ _____    ______ ____
ROOT
ATOM      1  O   UNL     1     -38.914  26.583   2.031  0.00  0.00    -0.272 OA
ATOM      2  N   UNL     1     -38.651  25.064   3.773  0.00  0.00    -0.295 N 
ATOM      3  C   ACE A   0     -39.373  25.932   2.966  0.00  0.00    +0.253 C 
ATOM      4  H   UNL     1     -39.125  24.593   4.497  0.00  0.00    +0.150 HD
ENDROOT
BRANCH   2   5
ATOM      5  CA  UNL     1     -37.241  24.816   3.606  0.00  0.00    +0.171 C 
BRANCH   5   7
ATOM      6  OXT UNL     1     -37.006  23.302   1.710  0.00  0.00    -0.248 OA
ATOM      7  C   UNL     1     -37.073  23.473   2.921  0.00  0.00    +0.332 C 
BRANCH   7   8
ATOM      8  O   UNL     1     -36.961  22.457   3.817  0.00  0.00    -0.479 OA
ATOM      9  H   UNL     1     -36.620  21.628   3.543  0.00  0.00    +0.295 HD
ENDBRANCH   7   8
ENDBRANCH   5   7
BRANCH   5  10
ATOM     10  CB  UNL     1     -36.471  24.899   4.927  0.00  0.00    +0.033 C 
BRANCH  10  11
ATOM     11  CG  UNL     1     -35.687  26.203   5.116  0.00  0.00    +0.029 C 
BRANCH  11  12
ATOM     12  CD  UNL     1     -34.339  25.943   5.779  0.00  0.00    +0.129 C 
BRANCH  12  13
ATOM     13  NE  UNL     1     -33.350  26.875   5.233  0.00  0.00    -0.240 NA
BRANCH  13  16
ATOM     14  NH1 UNL     1     -32.083  28.811   5.882  0.00  0.00    -0.370 N 
ATOM     15  NH2 UNL     1     -32.513  27.144   7.377  0.00  0.00    -0.370 N 
ATOM     16  CZ  UNL     1     -32.686  27.588   6.087  0.00  0.00    +0.189 C 
ATOM     17 HH11 UNL     1     -32.132  29.241   4.998  0.00  0.00    +0.159 HD
ATOM     18 HH12 UNL     1     -31.604  29.252   6.620  0.00  0.00    +0.159 HD
ATOM     19 HH21 UNL     1     -32.896  26.281   7.655  0.00  0.00    +0.159 HD
ATOM     20 HH22 UNL     1     -32.007  27.689   8.022  0.00  0.00    +0.159 HD
ENDBRANCH  13  16
ENDBRANCH  12  13
ENDBRANCH  11  12
ENDBRANCH  10  11
ENDBRANCH   5  10
ENDBRANCH   2   5
BRANCH   3  21
ATOM     21  C   UNL     1     -40.831  25.995   3.370  0.00  0.00    +0.227 C 
BRANCH  21  22
ATOM     22  O   UNL     1     -41.210  27.323   3.662  0.00  0.00    -0.344 OA
BRANCH  22  23
ATOM     23  C   UNL     1     -42.527  27.613   3.201  0.00  0.00    +0.151 C 
BRANCH  23  24
ATOM     24  C   UNL     1     -43.463  27.793   4.412  0.00  0.00    +0.074 C 
BRANCH  24  25
ATOM     25  C   UNL     1     -43.914  29.232   4.627  0.00  0.00    -0.016 C 
ATOM     26  C   UNL     1     -44.613  29.901   3.622  0.00  0.00    -0.004 C 
ATOM     27  C   UNL     1     -43.627  29.882   5.828  0.00  0.00    -0.004 C 
ATOM     28  C   UNL     1     -45.024  31.220   3.818  0.00  0.00    -0.000 C 
ATOM     29  C   UNL     1     -44.040  31.200   6.023  0.00  0.00    -0.000 C 
ATOM     30  C   UNL     1     -44.739  31.869   5.019  0.00  0.00    -0.000 C 
ENDBRANCH  24  25
BRANCH  24  31
ATOM     31  C   UNL     1     -44.646  26.832   4.383  0.00  0.00    -0.016 C 
ATOM     32  C   UNL     1     -45.480  26.718   5.496  0.00  0.00    -0.004 C 
ATOM     33  C   UNL     1     -44.896  26.068   3.244  0.00  0.00    -0.004 C 
ATOM     34  C   UNL     1     -46.562  25.839   5.470  0.00  0.00    -0.000 C 
ATOM     35  C   UNL     1     -45.979  25.189   3.218  0.00  0.00    -0.000 C 
ATOM     36  C   UNL     1     -46.811  25.075   4.331  0.00  0.00    -0.000 C 
ENDBRANCH  24  31
ENDBRANCH  23  24
ENDBRANCH  22  23
ENDBRANCH  21  22
ENDBRANCH   3  21
TORSDOF 14
ENDMDL
MODEL 2
REMARK VINA RESULT:      -6.6      0.496      3.381
REMARK  Name = 5311120
REMARK  14 active torsions:
REMARK  status: ('A' for Active; 'I' for Inactive)
REMARK    1  A    between atoms: N_2  and  CA_5
REMARK    2  A    between atoms: C_3  and  C_21
REMARK    3  A    between atoms: CA_5  and  C_7
REMARK    4  A    between atoms: CA_5  and  CB_10
REMARK    5  A    between atoms: C_7  and  O_8
REMARK    6  A    between atoms: CB_10  and  CG_11
REMARK    7  A    between atoms: CG_11  and  CD_12
REMARK    8  A    between atoms: CD_12  and  NE_13
REMARK    9  A    between atoms: NE_13  and  CZ_16
REMARK   10  A    between atoms: C_21  and  O_22
REMARK   11  A    between atoms: O_22  and  C_23
REMARK   12  A    between atoms: C_23  and  C_24
REMARK   13  A    between atoms: C_24  and  C_25
REMARK   14  A    between atoms: C_24  and  C_31
REMARK                            x       y       z     vdW  Elec       q    Type
REMARK                         _______ _______ _______ _____ _____    ______ ____
ROOT
ATOM      1  O   UNL     1     -38.642  26.618   2.121  0.00  0.00    -0.272 OA
ATOM      2  N   UNL     1     -38.609  24.926   3.718  0.00  0.00    -0.295 N 
ATOM      3  C   ACE A   0     -39.221  25.872   2.906  0.00  0.00    +0.253 C 
ATOM      4  H   UNL     1     -39.176  24.381   4.311  0.00  0.00    +0.150 HD
ENDROOT
BRANCH   2   5
ATOM      5  CA  UNL     1     -37.186  24.701   3.735  0.00  0.00    +0.171 C 
BRANCH   5   7
ATOM      6  OXT UNL     1     -37.087  22.667   2.396  0.00  0.00    -0.248 OA
ATOM      7  C   UNL     1     -36.935  23.229   3.474  0.00  0.00    +0.332 C 
BRANCH   7   8
ATOM      8  O   UNL     1     -36.474  22.588   4.580  0.00  0.00    -0.479 OA
ATOM      9  H   UNL     1     -36.876  22.744   5.412  0.00  0.00    +0.295 HD
ENDBRANCH   7   8
ENDBRANCH   5   7
BRANCH   5  10
ATOM     10  CB  UNL     1     -36.533  25.184   5.033  0.00  0.00    +0.033 C 
BRANCH  10  11
ATOM     11  CG  UNL     1     -35.405  26.203   4.827  0.00  0.00    +0.029 C 
BRANCH  11  12
ATOM     12  CD  UNL     1     -34.132  25.766   5.545  0.00  0.00    +0.129 C 
BRANCH  12  13
ATOM     13  NE  UNL     1     -33.027  26.631   5.126  0.00  0.00    -0.240 NA
BRANCH  13  16
ATOM     14  NH1 UNL     1     -32.323  28.849   5.723  0.00  0.00    -0.370 N 
ATOM     15  NH2 UNL     1     -32.489  27.214   7.303  0.00  0.00    -0.370 N 
ATOM     16  CZ  UNL     1     -32.636  27.530   5.973  0.00  0.00    +0.189 C 
ATOM     17 HH11 UNL     1     -32.386  29.204   4.807  0.00  0.00    +0.159 HD
ATOM     18 HH12 UNL     1     -32.035  29.434   6.460  0.00  0.00    +0.159 HD
ATOM     19 HH21 UNL     1     -32.682  26.301   7.616  0.00  0.00    +0.159 HD
ATOM     20 HH22 UNL     1     -32.192  27.902   7.942  0.00  0.00    +0.159 HD
ENDBRANCH  13  16
ENDBRANCH  12  13
ENDBRANCH  11  12
ENDBRANCH  10  11
ENDBRANCH   5  10
ENDBRANCH   2   5
BRANCH   3  21
ATOM     21  C   UNL     1     -40.723  25.890   3.096  0.00  0.00    +0.227 C 
BRANCH  21  22
ATOM     22  O   UNL     1     -41.207  27.215   3.121  0.00  0.00    -0.344 OA
BRANCH  22  23
ATOM     23  C   UNL     1     -42.083  27.440   4.222  0.00  0.00    +0.151 C 
BRANCH  23  24
ATOM     24  C   UNL     1     -43.451  27.918   3.696  0.00  0.00    +0.074 C 
BRANCH  24  25
ATOM     25  C   UNL     1     -44.552  26.873   3.819  0.00  0.00    -0.016 C 
ATOM     26  C   UNL     1     -45.293  26.775   4.997  0.00  0.00    -0.004 C 
ATOM     27  C   UNL     1     -44.819  26.011   2.754  0.00  0.00    -0.004 C 
ATOM     28  C   UNL     1     -46.301  25.817   5.110  0.00  0.00    -0.000 C 
ATOM     29  C   UNL     1     -45.827  25.054   2.868  0.00  0.00    -0.000 C 
ATOM     30  C   UNL     1     -46.568  24.957   4.045  0.00  0.00    -0.000 C 
ENDBRANCH  24  25
BRANCH  24  31
ATOM     31  C   UNL     1     -43.874  29.253   4.299  0.00  0.00    -0.016 C 
ATOM     32  C   UNL     1     -43.391  29.637   5.551  0.00  0.00    -0.004 C 
ATOM     33  C   UNL     1     -44.742  30.091   3.600  0.00  0.00    -0.004 C 
ATOM     34  C   UNL     1     -43.777  30.858   6.103  0.00  0.00    -0.000 C 
ATOM     35  C   UNL     1     -45.129  31.312   4.152  0.00  0.00    -0.000 C 
ATOM     36  C   UNL     1     -44.646  31.695   5.403  0.00  0.00    -0.000 C 
ENDBRANCH  24  31
ENDBRANCH  23  24
ENDBRANCH  22  23
ENDBRANCH  21  22
ENDBRANCH   3  21
TORSDOF 14
ENDMDL
MODEL 3
REMARK VINA RESULT:      -6.5      3.952     10.211
REMARK  Name = 5311120
REMARK  14 active torsions:
REMARK  status: ('A' for Active; 'I' for Inactive)
REMARK    1  A    between atoms: N_2  and  CA_5
REMARK    2  A    between atoms: C_3  and  C_21
REMARK    3  A    between atoms: CA_5  and  C_7
REMARK    4  A    between atoms: CA_5  and  CB_10
REMARK    5  A    between atoms: C_7  and  O_8
REMARK    6  A    between atoms: CB_10  and  CG_11
REMARK    7  A    between atoms: CG_11  and  CD_12
REMARK    8  A    between atoms: CD_12  and  NE_13
REMARK    9  A    between atoms: NE_13  and  CZ_16
REMARK   10  A    between atoms: C_21  and  O_22
REMARK   11  A    between atoms: O_22  and  C_23
REMARK   12  A    between atoms: C_23  and  C_24
REMARK   13  A    between atoms: C_24  and  C_25
REMARK   14  A    between atoms: C_24  and  C_31
REMARK                            x       y       z     vdW  Elec       q    Type
REMARK                         _______ _______ _______ _____ _____    ______ ____
ROOT
ATOM      1  O   UNL     1     -39.368  23.425  -0.471  0.00  0.00    -0.272 OA
ATOM      2  N   UNL     1     -39.772  23.638   1.810  0.00  0.00    -0.295 N 
ATOM      3  C   ACE A   0     -39.489  22.934   0.647  0.00  0.00    +0.253 C 
ATOM      4  H   UNL     1     -39.847  23.136   2.655  0.00  0.00    +0.150 HD
ENDROOT
BRANCH   2   5
ATOM      5  CA  UNL     1     -39.963  25.065   1.843  0.00  0.00    +0.171 C 
BRANCH   5   7
ATOM      6  OXT UNL     1     -38.196  26.599   2.525  0.00  0.00    -0.248 OA
ATOM      7  C   UNL     1     -38.937  25.660   2.788  0.00  0.00    +0.332 C 
BRANCH   7   8
ATOM      8  O   UNL     1     -38.953  25.052   4.003  0.00  0.00    -0.479 OA
ATOM      9  H   UNL     1     -38.408  24.306   4.160  0.00  0.00    +0.295 HD
ENDBRANCH   7   8
ENDBRANCH   5   7
BRANCH   5  10
ATOM     10  CB  UNL     1     -41.396  25.456   2.215  0.00  0.00    +0.033 C 
BRANCH  10  11
ATOM     11  CG  UNL     1     -41.569  26.935   2.582  0.00  0.00    +0.029 C 
BRANCH  11  12
ATOM     12  CD  UNL     1     -42.146  27.089   3.985  0.00  0.00    +0.129 C 
BRANCH  12  13
ATOM     13  NE  UNL     1     -42.072  28.498   4.379  0.00  0.00    -0.240 NA
BRANCH  13  16
ATOM     14  NH1 UNL     1     -44.450  28.838   4.357  0.00  0.00    -0.370 N 
ATOM     15  NH2 UNL     1     -43.129  29.939   5.854  0.00  0.00    -0.370 N 
ATOM     16  CZ  UNL     1     -43.165  29.040   4.814  0.00  0.00    +0.189 C 
ATOM     17 HH11 UNL     1     -44.615  28.216   3.612  0.00  0.00    +0.159 HD
ATOM     18 HH12 UNL     1     -45.201  29.317   4.776  0.00  0.00    +0.159 HD
ATOM     19 HH21 UNL     1     -42.268  30.172   6.272  0.00  0.00    +0.159 HD
ATOM     20 HH22 UNL     1     -43.962  30.349   6.180  0.00  0.00    +0.159 HD
ENDBRANCH  13  16
ENDBRANCH  12  13
ENDBRANCH  11  12
ENDBRANCH  10  11
ENDBRANCH   5  10
ENDBRANCH   2   5
BRANCH   3  21
ATOM     21  C   UNL     1     -39.339  21.450   0.910  0.00  0.00    +0.227 C 
BRANCH  21  22
ATOM     22  O   UNL     1     -38.300  21.210   1.836  0.00  0.00    -0.344 OA
BRANCH  22  23
ATOM     23  C   UNL     1     -37.028  21.585   1.315  0.00  0.00    +0.151 C 
BRANCH  23  24
ATOM     24  C   UNL     1     -35.918  21.017   2.221  0.00  0.00    +0.074 C 
BRANCH  24  25
ATOM     25  C   UNL     1     -34.621  20.715   1.481  0.00  0.00    -0.016 C 
ATOM     26  C   UNL     1     -33.999  19.477   1.639  0.00  0.00    -0.004 C 
ATOM     27  C   UNL     1     -34.055  21.678   0.645  0.00  0.00    -0.004 C 
ATOM     28  C   UNL     1     -32.811  19.201   0.962  0.00  0.00    -0.000 C 
ATOM     29  C   UNL     1     -32.867  21.402  -0.032  0.00  0.00    -0.000 C 
ATOM     30  C   UNL     1     -32.245  20.163   0.126  0.00  0.00    -0.000 C 
ENDBRANCH  24  25
BRANCH  24  31
ATOM     31  C   UNL     1     -35.674  21.877   3.455  0.00  0.00    -0.016 C 
ATOM     32  C   UNL     1     -35.302  21.279   4.660  0.00  0.00    -0.004 C 
ATOM     33  C   UNL     1     -35.822  23.262   3.380  0.00  0.00    -0.004 C 
ATOM     34  C   UNL     1     -35.078  22.066   5.789  0.00  0.00    -0.000 C 
ATOM     35  C   UNL     1     -35.598  24.049   4.511  0.00  0.00    -0.000 C 
ATOM     36  C   UNL     1     -35.226  23.451   5.714  0.00  0.00    -0.000 C 
ENDBRANCH  24  31
ENDBRANCH  23  24
ENDBRANCH  22  23
ENDBRANCH  21  22
ENDBRANCH   3  21
TORSDOF 14
ENDMDL
MODEL 4
REMARK VINA RESULT:      -6.5      5.112      8.506
REMARK  Name = 5311120
REMARK  14 active torsions:
REMARK  status: ('A' for Active; 'I' for Inactive)
REMARK    1  A    between atoms: N_2  and  CA_5
REMARK    2  A    between atoms: C_3  and  C_21
REMARK    3  A    between atoms: CA_5  and  C_7
REMARK    4  A    between atoms: CA_5  and  CB_10
REMARK    5  A    between atoms: C_7  and  O_8
REMARK    6  A    between atoms: CB_10  and  CG_11
REMARK    7  A    between atoms: CG_11  and  CD_12
REMARK    8  A    between atoms: CD_12  and  NE_13
REMARK    9  A    between atoms: NE_13  and  CZ_16
REMARK   10  A    between atoms: C_21  and  O_22
REMARK   11  A    between atoms: O_22  and  C_23
REMARK   12  A    between atoms: C_23  and  C_24
REMARK   13  A    between atoms: C_24  and  C_25
REMARK   14  A    between atoms: C_24  and  C_31
REMARK                            x       y       z     vdW  Elec       q    Type
REMARK                         _______ _______ _______ _____ _____    ______ ____
ROOT
ATOM      1  O   UNL     1     -32.291  26.961   4.002  0.00  0.00    -0.272 OA
ATOM      2  N   UNL     1     -32.353  28.135   6.009  0.00  0.00    -0.295 N 
ATOM      3  C   ACE A   0     -32.776  27.164   5.112  0.00  0.00    +0.253 C 
ATOM      4  H   UNL     1     -32.818  28.208   6.875  0.00  0.00    +0.150 HD
ENDROOT
BRANCH   2   5
ATOM      5  CA  UNL     1     -31.267  29.042   5.739  0.00  0.00    +0.171 C 
BRANCH   5   7
ATOM      6  OXT UNL     1     -29.319  27.631   6.131  0.00  0.00    -0.248 OA
ATOM      7  C   UNL     1     -30.042  28.553   6.487  0.00  0.00    +0.332 C 
BRANCH   7   8
ATOM      8  O   UNL     1     -29.801  29.290   7.604  0.00  0.00    -0.479 OA
ATOM      9  H   UNL     1     -30.415  29.944   7.874  0.00  0.00    +0.295 HD
ENDBRANCH   7   8
ENDBRANCH   5   7
BRANCH   5  10
ATOM     10  CB  UNL     1     -31.618  30.494   6.078  0.00  0.00    +0.033 C 
BRANCH  10  11
ATOM     11  CG  UNL     1     -31.447  31.471   4.909  0.00  0.00    +0.029 C 
BRANCH  11  12
ATOM     12  CD  UNL     1     -32.034  30.899   3.624  0.00  0.00    +0.129 C 
BRANCH  12  13
ATOM     13  NE  UNL     1     -33.473  30.695   3.805  0.00  0.00    -0.240 NA
BRANCH  13  16
ATOM     14  NH1 UNL     1     -35.262  29.182   3.275  0.00  0.00    -0.370 N 
ATOM     15  NH2 UNL     1     -33.361  29.224   2.018  0.00  0.00    -0.370 N 
ATOM     16  CZ  UNL     1     -34.024  29.760   3.097  0.00  0.00    +0.189 C 
ATOM     17 HH11 UNL     1     -35.841  29.476   4.016  0.00  0.00    +0.159 HD
ATOM     18 HH12 UNL     1     -35.567  28.474   2.663  0.00  0.00    +0.159 HD
ATOM     19 HH21 UNL     1     -32.463  29.551   1.781  0.00  0.00    +0.159 HD
ATOM     20 HH22 UNL     1     -33.784  28.514   1.483  0.00  0.00    +0.159 HD
ENDBRANCH  13  16
ENDBRANCH  12  13
ENDBRANCH  11  12
ENDBRANCH  10  11
ENDBRANCH   5  10
ENDBRANCH   2   5
BRANCH   3  21
ATOM     21  C   UNL     1     -33.934  26.356   5.660  0.00  0.00    +0.227 C 
BRANCH  21  22
ATOM     22  O   UNL     1     -35.165  26.892   5.225  0.00  0.00    -0.344 OA
BRANCH  22  23
ATOM     23  C   UNL     1     -36.208  25.921   5.258  0.00  0.00    +0.151 C 
BRANCH  23  24
ATOM     24  C   UNL     1     -36.200  25.119   3.942  0.00  0.00    +0.074 C 
BRANCH  24  25
ATOM     25  C   UNL     1     -35.842  23.650   4.125  0.00  0.00    -0.016 C 
ATOM     26  C   UNL     1     -35.755  22.810   3.015  0.00  0.00    -0.004 C 
ATOM     27  C   UNL     1     -35.601  23.144   5.403  0.00  0.00    -0.004 C 
ATOM     28  C   UNL     1     -35.429  21.464   3.182  0.00  0.00    -0.000 C 
ATOM     29  C   UNL     1     -35.274  21.798   5.569  0.00  0.00    -0.000 C 
ATOM     30  C   UNL     1     -35.187  20.958   4.459  0.00  0.00    -0.000 C 
ENDBRANCH  24  25
BRANCH  24  31
ATOM     31  C   UNL     1     -37.491  25.289   3.148  0.00  0.00    -0.016 C 
ATOM     32  C   UNL     1     -37.527  26.150   2.051  0.00  0.00    -0.004 C 
ATOM     33  C   UNL     1     -38.635  24.581   3.518  0.00  0.00    -0.004 C 
ATOM     34  C   UNL     1     -38.707  26.306   1.325  0.00  0.00    -0.000 C 
ATOM     35  C   UNL     1     -39.815  24.737   2.791  0.00  0.00    -0.000 C 
ATOM     36  C   UNL     1     -39.851  25.599   1.695  0.00  0.00    -0.000 C 
ENDBRANCH  24  31
ENDBRANCH  23  24
ENDBRANCH  22  23
ENDBRANCH  21  22
ENDBRANCH   3  21
TORSDOF 14
ENDMDL
MODEL 5
REMARK VINA RESULT:      -6.5      8.145     11.407
REMARK  Name = 5311120
REMARK  14 active torsions:
REMARK  status: ('A' for Active; 'I' for Inactive)
REMARK    1  A    between atoms: N_2  and  CA_5
REMARK    2  A    between atoms: C_3  and  C_21
REMARK    3  A    between atoms: CA_5  and  C_7
REMARK    4  A    between atoms: CA_5  and  CB_10
REMARK    5  A    between atoms: C_7  and  O_8
REMARK    6  A    between atoms: CB_10  and  CG_11
REMARK    7  A    between atoms: CG_11  and  CD_12
REMARK    8  A    between atoms: CD_12  and  NE_13
REMARK    9  A    between atoms: NE_13  and  CZ_16
REMARK   10  A    between atoms: C_21  and  O_22
REMARK   11  A    between atoms: O_22  and  C_23
REMARK   12  A    between atoms: C_23  and  C_24
REMARK   13  A    between atoms: C_24  and  C_25
REMARK   14  A    between atoms: C_24  and  C_31
REMARK                            x       y       z     vdW  Elec       q    Type
REMARK                         _______ _______ _______ _____ _____    ______ ____
ROOT
ATOM      1  O   UNL     1     -38.600  20.920  -1.708  0.00  0.00    -0.272 OA
ATOM      2  N   UNL     1     -38.147  19.214  -0.194  0.00  0.00    -0.295 N 
ATOM      3  C   ACE A   0     -38.643  20.454  -0.573  0.00  0.00    +0.253 C 
ATOM      4  H   UNL     1     -38.236  18.942   0.749  0.00  0.00    +0.150 HD
ENDROOT
BRANCH   2   5
ATOM      5  CA  UNL     1     -37.508  18.304  -1.110  0.00  0.00    +0.171 C 
BRANCH   5   7
ATOM      6  OXT UNL     1     -38.121  15.952  -1.287  0.00  0.00    -0.248 OA
ATOM      7  C   UNL     1     -37.727  16.890  -0.606  0.00  0.00    +0.332 C 
BRANCH   7   8
ATOM      8  O   UNL     1     -37.395  16.761   0.706  0.00  0.00    -0.479 OA
ATOM      9  H   UNL     1     -36.980  17.471   1.155  0.00  0.00    +0.295 HD
ENDBRANCH   7   8
ENDBRANCH   5   7
BRANCH   5  10
ATOM     10  CB  UNL     1     -36.025  18.627  -1.316  0.00  0.00    +0.033 C 
BRANCH  10  11
ATOM     11  CG  UNL     1     -35.335  17.761  -2.378  0.00  0.00    +0.029 C 
BRANCH  11  12
ATOM     12  CD  UNL     1     -33.998  17.231  -1.871  0.00  0.00    +0.129 C 
BRANCH  12  13
ATOM     13  NE  UNL     1     -34.042  15.767  -1.851  0.00  0.00    -0.240 NA
BRANCH  13  16
ATOM     14  NH1 UNL     1     -35.411  14.090  -0.811  0.00  0.00    -0.370 N 
ATOM     15  NH2 UNL     1     -34.460  15.750   0.428  0.00  0.00    -0.370 N 
ATOM     16  CZ  UNL     1     -34.614  15.214  -0.828  0.00  0.00    +0.189 C 
ATOM     17 HH11 UNL     1     -35.602  13.609  -1.648  0.00  0.00    +0.159 HD
ATOM     18 HH12 UNL     1     -35.790  13.769   0.039  0.00  0.00    +0.159 HD
ATOM     19 HH21 UNL     1     -33.911  16.558   0.554  0.00  0.00    +0.159 HD
ATOM     20 HH22 UNL     1     -34.897  15.326   1.201  0.00  0.00    +0.159 HD
ENDBRANCH  13  16
ENDBRANCH  12  13
ENDBRANCH  11  12
ENDBRANCH  10  11
ENDBRANCH   5  10
ENDBRANCH   2   5
BRANCH   3  21
ATOM     21  C   UNL     1     -39.261  21.194   0.594  0.00  0.00    +0.227 C 
BRANCH  21  22
ATOM     22  O   UNL     1     -38.458  21.065   1.748  0.00  0.00    -0.344 OA
BRANCH  22  23
ATOM     23  C   UNL     1     -37.278  21.859   1.665  0.00  0.00    +0.151 C 
BRANCH  23  24
ATOM     24  C   UNL     1     -36.155  21.191   2.483  0.00  0.00    +0.074 C 
BRANCH  24  25
ATOM     25  C   UNL     1     -34.914  20.862   1.663  0.00  0.00    -0.016 C 
ATOM     26  C   UNL     1     -34.290  19.623   1.807  0.00  0.00    -0.004 C 
ATOM     27  C   UNL     1     -34.402  21.801   0.766  0.00  0.00    -0.004 C 
ATOM     28  C   UNL     1     -33.153  19.323   1.057  0.00  0.00    -0.000 C 
ATOM     29  C   UNL     1     -33.265  21.500   0.016  0.00  0.00    -0.000 C 
ATOM     30  C   UNL     1     -32.641  20.261   0.160  0.00  0.00    -0.000 C 
ENDBRANCH  24  25
BRANCH  24  31
ATOM     31  C   UNL     1     -35.805  21.976   3.742  0.00  0.00    -0.016 C 
ATOM     32  C   UNL     1     -35.267  21.317   4.848  0.00  0.00    -0.004 C 
ATOM     33  C   UNL     1     -36.021  23.353   3.788  0.00  0.00    -0.004 C 
ATOM     34  C   UNL     1     -34.947  22.035   6.000  0.00  0.00    -0.000 C 
ATOM     35  C   UNL     1     -35.700  24.071   4.940  0.00  0.00    -0.000 C 
ATOM     36  C   UNL     1     -35.163  23.412   6.046  0.00  0.00    -0.000 C 
ENDBRANCH  24  31
ENDBRANCH  23  24
ENDBRANCH  22  23
ENDBRANCH  21  22
ENDBRANCH   3  21
TORSDOF 14
ENDMDL
MODEL 6
REMARK VINA RESULT:      -6.5      2.727      4.943
REMARK  Name = 5311120
REMARK  14 active torsions:
REMARK  status: ('A' for Active; 'I' for Inactive)
REMARK    1  A    between atoms: N_2  and  CA_5
REMARK    2  A    between atoms: C_3  and  C_21
REMARK    3  A    between atoms: CA_5  and  C_7
REMARK    4  A    between atoms: CA_5  and  CB_10
REMARK    5  A    between atoms: C_7  and  O_8
REMARK    6  A    between atoms: CB_10  and  CG_11
REMARK    7  A    between atoms: CG_11  and  CD_12
REMARK    8  A    between atoms: CD_12  and  NE_13
REMARK    9  A    between atoms: NE_13  and  CZ_16
REMARK   10  A    between atoms: C_21  and  O_22
REMARK   11  A    between atoms: O_22  and  C_23
REMARK   12  A    between atoms: C_23  and  C_24
REMARK   13  A    between atoms: C_24  and  C_25
REMARK   14  A    between atoms: C_24  and  C_31
REMARK                            x       y       z     vdW  Elec       q    Type
REMARK                         _______ _______ _______ _____ _____    ______ ____
ROOT
ATOM      1  O   UNL     1     -36.159  22.970   1.605  0.00  0.00    -0.272 OA
ATOM      2  N   UNL     1     -36.943  22.422   3.725  0.00  0.00    -0.295 N 
ATOM      3  C   ACE A   0     -37.037  22.534   2.345  0.00  0.00    +0.253 C 
ATOM      4  H   UNL     1     -37.713  22.056   4.219  0.00  0.00    +0.150 HD
ENDROOT
BRANCH   2   5
ATOM      5  CA  UNL     1     -35.775  22.814   4.473  0.00  0.00    +0.171 C 
BRANCH   5   7
ATOM      6  OXT UNL     1     -35.988  22.087   6.789  0.00  0.00    -0.248 OA
ATOM      7  C   UNL     1     -35.619  21.862   5.643  0.00  0.00    +0.332 C 
BRANCH   7   8
ATOM      8  O   UNL     1     -35.047  20.688   5.271  0.00  0.00    -0.479 OA
ATOM      9  H   UNL     1     -35.507  19.882   5.399  0.00  0.00    +0.295 HD
ENDBRANCH   7   8
ENDBRANCH   5   7
BRANCH   5  10
ATOM     10  CB  UNL     1     -35.827  24.280   4.914  0.00  0.00    +0.033 C 
BRANCH  10  11
ATOM     11  CG  UNL     1     -34.471  24.856   5.338  0.00  0.00    +0.029 C 
BRANCH  11  12
ATOM     12  CD  UNL     1     -34.345  26.321   4.931  0.00  0.00    +0.129 C 
BRANCH  12  13
ATOM     13  NE  UNL     1     -32.938  26.719   5.013  0.00  0.00    -0.240 NA
BRANCH  13  16
ATOM     14  NH1 UNL     1     -32.505  27.237   7.319  0.00  0.00    -0.370 N 
ATOM     15  NH2 UNL     1     -32.334  28.844   5.711  0.00  0.00    -0.370 N 
ATOM     16  CZ  UNL     1     -32.615  27.525   5.976  0.00  0.00    +0.189 C 
ATOM     17 HH11 UNL     1     -32.682  26.325   7.643  0.00  0.00    +0.159 HD
ATOM     18 HH12 UNL     1     -32.251  27.945   7.954  0.00  0.00    +0.159 HD
ATOM     19 HH21 UNL     1     -32.376  29.181   4.787  0.00  0.00    +0.159 HD
ATOM     20 HH22 UNL     1     -32.089  29.452   6.446  0.00  0.00    +0.159 HD
ENDBRANCH  13  16
ENDBRANCH  12  13
ENDBRANCH  11  12
ENDBRANCH  10  11
ENDBRANCH   5  10
ENDBRANCH   2   5
BRANCH   3  21
ATOM     21  C   UNL     1     -38.375  22.047   1.830  0.00  0.00    +0.227 C 
BRANCH  21  22
ATOM     22  O   UNL     1     -39.433  22.722   2.476  0.00  0.00    -0.344 OA
BRANCH  22  23
ATOM     23  C   UNL     1     -39.985  23.751   1.659  0.00  0.00    +0.151 C 
BRANCH  23  24
ATOM     24  C   UNL     1     -39.901  25.096   2.406  0.00  0.00    +0.074 C 
BRANCH  24  25
ATOM     25  C   UNL     1     -38.870  26.055   1.822  0.00  0.00    -0.016 C 
ATOM     26  C   UNL     1     -39.166  26.777   0.666  0.00  0.00    -0.004 C 
ATOM     27  C   UNL     1     -37.631  26.211   2.444  0.00  0.00    -0.004 C 
ATOM     28  C   UNL     1     -38.222  27.654   0.131  0.00  0.00    -0.000 C 
ATOM     29  C   UNL     1     -36.688  27.088   1.909  0.00  0.00    -0.000 C 
ATOM     30  C   UNL     1     -36.984  27.810   0.753  0.00  0.00    -0.000 C 
ENDBRANCH  24  25
BRANCH  24  31
ATOM     31  C   UNL     1     -41.262  25.763   2.563  0.00  0.00    -0.016 C 
ATOM     32  C   UNL     1     -42.274  25.510   1.636  0.00  0.00    -0.004 C 
ATOM     33  C   UNL     1     -41.498  26.625   3.634  0.00  0.00    -0.004 C 
ATOM     34  C   UNL     1     -43.520  26.119   1.779  0.00  0.00    -0.000 C 
ATOM     35  C   UNL     1     -42.745  27.234   3.778  0.00  0.00    -0.000 C 
ATOM     36  C   UNL     1     -43.755  26.981   2.850  0.00  0.00    -0.000 C 
ENDBRANCH  24  31
ENDBRANCH  23  24
ENDBRANCH  22  23
ENDBRANCH  21  22
ENDBRANCH   3  21
TORSDOF 14
ENDMDL
MODEL 7
REMARK VINA RESULT:      -6.5      8.880     11.640
REMARK  Name = 5311120
REMARK  14 active torsions:
REMARK  status: ('A' for Active; 'I' for Inactive)
REMARK    1  A    between atoms: N_2  and  CA_5
REMARK    2  A    between atoms: C_3  and  C_21
REMARK    3  A    between atoms: CA_5  and  C_7
REMARK    4  A    between atoms: CA_5  and  CB_10
REMARK    5  A    between atoms: C_7  and  O_8
REMARK    6  A    between atoms: CB_10  and  CG_11
REMARK    7  A    between atoms: CG_11  and  CD_12
REMARK    8  A    between atoms: CD_12  and  NE_13
REMARK    9  A    between atoms: NE_13  and  CZ_16
REMARK   10  A    between atoms: C_21  and  O_22
REMARK   11  A    between atoms: O_22  and  C_23
REMARK   12  A    between atoms: C_23  and  C_24
REMARK   13  A    between atoms: C_24  and  C_25
REMARK   14  A    between atoms: C_24  and  C_31
REMARK                            x       y       z     vdW  Elec       q    Type
REMARK                         _______ _______ _______ _____ _____    ______ ____
ROOT
ATOM      1  O   UNL     1     -39.910  19.603  -0.670  0.00  0.00    -0.272 OA
ATOM      2  N   UNL     1     -37.873  18.521  -0.976  0.00  0.00    -0.295 N 
ATOM      3  C   ACE A   0     -38.682  19.598  -0.641  0.00  0.00    +0.253 C 
ATOM      4  H   UNL     1     -36.896  18.632  -0.916  0.00  0.00    +0.150 HD
ENDROOT
BRANCH   2   5
ATOM      5  CA  UNL     1     -38.391  17.248  -1.408  0.00  0.00    +0.171 C 
BRANCH   5   7
ATOM      6  OXT UNL     1     -38.557  15.082  -0.303  0.00  0.00    -0.248 OA
ATOM      7  C   UNL     1     -38.148  16.237  -0.305  0.00  0.00    +0.332 C 
BRANCH   7   8
ATOM      8  O   UNL     1     -37.377  16.746   0.691  0.00  0.00    -0.479 OA
ATOM      9  H   UNL     1     -37.453  16.408   1.561  0.00  0.00    +0.295 HD
ENDBRANCH   7   8
ENDBRANCH   5   7
BRANCH   5  10
ATOM     10  CB  UNL     1     -37.802  16.801  -2.750  0.00  0.00    +0.033 C 
BRANCH  10  11
ATOM     11  CG  UNL     1     -36.413  17.378  -3.050  0.00  0.00    +0.029 C 
BRANCH  11  12
ATOM     12  CD  UNL     1     -35.319  16.362  -2.742  0.00  0.00    +0.129 C 
BRANCH  12  13
ATOM     13  NE  UNL     1     -34.790  16.623  -1.401  0.00  0.00    -0.240 NA
BRANCH  13  16
ATOM     14  NH1 UNL     1     -35.343  14.573  -0.277  0.00  0.00    -0.370 N 
ATOM     15  NH2 UNL     1     -33.222  15.404  -0.208  0.00  0.00    -0.370 N 
ATOM     16  CZ  UNL     1     -34.501  15.588  -0.677  0.00  0.00    +0.189 C 
ATOM     17 HH11 UNL     1     -36.290  14.585  -0.546  0.00  0.00    +0.159 HD
ATOM     18 HH12 UNL     1     -34.998  13.837   0.278  0.00  0.00    +0.159 HD
ATOM     19 HH21 UNL     1     -32.520  16.059  -0.423  0.00  0.00    +0.159 HD
ATOM     20 HH22 UNL     1     -33.008  14.616   0.342  0.00  0.00    +0.159 HD
ENDBRANCH  13  16
ENDBRANCH  12  13
ENDBRANCH  11  12
ENDBRANCH  10  11
ENDBRANCH   5  10
ENDBRANCH   2   5
BRANCH   3  21
ATOM     21  C   UNL     1     -37.868  20.805  -0.222  0.00  0.00    +0.227 C 
BRANCH  21  22
ATOM     22  O   UNL     1     -37.990  21.031   1.166  0.00  0.00    -0.344 OA
BRANCH  22  23
ATOM     23  C   UNL     1     -36.893  20.482   1.891  0.00  0.00    +0.151 C 
BRANCH  23  24
ATOM     24  C   UNL     1     -35.708  21.466   1.847  0.00  0.00    +0.074 C 
BRANCH  24  25
ATOM     25  C   UNL     1     -35.444  22.164   3.175  0.00  0.00    -0.016 C 
ATOM     26  C   UNL     1     -35.173  23.532   3.203  0.00  0.00    -0.004 C 
ATOM     27  C   UNL     1     -35.473  21.434   4.364  0.00  0.00    -0.004 C 
ATOM     28  C   UNL     1     -34.930  24.170   4.420  0.00  0.00    -0.000 C 
ATOM     29  C   UNL     1     -35.231  22.073   5.580  0.00  0.00    -0.000 C 
ATOM     30  C   UNL     1     -34.960  23.441   5.608  0.00  0.00    -0.000 C 
ENDBRANCH  24  25
BRANCH  24  31
ATOM     31  C   UNL     1     -34.442  20.831   1.284  0.00  0.00    -0.016 C 
ATOM     32  C   UNL     1     -34.086  19.535   1.660  0.00  0.00    -0.004 C 
ATOM     33  C   UNL     1     -33.640  21.544   0.394  0.00  0.00    -0.004 C 
ATOM     34  C   UNL     1     -32.927  18.953   1.146  0.00  0.00    -0.000 C 
ATOM     35  C   UNL     1     -32.481  20.961  -0.121  0.00  0.00    -0.000 C 
ATOM     36  C   UNL     1     -32.125  19.666   0.255  0.00  0.00    -0.000 C 
ENDBRANCH  24  31
ENDBRANCH  23  24
ENDBRANCH  22  23
ENDBRANCH  21  22
ENDBRANCH   3  21
TORSDOF 14
ENDMDL
MODEL 8
REMARK VINA RESULT:      -6.5      2.509      3.882
REMARK  Name = 5311120
REMARK  14 active torsions:
REMARK  status: ('A' for Active; 'I' for Inactive)
REMARK    1  A    between atoms: N_2  and  CA_5
REMARK    2  A    between atoms: C_3  and  C_21
REMARK    3  A    between atoms: CA_5  and  C_7
REMARK    4  A    between atoms: CA_5  and  CB_10
REMARK    5  A    between atoms: C_7  and  O_8
REMARK    6  A    between atoms: CB_10  and  CG_11
REMARK    7  A    between atoms: CG_11  and  CD_12
REMARK    8  A    between atoms: CD_12  and  NE_13
REMARK    9  A    between atoms: NE_13  and  CZ_16
REMARK   10  A    between atoms: C_21  and  O_22
REMARK   11  A    between atoms: O_22  and  C_23
REMARK   12  A    between atoms: C_23  and  C_24
REMARK   13  A    between atoms: C_24  and  C_25
REMARK   14  A    between atoms: C_24  and  C_31
REMARK                            x       y       z     vdW  Elec       q    Type
REMARK                         _______ _______ _______ _____ _____    ______ ____
ROOT
ATOM      1  O   UNL     1     -39.743  24.142   3.384  0.00  0.00    -0.272 OA
ATOM      2  N   UNL     1     -38.214  25.895   3.384  0.00  0.00    -0.295 N 
ATOM      3  C   ACE A   0     -39.463  25.321   3.186  0.00  0.00    +0.253 C 
ATOM      4  H   UNL     1     -38.104  26.855   3.192  0.00  0.00    +0.150 HD
ENDROOT
BRANCH   2   5
ATOM      5  CA  UNL     1     -37.071  25.157   3.857  0.00  0.00    +0.171 C 
BRANCH   5   7
ATOM      6  OXT UNL     1     -35.987  25.880   5.917  0.00  0.00    -0.248 OA
ATOM      7  C   UNL     1     -36.243  26.076   4.735  0.00  0.00    +0.332 C 
BRANCH   7   8
ATOM      8  O   UNL     1     -35.770  27.147   4.046  0.00  0.00    -0.479 OA
ATOM      9  H   UNL     1     -36.134  27.363   3.210  0.00  0.00    +0.295 HD
ENDBRANCH   7   8
ENDBRANCH   5   7
BRANCH   5  10
ATOM     10  CB  UNL     1     -36.253  24.548   2.714  0.00  0.00    +0.033 C 
BRANCH  10  11
ATOM     11  CG  UNL     1     -35.282  23.446   3.155  0.00  0.00    +0.029 C 
BRANCH  11  12
ATOM     12  CD  UNL     1     -35.217  22.326   2.122  0.00  0.00    +0.129 C 
BRANCH  12  13
ATOM     13  NE  UNL     1     -36.547  22.138   1.538  0.00  0.00    -0.240 NA
BRANCH  13  16
ATOM     14  NH1 UNL     1     -36.854  19.870   2.269  0.00  0.00    -0.370 N 
ATOM     15  NH2 UNL     1     -38.587  21.351   2.306  0.00  0.00    -0.370 N 
ATOM     16  CZ  UNL     1     -37.258  21.162   2.007  0.00  0.00    +0.189 C 
ATOM     17 HH11 UNL     1     -35.923  19.602   2.098  0.00  0.00    +0.159 HD
ATOM     18 HH12 UNL     1     -37.497  19.217   2.627  0.00  0.00    +0.159 HD
ATOM     19 HH21 UNL     1     -39.002  22.233   2.165  0.00  0.00    +0.159 HD
ATOM     20 HH22 UNL     1     -39.123  20.606   2.663  0.00  0.00    +0.159 HD
ENDBRANCH  13  16
ENDBRANCH  12  13
ENDBRANCH  11  12
ENDBRANCH  10  11
ENDBRANCH   5  10
ENDBRANCH   2   5
BRANCH   3  21
ATOM     21  C   UNL     1     -40.474  26.331   2.686  0.00  0.00    +0.227 C 
BRANCH  21  22
ATOM     22  O   UNL     1     -41.195  26.890   3.763  0.00  0.00    -0.344 OA
BRANCH  22  23
ATOM     23  C   UNL     1     -42.300  27.669   3.315  0.00  0.00    +0.151 C 
BRANCH  23  24
ATOM     24  C   UNL     1     -43.323  27.810   4.460  0.00  0.00    +0.074 C 
BRANCH  24  25
ATOM     25  C   UNL     1     -43.798  29.241   4.681  0.00  0.00    -0.016 C 
ATOM     26  C   UNL     1     -44.545  29.887   3.697  0.00  0.00    -0.004 C 
ATOM     27  C   UNL     1     -43.484  29.905   5.868  0.00  0.00    -0.004 C 
ATOM     28  C   UNL     1     -44.979  31.198   3.899  0.00  0.00    -0.000 C 
ATOM     29  C   UNL     1     -43.919  31.214   6.069  0.00  0.00    -0.000 C 
ATOM     30  C   UNL     1     -44.667  31.861   5.085  0.00  0.00    -0.000 C 
ENDBRANCH  24  25
BRANCH  24  31
ATOM     31  C   UNL     1     -44.494  26.845   4.319  0.00  0.00    -0.016 C 
ATOM     32  C   UNL     1     -45.389  26.674   5.376  0.00  0.00    -0.004 C 
ATOM     33  C   UNL     1     -44.672  26.132   3.133  0.00  0.00    -0.004 C 
ATOM     34  C   UNL     1     -46.460  25.791   5.247  0.00  0.00    -0.000 C 
ATOM     35  C   UNL     1     -45.744  25.249   3.005  0.00  0.00    -0.000 C 
ATOM     36  C   UNL     1     -46.638  25.079   4.061  0.00  0.00    -0.000 C 
ENDBRANCH  24  31
ENDBRANCH  23  24
ENDBRANCH  22  23
ENDBRANCH  21  22
ENDBRANCH   3  21
TORSDOF 14
ENDMDL
MODEL 9
REMARK VINA RESULT:      -6.4      2.827      5.395
REMARK  Name = 5311120
REMARK  14 active torsions:
REMARK  status: ('A' for Active; 'I' for Inactive)
REMARK    1  A    between atoms: N_2  and  CA_5
REMARK    2  A    between atoms: C_3  and  C_21
REMARK    3  A    between atoms: CA_5  and  C_7
REMARK    4  A    between atoms: CA_5  and  CB_10
REMARK    5  A    between atoms: C_7  and  O_8
REMARK    6  A    between atoms: CB_10  and  CG_11
REMARK    7  A    between atoms: CG_11  and  CD_12
REMARK    8  A    between atoms: CD_12  and  NE_13
REMARK    9  A    between atoms: NE_13  and  CZ_16
REMARK   10  A    between atoms: C_21  and  O_22
REMARK   11  A    between atoms: O_22  and  C_23
REMARK   12  A    between atoms: C_23  and  C_24
REMARK   13  A    between atoms: C_24  and  C_25
REMARK   14  A    between atoms: C_24  and  C_31
REMARK                            x       y       z     vdW  Elec       q    Type
REMARK                         _______ _______ _______ _____ _____    ______ ____
ROOT
ATOM      1  O   UNL     1     -36.115  22.856   1.785  0.00  0.00    -0.272 OA
ATOM      2  N   UNL     1     -36.739  22.386   3.976  0.00  0.00    -0.295 N 
ATOM      3  C   ACE A   0     -36.930  22.436   2.602  0.00  0.00    +0.253 C 
ATOM      4  H   UNL     1     -37.465  22.028   4.538  0.00  0.00    +0.150 HD
ENDROOT
BRANCH   2   5
ATOM      5  CA  UNL     1     -35.531  22.830   4.623  0.00  0.00    +0.171 C 
BRANCH   5   7
ATOM      6  OXT UNL     1     -35.193  22.290   6.975  0.00  0.00    -0.248 OA
ATOM      7  C   UNL     1     -35.265  21.923   5.809  0.00  0.00    +0.332 C 
BRANCH   7   8
ATOM      8  O   UNL     1     -35.152  20.621   5.438  0.00  0.00    -0.479 OA
ATOM      9  H   UNL     1     -34.532  20.374   4.780  0.00  0.00    +0.295 HD
ENDBRANCH   7   8
ENDBRANCH   5   7
BRANCH   5  10
ATOM     10  CB  UNL     1     -35.589  24.309   5.020  0.00  0.00    +0.033 C 
BRANCH  10  11
ATOM     11  CG  UNL     1     -34.269  25.064   4.823  0.00  0.00    +0.029 C 
BRANCH  11  12
ATOM     12  CD  UNL     1     -34.194  26.285   5.733  0.00  0.00    +0.129 C 
BRANCH  12  13
ATOM     13  NE  UNL     1     -33.082  27.135   5.301  0.00  0.00    -0.240 NA
BRANCH  13  16
ATOM     14  NH1 UNL     1     -31.354  28.603   6.094  0.00  0.00    -0.370 N 
ATOM     15  NH2 UNL     1     -32.556  27.325   7.549  0.00  0.00    -0.370 N 
ATOM     16  CZ  UNL     1     -32.360  27.672   6.234  0.00  0.00    +0.189 C 
ATOM     17 HH11 UNL     1     -31.113  28.937   5.200  0.00  0.00    +0.159 HD
ATOM     18 HH12 UNL     1     -30.877  28.934   6.889  0.00  0.00    +0.159 HD
ATOM     19 HH21 UNL     1     -33.248  26.666   7.787  0.00  0.00    +0.159 HD
ATOM     20 HH22 UNL     1     -32.005  27.736   8.254  0.00  0.00    +0.159 HD
ENDBRANCH  13  16
ENDBRANCH  12  13
ENDBRANCH  11  12
ENDBRANCH  10  11
ENDBRANCH   5  10
ENDBRANCH   2   5
BRANCH   3  21
ATOM     21  C   UNL     1     -38.290  21.904   2.203  0.00  0.00    +0.227 C 
BRANCH  21  22
ATOM     22  O   UNL     1     -39.026  22.887   1.507  0.00  0.00    -0.344 OA
BRANCH  22  23
ATOM     23  C   UNL     1     -39.595  23.848   2.390  0.00  0.00    +0.151 C 
BRANCH  23  24
ATOM     24  C   UNL     1     -39.918  25.135   1.605  0.00  0.00    +0.074 C 
BRANCH  24  25
ATOM     25  C   UNL     1     -41.157  25.863   2.110  0.00  0.00    -0.016 C 
ATOM     26  C   UNL     1     -42.241  26.070   1.258  0.00  0.00    -0.004 C 
ATOM     27  C   UNL     1     -41.208  26.323   3.427  0.00  0.00    -0.004 C 
ATOM     28  C   UNL     1     -43.375  26.738   1.720  0.00  0.00    -0.000 C 
ATOM     29  C   UNL     1     -42.343  26.990   3.889  0.00  0.00    -0.000 C 
ATOM     30  C   UNL     1     -43.427  27.198   3.036  0.00  0.00    -0.000 C 
ENDBRANCH  24  25
BRANCH  24  31
ATOM     31  C   UNL     1     -38.720  26.071   1.500  0.00  0.00    -0.016 C 
ATOM     32  C   UNL     1     -38.654  27.006   0.467  0.00  0.00    -0.004 C 
ATOM     33  C   UNL     1     -37.690  25.993   2.438  0.00  0.00    -0.004 C 
ATOM     34  C   UNL     1     -37.558  27.863   0.370  0.00  0.00    -0.000 C 
ATOM     35  C   UNL     1     -36.593  26.850   2.341  0.00  0.00    -0.000 C 
ATOM     36  C   UNL     1     -36.528  27.785   1.308  0.00  0.00    -0.000 C 
ENDBRANCH  24  31
ENDBRANCH  23  24
ENDBRANCH  22  23
ENDBRANCH  21  22
ENDBRANCH   3  21
TORSDOF 14
ENDMDL
