MODEL 1
REMARK VINA RESULT:      -7.3      0.000      0.000
REMARK  Name = 5315127
REMARK  8 active torsions:
REMARK  status: ('A' for Active; 'I' for Inactive)
REMARK    1  A    between atoms: C_3  and  C_12
REMARK    2  A    between atoms: C_5  and  O_27
REMARK    3  A    between atoms: C_8  and  O_29
REMARK    4  A    between atoms: C_10  and  O_31
REMARK    5  A    between atoms: C_13  and  C_22
REMARK    6  A    between atoms: C_15  and  O_18
REMARK    7  A    between atoms: C_17  and  O_20
REMARK    8  A    between atoms: C_22  and  C_23
REMARK                            x       y       z     vdW  Elec       q    Type
REMARK                         _______ _______ _______ _____ _____    ______ ____
ROOT
ATOM      1  O   UNL     1     -33.427  26.222   4.895  0.00  0.00    -0.450 OA
ATOM      2  O   UNL     1     -34.103  29.091   2.083  0.00  0.00    -0.283 OA
ATOM      3  C   UNL     1     -34.165  25.954   3.753  0.00  0.00    +0.182 A 
ATOM      4  C   UNL     1     -33.101  28.503   4.135  0.00  0.00    +0.110 A 
ATOM      5  C   UNL     1     -34.432  26.854   2.789  0.00  0.00    +0.212 A 
ATOM      6  C   UNL     1     -32.908  27.479   5.059  0.00  0.00    +0.155 A 
ATOM      7  C   UNL     1     -33.896  28.230   2.927  0.00  0.00    +0.238 A 
ATOM      8  C   UNL     1     -32.549  29.767   4.356  0.00  0.00    +0.143 C 
ATOM      9  C   UNL     1     -32.160  27.714   6.214  0.00  0.00    +0.074 C 
ATOM     10  C   UNL     1     -31.607  28.974   6.438  0.00  0.00    +0.140 C 
ATOM     11  C   UNL     1     -31.800  29.999   5.510  0.00  0.00    +0.073 C 
ENDROOT
BRANCH   3  12
ATOM     12  C   UNL     1     -34.664  24.568   3.702  0.00  0.00    +0.041 C 
ATOM     13  C   UNL     1     -35.177  22.574   2.438  0.00  0.00    +0.019 C 
ATOM     14  C   UNL     1     -34.705  23.886   2.486  0.00  0.00    +0.002 C 
ATOM     15  C   UNL     1     -35.608  21.945   3.605  0.00  0.00    +0.164 C 
ATOM     16  C   UNL     1     -35.095  23.938   4.870  0.00  0.00    +0.043 C 
ATOM     17  C   UNL     1     -35.567  22.627   4.821  0.00  0.00    +0.167 C 
BRANCH  15  18
ATOM     18  O   UNL     1     -36.070  20.662   3.562  0.00  0.00    -0.503 OA
ATOM     19  H   UNL     1     -36.037  20.126   4.330  0.00  0.00    +0.292 HD
ENDBRANCH  15  18
BRANCH  17  20
ATOM     20  O   UNL     1     -35.984  22.022   5.969  0.00  0.00    -0.503 OA
ATOM     21  H   UNL     1     -35.378  21.525   6.483  0.00  0.00    +0.292 HD
ENDBRANCH  17  20
BRANCH  13  22
ATOM     22  C   UNL     1     -35.214  21.860   1.126  0.00  0.00    +0.055 C 
BRANCH  22  23
ATOM     23  C   UNL     1     -33.840  21.537   0.595  0.00  0.00    -0.030 C 
ATOM     24  C   UNL     1     -33.173  20.369   0.672  0.00  0.00    -0.048 C 
ATOM     25  C   UNL     1     -31.800  20.116   0.117  0.00  0.00    +0.026 C 
ATOM     26  C   UNL     1     -33.792  19.183   1.362  0.00  0.00    +0.026 C 
ENDBRANCH  22  23
ENDBRANCH  13  22
ENDBRANCH   3  12
BRANCH   5  27
ATOM     27  O   UNL     1     -35.199  26.566   1.681  0.00  0.00    -0.465 OA
ATOM     28  C   UNL     1     -36.538  26.983   1.874  0.00  0.00    +0.253 C 
ENDBRANCH   5  27
BRANCH   8  29
ATOM     29  O   UNL     1     -32.707  30.801   3.483  0.00  0.00    -0.505 OA
ATOM     30  H   UNL     1     -31.961  31.167   3.050  0.00  0.00    +0.292 HD
ENDBRANCH   8  29
BRANCH  10  31
ATOM     31  O   UNL     1     -30.876  29.205   7.563  0.00  0.00    -0.505 OA
ATOM     32  H   UNL     1     -30.969  30.015   8.024  0.00  0.00    +0.292 HD
ENDBRANCH  10  31
TORSDOF 8
ENDMDL
MODEL 2
REMARK VINA RESULT:      -7.2      1.982      3.728
REMARK  Name = 5315127
REMARK  8 active torsions:
REMARK  status: ('A' for Active; 'I' for Inactive)
REMARK    1  A    between atoms: C_3  and  C_12
REMARK    2  A    between atoms: C_5  and  O_27
REMARK    3  A    between atoms: C_8  and  O_29
REMARK    4  A    between atoms: C_10  and  O_31
REMARK    5  A    between atoms: C_13  and  C_22
REMARK    6  A    between atoms: C_15  and  O_18
REMARK    7  A    between atoms: C_17  and  O_20
REMARK    8  A    between atoms: C_22  and  C_23
REMARK                            x       y       z     vdW  Elec       q    Type
REMARK                         _______ _______ _______ _____ _____    ______ ____
ROOT
ATOM      1  O   UNL     1     -34.346  24.380   2.291  0.00  0.00    -0.450 OA
ATOM      2  O   UNL     1     -34.740  25.478   6.194  0.00  0.00    -0.283 OA
ATOM      3  C   UNL     1     -35.118  23.642   3.174  0.00  0.00    +0.182 A 
ATOM      4  C   UNL     1     -33.816  25.938   4.074  0.00  0.00    +0.110 A 
ATOM      5  C   UNL     1     -35.286  23.943   4.475  0.00  0.00    +0.212 A 
ATOM      6  C   UNL     1     -33.720  25.508   2.752  0.00  0.00    +0.155 A 
ATOM      7  C   UNL     1     -34.623  25.152   5.021  0.00  0.00    +0.238 A 
ATOM      8  C   UNL     1     -33.154  27.096   4.489  0.00  0.00    +0.143 C 
ATOM      9  C   UNL     1     -32.959  26.235   1.836  0.00  0.00    +0.074 C 
ATOM     10  C   UNL     1     -32.297  27.391   2.247  0.00  0.00    +0.140 C 
ATOM     11  C   UNL     1     -32.395  27.822   3.571  0.00  0.00    +0.073 C 
ENDROOT
BRANCH   3  12
ATOM     12  C   UNL     1     -35.733  22.457   2.550  0.00  0.00    +0.041 C 
ATOM     13  C   UNL     1     -35.508  20.313   1.459  0.00  0.00    +0.019 C 
ATOM     14  C   UNL     1     -34.926  21.435   2.049  0.00  0.00    +0.002 C 
ATOM     15  C   UNL     1     -36.897  20.214   1.368  0.00  0.00    +0.164 C 
ATOM     16  C   UNL     1     -37.121  22.358   2.460  0.00  0.00    +0.043 C 
ATOM     17  C   UNL     1     -37.703  21.236   1.869  0.00  0.00    +0.167 C 
BRANCH  15  18
ATOM     18  O   UNL     1     -37.470  19.118   0.791  0.00  0.00    -0.503 OA
ATOM     19  H   UNL     1     -37.295  18.264   1.134  0.00  0.00    +0.292 HD
ENDBRANCH  15  18
BRANCH  17  20
ATOM     20  O   UNL     1     -39.061  21.150   1.788  0.00  0.00    -0.503 OA
ATOM     21  H   UNL     1     -39.464  20.344   1.531  0.00  0.00    +0.292 HD
ENDBRANCH  17  20
BRANCH  13  22
ATOM     22  C   UNL     1     -34.629  19.228   0.928  0.00  0.00    +0.055 C 
BRANCH  22  23
ATOM     23  C   UNL     1     -33.355  19.753   0.314  0.00  0.00    -0.030 C 
ATOM     24  C   UNL     1     -32.106  19.268   0.453  0.00  0.00    -0.048 C 
ATOM     25  C   UNL     1     -30.876  19.844  -0.191  0.00  0.00    +0.026 C 
ATOM     26  C   UNL     1     -31.848  18.060   1.313  0.00  0.00    +0.026 C 
ENDBRANCH  22  23
ENDBRANCH  13  22
ENDBRANCH   3  12
BRANCH   5  27
ATOM     27  O   UNL     1     -36.034  23.169   5.336  0.00  0.00    -0.465 OA
ATOM     28  C   UNL     1     -35.218  22.218   5.993  0.00  0.00    +0.253 C 
ENDBRANCH   5  27
BRANCH   8  29
ATOM     29  O   UNL     1     -33.217  27.560   5.769  0.00  0.00    -0.505 OA
ATOM     30  H   UNL     1     -32.436  27.618   6.284  0.00  0.00    +0.292 HD
ENDBRANCH   8  29
BRANCH  10  31
ATOM     31  O   UNL     1     -31.554  28.102   1.354  0.00  0.00    -0.505 OA
ATOM     32  H   UNL     1     -30.638  28.229   1.503  0.00  0.00    +0.292 HD
ENDBRANCH  10  31
TORSDOF 8
ENDMDL
MODEL 3
REMARK VINA RESULT:      -7.1      1.894      3.732
REMARK  Name = 5315127
REMARK  8 active torsions:
REMARK  status: ('A' for Active; 'I' for Inactive)
REMARK    1  A    between atoms: C_3  and  C_12
REMARK    2  A    between atoms: C_5  and  O_27
REMARK    3  A    between atoms: C_8  and  O_29
REMARK    4  A    between atoms: C_10  and  O_31
REMARK    5  A    between atoms: C_13  and  C_22
REMARK    6  A    between atoms: C_15  and  O_18
REMARK    7  A    between atoms: C_17  and  O_20
REMARK    8  A    between atoms: C_22  and  C_23
REMARK                            x       y       z     vdW  Elec       q    Type
REMARK                         _______ _______ _______ _____ _____    ______ ____
ROOT
ATOM      1  O   UNL     1     -35.143  25.005   1.881  0.00  0.00    -0.450 OA
ATOM      2  O   UNL     1     -33.504  25.867   5.510  0.00  0.00    -0.283 OA
ATOM      3  C   UNL     1     -35.050  24.047   2.877  0.00  0.00    +0.182 A 
ATOM      4  C   UNL     1     -34.113  26.627   3.362  0.00  0.00    +0.110 A 
ATOM      5  C   UNL     1     -34.516  24.261   4.094  0.00  0.00    +0.212 A 
ATOM      6  C   UNL     1     -34.682  26.268   2.143  0.00  0.00    +0.155 A 
ATOM      7  C   UNL     1     -33.999  25.612   4.421  0.00  0.00    +0.238 A 
ATOM      8  C   UNL     1     -33.658  27.932   3.572  0.00  0.00    +0.143 C 
ATOM      9  C   UNL     1     -34.799  27.214   1.122  0.00  0.00    +0.074 C 
ATOM     10  C   UNL     1     -34.346  28.516   1.328  0.00  0.00    +0.140 C 
ATOM     11  C   UNL     1     -33.777  28.875   2.552  0.00  0.00    +0.073 C 
ENDROOT
BRANCH   3  12
ATOM     12  C   UNL     1     -35.581  22.735   2.465  0.00  0.00    +0.041 C 
ATOM     13  C   UNL     1     -35.210  20.486   1.663  0.00  0.00    +0.019 C 
ATOM     14  C   UNL     1     -34.708  21.728   2.053  0.00  0.00    +0.002 C 
ATOM     15  C   UNL     1     -36.585  20.252   1.685  0.00  0.00    +0.164 C 
ATOM     16  C   UNL     1     -36.956  22.500   2.488  0.00  0.00    +0.043 C 
ATOM     17  C   UNL     1     -37.458  21.259   2.098  0.00  0.00    +0.167 C 
BRANCH  15  18
ATOM     18  O   UNL     1     -37.080  19.039   1.305  0.00  0.00    -0.503 OA
ATOM     19  H   UNL     1     -37.128  18.817   0.396  0.00  0.00    +0.292 HD
ENDBRANCH  15  18
BRANCH  17  20
ATOM     20  O   UNL     1     -38.803  21.041   2.126  0.00  0.00    -0.503 OA
ATOM     21  H   UNL     1     -39.135  20.186   2.316  0.00  0.00    +0.292 HD
ENDBRANCH  17  20
BRANCH  13  22
ATOM     22  C   UNL     1     -34.261  19.420   1.223  0.00  0.00    +0.055 C 
BRANCH  22  23
ATOM     23  C   UNL     1     -33.047  19.970   0.516  0.00  0.00    -0.030 C 
ATOM     24  C   UNL     1     -31.822  19.419   0.420  0.00  0.00    -0.048 C 
ATOM     25  C   UNL     1     -30.653  20.024  -0.305  0.00  0.00    +0.026 C 
ATOM     26  C   UNL     1     -31.529  18.094   1.072  0.00  0.00    +0.026 C 
ENDBRANCH  22  23
ENDBRANCH  13  22
ENDBRANCH   3  12
BRANCH   5  27
ATOM     27  O   UNL     1     -34.408  23.276   5.052  0.00  0.00    -0.465 OA
ATOM     28  C   UNL     1     -35.556  23.253   5.880  0.00  0.00    +0.253 C 
ENDBRANCH   5  27
BRANCH   8  29
ATOM     29  O   UNL     1     -33.095  28.334   4.746  0.00  0.00    -0.505 OA
ATOM     30  H   UNL     1     -32.299  27.940   5.043  0.00  0.00    +0.292 HD
ENDBRANCH   8  29
BRANCH  10  31
ATOM     31  O   UNL     1     -34.459  29.440   0.334  0.00  0.00    -0.505 OA
ATOM     32  H   UNL     1     -34.347  29.183  -0.559  0.00  0.00    +0.292 HD
ENDBRANCH  10  31
TORSDOF 8
ENDMDL
MODEL 4
REMARK VINA RESULT:      -7.0      1.323      1.704
REMARK  Name = 5315127
REMARK  8 active torsions:
REMARK  status: ('A' for Active; 'I' for Inactive)
REMARK    1  A    between atoms: C_3  and  C_12
REMARK    2  A    between atoms: C_5  and  O_27
REMARK    3  A    between atoms: C_8  and  O_29
REMARK    4  A    between atoms: C_10  and  O_31
REMARK    5  A    between atoms: C_13  and  C_22
REMARK    6  A    between atoms: C_15  and  O_18
REMARK    7  A    between atoms: C_17  and  O_20
REMARK    8  A    between atoms: C_22  and  C_23
REMARK                            x       y       z     vdW  Elec       q    Type
REMARK                         _______ _______ _______ _____ _____    ______ ____
ROOT
ATOM      1  O   UNL     1     -34.078  26.431   3.521  0.00  0.00    -0.450 OA
ATOM      2  O   UNL     1     -36.642  28.858   1.489  0.00  0.00    -0.283 OA
ATOM      3  C   UNL     1     -35.205  25.926   2.891  0.00  0.00    +0.182 A 
ATOM      4  C   UNL     1     -34.664  28.658   2.756  0.00  0.00    +0.110 A 
ATOM      5  C   UNL     1     -36.095  26.669   2.210  0.00  0.00    +0.212 A 
ATOM      6  C   UNL     1     -33.828  27.775   3.436  0.00  0.00    +0.155 A 
ATOM      7  C   UNL     1     -35.869  28.131   2.097  0.00  0.00    +0.238 A 
ATOM      8  C   UNL     1     -34.360  30.020   2.705  0.00  0.00    +0.143 C 
ATOM      9  C   UNL     1     -32.680  28.251   4.072  0.00  0.00    +0.074 C 
ATOM     10  C   UNL     1     -32.373  29.611   4.023  0.00  0.00    +0.140 C 
ATOM     11  C   UNL     1     -33.211  30.494   3.340  0.00  0.00    +0.073 C 
ENDROOT
BRANCH   3  12
ATOM     12  C   UNL     1     -35.354  24.469   3.061  0.00  0.00    +0.041 C 
ATOM     13  C   UNL     1     -35.366  22.244   2.120  0.00  0.00    +0.019 C 
ATOM     14  C   UNL     1     -35.224  23.622   1.960  0.00  0.00    +0.002 C 
ATOM     15  C   UNL     1     -35.638  21.713   3.381  0.00  0.00    +0.164 C 
ATOM     16  C   UNL     1     -35.627  23.938   4.321  0.00  0.00    +0.043 C 
ATOM     17  C   UNL     1     -35.768  22.560   4.481  0.00  0.00    +0.167 C 
BRANCH  15  18
ATOM     18  O   UNL     1     -35.777  20.365   3.542  0.00  0.00    -0.503 OA
ATOM     19  H   UNL     1     -36.362  19.886   2.988  0.00  0.00    +0.292 HD
ENDBRANCH  15  18
BRANCH  17  20
ATOM     20  O   UNL     1     -36.033  22.053   5.718  0.00  0.00    -0.503 OA
ATOM     21  H   UNL     1     -36.833  21.589   5.873  0.00  0.00    +0.292 HD
ENDBRANCH  17  20
BRANCH  13  22
ATOM     22  C   UNL     1     -35.223  21.352   0.930  0.00  0.00    +0.055 C 
BRANCH  22  23
ATOM     23  C   UNL     1     -33.791  21.199   0.480  0.00  0.00    -0.030 C 
ATOM     24  C   UNL     1     -32.988  20.128   0.620  0.00  0.00    -0.048 C 
ATOM     25  C   UNL     1     -31.565  20.043   0.145  0.00  0.00    +0.026 C 
ATOM     26  C   UNL     1     -33.488  18.884   1.305  0.00  0.00    +0.026 C 
ENDBRANCH  22  23
ENDBRANCH  13  22
ENDBRANCH   3  12
BRANCH   5  27
ATOM     27  O   UNL     1     -37.225  26.141   1.623  0.00  0.00    -0.465 OA
ATOM     28  C   UNL     1     -38.303  26.115   2.540  0.00  0.00    +0.253 C 
ENDBRANCH   5  27
BRANCH   8  29
ATOM     29  O   UNL     1     -35.143  30.924   2.052  0.00  0.00    -0.505 OA
ATOM     30  H   UNL     1     -35.893  31.289   2.480  0.00  0.00    +0.292 HD
ENDBRANCH   8  29
BRANCH  10  31
ATOM     31  O   UNL     1     -31.254  30.077   4.642  0.00  0.00    -0.505 OA
ATOM     32  H   UNL     1     -31.216  30.967   4.932  0.00  0.00    +0.292 HD
ENDBRANCH  10  31
TORSDOF 8
ENDMDL
MODEL 5
REMARK VINA RESULT:      -6.9      1.567      3.522
REMARK  Name = 5315127
REMARK  8 active torsions:
REMARK  status: ('A' for Active; 'I' for Inactive)
REMARK    1  A    between atoms: C_3  and  C_12
REMARK    2  A    between atoms: C_5  and  O_27
REMARK    3  A    between atoms: C_8  and  O_29
REMARK    4  A    between atoms: C_10  and  O_31
REMARK    5  A    between atoms: C_13  and  C_22
REMARK    6  A    between atoms: C_15  and  O_18
REMARK    7  A    between atoms: C_17  and  O_20
REMARK    8  A    between atoms: C_22  and  C_23
REMARK                            x       y       z     vdW  Elec       q    Type
REMARK                         _______ _______ _______ _____ _____    ______ ____
ROOT
ATOM      1  O   UNL     1     -35.946  26.516   2.119  0.00  0.00    -0.450 OA
ATOM      2  O   UNL     1     -33.232  28.737   4.191  0.00  0.00    -0.283 OA
ATOM      3  C   UNL     1     -35.099  25.937   3.050  0.00  0.00    +0.182 A 
ATOM      4  C   UNL     1     -34.963  28.683   2.591  0.00  0.00    +0.110 A 
ATOM      5  C   UNL     1     -34.176  26.608   3.763  0.00  0.00    +0.212 A 
ATOM      6  C   UNL     1     -35.867  27.868   1.914  0.00  0.00    +0.155 A 
ATOM      7  C   UNL     1     -34.050  28.073   3.571  0.00  0.00    +0.238 A 
ATOM      8  C   UNL     1     -34.926  30.057   2.340  0.00  0.00    +0.143 C 
ATOM      9  C   UNL     1     -36.742  28.423   0.978  0.00  0.00    +0.074 C 
ATOM     10  C   UNL     1     -36.707  29.794   0.725  0.00  0.00    +0.140 C 
ATOM     11  C   UNL     1     -35.801  30.610   1.405  0.00  0.00    +0.073 C 
ENDROOT
BRANCH   3  12
ATOM     12  C   UNL     1     -35.287  24.480   3.172  0.00  0.00    +0.041 C 
ATOM     13  C   UNL     1     -35.350  22.286   2.161  0.00  0.00    +0.019 C 
ATOM     14  C   UNL     1     -35.171  23.665   2.046  0.00  0.00    +0.002 C 
ATOM     15  C   UNL     1     -35.645  21.723   3.403  0.00  0.00    +0.164 C 
ATOM     16  C   UNL     1     -35.583  23.917   4.413  0.00  0.00    +0.043 C 
ATOM     17  C   UNL     1     -35.762  22.538   4.528  0.00  0.00    +0.167 C 
BRANCH  15  18
ATOM     18  O   UNL     1     -35.821  20.375   3.520  0.00  0.00    -0.503 OA
ATOM     19  H   UNL     1     -35.332  19.790   2.975  0.00  0.00    +0.292 HD
ENDBRANCH  15  18
BRANCH  17  20
ATOM     20  O   UNL     1     -36.049  21.999   5.747  0.00  0.00    -0.503 OA
ATOM     21  H   UNL     1     -36.549  22.490   6.369  0.00  0.00    +0.292 HD
ENDBRANCH  17  20
BRANCH  13  22
ATOM     22  C   UNL     1     -35.221  21.429   0.945  0.00  0.00    +0.055 C 
BRANCH  22  23
ATOM     23  C   UNL     1     -33.791  21.254   0.499  0.00  0.00    -0.030 C 
ATOM     24  C   UNL     1     -33.009  20.165   0.626  0.00  0.00    -0.048 C 
ATOM     25  C   UNL     1     -31.586  20.059   0.156  0.00  0.00    +0.026 C 
ATOM     26  C   UNL     1     -33.537  18.921   1.291  0.00  0.00    +0.026 C 
ENDBRANCH  22  23
ENDBRANCH  13  22
ENDBRANCH   3  12
BRANCH   5  27
ATOM     27  O   UNL     1     -33.324  25.996   4.657  0.00  0.00    -0.465 OA
ATOM     28  C   UNL     1     -33.692  26.299   5.990  0.00  0.00    +0.253 C 
ENDBRANCH   5  27
BRANCH   8  29
ATOM     29  O   UNL     1     -34.062  30.898   2.975  0.00  0.00    -0.505 OA
ATOM     30  H   UNL     1     -34.268  31.224   3.829  0.00  0.00    +0.292 HD
ENDBRANCH   8  29
BRANCH  10  31
ATOM     31  O   UNL     1     -37.560  30.338  -0.187  0.00  0.00    -0.505 OA
ATOM     32  H   UNL     1     -38.016  31.131   0.014  0.00  0.00    +0.292 HD
ENDBRANCH  10  31
TORSDOF 8
ENDMDL
MODEL 6
REMARK VINA RESULT:      -6.7      1.686      1.968
REMARK  Name = 5315127
REMARK  8 active torsions:
REMARK  status: ('A' for Active; 'I' for Inactive)
REMARK    1  A    between atoms: C_3  and  C_12
REMARK    2  A    between atoms: C_5  and  O_27
REMARK    3  A    between atoms: C_8  and  O_29
REMARK    4  A    between atoms: C_10  and  O_31
REMARK    5  A    between atoms: C_13  and  C_22
REMARK    6  A    between atoms: C_15  and  O_18
REMARK    7  A    between atoms: C_17  and  O_20
REMARK    8  A    between atoms: C_22  and  C_23
REMARK                            x       y       z     vdW  Elec       q    Type
REMARK                         _______ _______ _______ _____ _____    ______ ____
ROOT
ATOM      1  O   UNL     1     -34.516  25.154   4.308  0.00  0.00    -0.450 OA
ATOM      2  O   UNL     1     -32.900  27.612   1.490  0.00  0.00    -0.283 OA
ATOM      3  C   UNL     1     -34.725  24.937   2.955  0.00  0.00    +0.182 A 
ATOM      4  C   UNL     1     -33.154  27.089   3.775  0.00  0.00    +0.110 A 
ATOM      5  C   UNL     1     -34.228  25.711   1.973  0.00  0.00    +0.212 A 
ATOM      6  C   UNL     1     -33.736  26.213   4.688  0.00  0.00    +0.155 A 
ATOM      7  C   UNL     1     -33.381  26.873   2.337  0.00  0.00    +0.238 A 
ATOM      8  C   UNL     1     -32.367  28.154   4.221  0.00  0.00    +0.143 C 
ATOM      9  C   UNL     1     -33.536  26.399   6.057  0.00  0.00    +0.074 C 
ATOM     10  C   UNL     1     -32.752  27.461   6.506  0.00  0.00    +0.140 C 
ATOM     11  C   UNL     1     -32.168  28.338   5.589  0.00  0.00    +0.073 C 
ENDROOT
BRANCH   3  12
ATOM     12  C   UNL     1     -35.580  23.767   2.685  0.00  0.00    +0.041 C 
ATOM     13  C   UNL     1     -35.822  21.470   1.977  0.00  0.00    +0.019 C 
ATOM     14  C   UNL     1     -35.012  22.577   2.233  0.00  0.00    +0.002 C 
ATOM     15  C   UNL     1     -37.201  21.554   2.173  0.00  0.00    +0.164 C 
ATOM     16  C   UNL     1     -36.959  23.852   2.881  0.00  0.00    +0.043 C 
ATOM     17  C   UNL     1     -37.769  22.745   2.626  0.00  0.00    +0.167 C 
BRANCH  15  18
ATOM     18  O   UNL     1     -37.996  20.474   1.924  0.00  0.00    -0.503 OA
ATOM     19  H   UNL     1     -38.075  19.794   2.563  0.00  0.00    +0.292 HD
ENDBRANCH  15  18
BRANCH  17  20
ATOM     20  O   UNL     1     -39.114  22.840   2.822  0.00  0.00    -0.503 OA
ATOM     21  H   UNL     1     -39.574  22.148   3.256  0.00  0.00    +0.292 HD
ENDBRANCH  17  20
BRANCH  13  22
ATOM     22  C   UNL     1     -35.196  20.203   1.493  0.00  0.00    +0.055 C 
BRANCH  22  23
ATOM     23  C   UNL     1     -33.873  20.428   0.803  0.00  0.00    -0.030 C 
ATOM     24  C   UNL     1     -32.811  19.602   0.755  0.00  0.00    -0.048 C 
ATOM     25  C   UNL     1     -31.519  19.891   0.045  0.00  0.00    +0.026 C 
ATOM     26  C   UNL     1     -32.851  18.268   1.452  0.00  0.00    +0.026 C 
ENDBRANCH  22  23
ENDBRANCH  13  22
ENDBRANCH   3  12
BRANCH   5  27
ATOM     27  O   UNL     1     -34.482  25.487   0.637  0.00  0.00    -0.465 OA
ATOM     28  C   UNL     1     -35.617  26.217   0.212  0.00  0.00    +0.253 C 
ENDBRANCH   5  27
BRANCH   8  29
ATOM     29  O   UNL     1     -31.775  29.038   3.370  0.00  0.00    -0.505 OA
ATOM     30  H   UNL     1     -31.535  29.891   3.673  0.00  0.00    +0.292 HD
ENDBRANCH   8  29
BRANCH  10  31
ATOM     31  O   UNL     1     -32.556  27.644   7.841  0.00  0.00    -0.505 OA
ATOM     32  H   UNL     1     -32.421  28.506   8.181  0.00  0.00    +0.292 HD
ENDBRANCH  10  31
TORSDOF 8
ENDMDL
MODEL 7
REMARK VINA RESULT:      -6.6      5.587      8.984
REMARK  Name = 5315127
REMARK  8 active torsions:
REMARK  status: ('A' for Active; 'I' for Inactive)
REMARK    1  A    between atoms: C_3  and  C_12
REMARK    2  A    between atoms: C_5  and  O_27
REMARK    3  A    between atoms: C_8  and  O_29
REMARK    4  A    between atoms: C_10  and  O_31
REMARK    5  A    between atoms: C_13  and  C_22
REMARK    6  A    between atoms: C_15  and  O_18
REMARK    7  A    between atoms: C_17  and  O_20
REMARK    8  A    between atoms: C_22  and  C_23
REMARK                            x       y       z     vdW  Elec       q    Type
REMARK                         _______ _______ _______ _____ _____    ______ ____
ROOT
ATOM      1  O   UNL     1     -38.457  25.605   3.377  0.00  0.00    -0.450 OA
ATOM      2  O   UNL     1     -38.401  21.691   2.250  0.00  0.00    -0.283 OA
ATOM      3  C   UNL     1     -39.497  25.048   2.650  0.00  0.00    +0.182 A 
ATOM      4  C   UNL     1     -37.323  23.460   3.375  0.00  0.00    +0.110 A 
ATOM      5  C   UNL     1     -39.541  23.767   2.241  0.00  0.00    +0.212 A 
ATOM      6  C   UNL     1     -37.401  24.805   3.728  0.00  0.00    +0.155 A 
ATOM      7  C   UNL     1     -38.417  22.865   2.593  0.00  0.00    +0.238 A 
ATOM      8  C   UNL     1     -36.221  22.693   3.760  0.00  0.00    +0.143 C 
ATOM      9  C   UNL     1     -36.375  25.394   4.468  0.00  0.00    +0.074 C 
ATOM     10  C   UNL     1     -35.273  24.631   4.853  0.00  0.00    +0.140 C 
ATOM     11  C   UNL     1     -35.196  23.282   4.501  0.00  0.00    +0.073 C 
ENDROOT
BRANCH   3  12
ATOM     12  C   UNL     1     -40.565  26.015   2.340  0.00  0.00    +0.041 C 
ATOM     13  C   UNL     1     -42.599  27.160   2.966  0.00  0.00    +0.019 C 
ATOM     14  C   UNL     1     -41.588  26.244   3.260  0.00  0.00    +0.002 C 
ATOM     15  C   UNL     1     -42.587  27.846   1.751  0.00  0.00    +0.164 C 
ATOM     16  C   UNL     1     -40.553  26.701   1.125  0.00  0.00    +0.043 C 
ATOM     17  C   UNL     1     -41.564  27.616   0.831  0.00  0.00    +0.167 C 
BRANCH  15  18
ATOM     18  O   UNL     1     -43.573  28.741   1.460  0.00  0.00    -0.503 OA
ATOM     19  H   UNL     1     -44.200  28.547   0.791  0.00  0.00    +0.292 HD
ENDBRANCH  15  18
BRANCH  17  20
ATOM     20  O   UNL     1     -41.540  28.281  -0.358  0.00  0.00    -0.503 OA
ATOM     21  H   UNL     1     -41.378  29.204  -0.376  0.00  0.00    +0.292 HD
ENDBRANCH  17  20
BRANCH  13  22
ATOM     22  C   UNL     1     -43.686  27.392   3.963  0.00  0.00    +0.055 C 
BRANCH  22  23
ATOM     23  C   UNL     1     -44.848  26.444   3.798  0.00  0.00    -0.030 C 
ATOM     24  C   UNL     1     -45.759  26.079   4.719  0.00  0.00    -0.048 C 
ATOM     25  C   UNL     1     -46.896  25.125   4.484  0.00  0.00    +0.026 C 
ATOM     26  C   UNL     1     -45.688  26.625   6.120  0.00  0.00    +0.026 C 
ENDBRANCH  22  23
ENDBRANCH  13  22
ENDBRANCH   3  12
BRANCH   5  27
ATOM     27  O   UNL     1     -40.575  23.251   1.490  0.00  0.00    -0.465 OA
ATOM     28  C   UNL     1     -40.233  23.220   0.117  0.00  0.00    +0.253 C 
ENDBRANCH   5  27
BRANCH   8  29
ATOM     29  O   UNL     1     -36.096  21.374   3.442  0.00  0.00    -0.505 OA
ATOM     30  H   UNL     1     -35.856  20.754   4.102  0.00  0.00    +0.292 HD
ENDBRANCH   8  29
BRANCH  10  31
ATOM     31  O   UNL     1     -34.270  25.202   5.576  0.00  0.00    -0.505 OA
ATOM     32  H   UNL     1     -33.397  25.211   5.239  0.00  0.00    +0.292 HD
ENDBRANCH  10  31
TORSDOF 8
ENDMDL
MODEL 8
REMARK VINA RESULT:      -6.5      1.945      7.856
REMARK  Name = 5315127
REMARK  8 active torsions:
REMARK  status: ('A' for Active; 'I' for Inactive)
REMARK    1  A    between atoms: C_3  and  C_12
REMARK    2  A    between atoms: C_5  and  O_27
REMARK    3  A    between atoms: C_8  and  O_29
REMARK    4  A    between atoms: C_10  and  O_31
REMARK    5  A    between atoms: C_13  and  C_22
REMARK    6  A    between atoms: C_15  and  O_18
REMARK    7  A    between atoms: C_17  and  O_20
REMARK    8  A    between atoms: C_22  and  C_23
REMARK                            x       y       z     vdW  Elec       q    Type
REMARK                         _______ _______ _______ _____ _____    ______ ____
ROOT
ATOM      1  O   UNL     1     -35.156  24.847   2.111  0.00  0.00    -0.450 OA
ATOM      2  O   UNL     1     -35.342  23.475   5.942  0.00  0.00    -0.283 OA
ATOM      3  C   UNL     1     -35.116  25.714   3.191  0.00  0.00    +0.182 A 
ATOM      4  C   UNL     1     -35.310  22.970   3.639  0.00  0.00    +0.110 A 
ATOM      5  C   UNL     1     -35.180  25.331   4.479  0.00  0.00    +0.212 A 
ATOM      6  C   UNL     1     -35.244  23.502   2.354  0.00  0.00    +0.155 A 
ATOM      7  C   UNL     1     -35.282  23.885   4.791  0.00  0.00    +0.238 A 
ATOM      8  C   UNL     1     -35.402  21.588   3.827  0.00  0.00    +0.143 C 
ATOM      9  C   UNL     1     -35.272  22.654   1.245  0.00  0.00    +0.074 C 
ATOM     10  C   UNL     1     -35.363  21.275   1.429  0.00  0.00    +0.140 C 
ATOM     11  C   UNL     1     -35.427  20.742   2.718  0.00  0.00    +0.073 C 
ENDROOT
BRANCH   3  12
ATOM     12  C   UNL     1     -35.020  27.129   2.790  0.00  0.00    +0.041 C 
ATOM     13  C   UNL     1     -33.807  29.218   2.760  0.00  0.00    +0.019 C 
ATOM     14  C   UNL     1     -33.897  27.879   3.139  0.00  0.00    +0.002 C 
ATOM     15  C   UNL     1     -34.840  29.808   2.031  0.00  0.00    +0.164 C 
ATOM     16  C   UNL     1     -36.053  27.719   2.061  0.00  0.00    +0.043 C 
ATOM     17  C   UNL     1     -35.963  29.058   1.682  0.00  0.00    +0.167 C 
BRANCH  15  18
ATOM     18  O   UNL     1     -34.755  31.117   1.658  0.00  0.00    -0.503 OA
ATOM     19  H   UNL     1     -34.681  31.786   2.310  0.00  0.00    +0.292 HD
ENDBRANCH  15  18
BRANCH  17  20
ATOM     20  O   UNL     1     -36.978  29.623   0.969  0.00  0.00    -0.503 OA
ATOM     21  H   UNL     1     -37.552  29.081   0.463  0.00  0.00    +0.292 HD
ENDBRANCH  17  20
BRANCH  13  22
ATOM     22  C   UNL     1     -32.596  30.006   3.143  0.00  0.00    +0.055 C 
BRANCH  22  23
ATOM     23  C   UNL     1     -32.447  30.164   4.636  0.00  0.00    -0.030 C 
ATOM     24  C   UNL     1     -31.595  29.522   5.458  0.00  0.00    -0.048 C 
ATOM     25  C   UNL     1     -31.500  29.729   6.943  0.00  0.00    +0.026 C 
ATOM     26  C   UNL     1     -30.639  28.495   4.913  0.00  0.00    +0.026 C 
ENDBRANCH  22  23
ENDBRANCH  13  22
ENDBRANCH   3  12
BRANCH   5  27
ATOM     27  O   UNL     1     -35.172  26.222   5.531  0.00  0.00    -0.465 OA
ATOM     28  C   UNL     1     -33.884  26.301   6.113  0.00  0.00    +0.253 C 
ENDBRANCH   5  27
BRANCH   8  29
ATOM     29  O   UNL     1     -35.467  21.017   5.062  0.00  0.00    -0.505 OA
ATOM     30  H   UNL     1     -35.241  20.114   5.173  0.00  0.00    +0.292 HD
ENDBRANCH   8  29
BRANCH  10  31
ATOM     31  O   UNL     1     -35.389  20.446   0.349  0.00  0.00    -0.505 OA
ATOM     32  H   UNL     1     -36.077  19.818   0.258  0.00  0.00    +0.292 HD
ENDBRANCH  10  31
TORSDOF 8
ENDMDL
MODEL 9
REMARK VINA RESULT:      -6.4      2.610      4.881
REMARK  Name = 5315127
REMARK  8 active torsions:
REMARK  status: ('A' for Active; 'I' for Inactive)
REMARK    1  A    between atoms: C_3  and  C_12
REMARK    2  A    between atoms: C_5  and  O_27
REMARK    3  A    between atoms: C_8  and  O_29
REMARK    4  A    between atoms: C_10  and  O_31
REMARK    5  A    between atoms: C_13  and  C_22
REMARK    6  A    between atoms: C_15  and  O_18
REMARK    7  A    between atoms: C_17  and  O_20
REMARK    8  A    between atoms: C_22  and  C_23
REMARK                            x       y       z     vdW  Elec       q    Type
REMARK                         _______ _______ _______ _____ _____    ______ ____
ROOT
ATOM      1  O   UNL     1     -34.364  24.758   2.358  0.00  0.00    -0.450 OA
ATOM      2  O   UNL     1     -34.547  25.851   6.278  0.00  0.00    -0.283 OA
ATOM      3  C   UNL     1     -35.154  24.069   3.263  0.00  0.00    +0.182 A 
ATOM      4  C   UNL     1     -33.668  26.262   4.130  0.00  0.00    +0.110 A 
ATOM      5  C   UNL     1     -35.256  24.370   4.571  0.00  0.00    +0.212 A 
ATOM      6  C   UNL     1     -33.647  25.837   2.803  0.00  0.00    +0.155 A 
ATOM      7  C   UNL     1     -34.494  25.527   5.100  0.00  0.00    +0.238 A 
ATOM      8  C   UNL     1     -32.914  27.369   4.528  0.00  0.00    +0.143 C 
ATOM      9  C   UNL     1     -32.869  26.517   1.865  0.00  0.00    +0.074 C 
ATOM     10  C   UNL     1     -32.116  27.622   2.259  0.00  0.00    +0.140 C 
ATOM     11  C   UNL     1     -32.138  28.049   3.588  0.00  0.00    +0.073 C 
ENDROOT
BRANCH   3  12
ATOM     12  C   UNL     1     -35.870  22.933   2.655  0.00  0.00    +0.041 C 
ATOM     13  C   UNL     1     -37.907  21.967   1.787  0.00  0.00    +0.019 C 
ATOM     14  C   UNL     1     -37.230  23.041   2.363  0.00  0.00    +0.002 C 
ATOM     15  C   UNL     1     -37.225  20.783   1.503  0.00  0.00    +0.164 C 
ATOM     16  C   UNL     1     -35.188  21.750   2.371  0.00  0.00    +0.043 C 
ATOM     17  C   UNL     1     -35.866  20.675   1.795  0.00  0.00    +0.167 C 
BRANCH  15  18
ATOM     18  O   UNL     1     -37.884  19.730   0.939  0.00  0.00    -0.503 OA
ATOM     19  H   UNL     1     -37.715  18.858   1.238  0.00  0.00    +0.292 HD
ENDBRANCH  15  18
BRANCH  17  20
ATOM     20  O   UNL     1     -35.188  19.525   1.521  0.00  0.00    -0.503 OA
ATOM     21  H   UNL     1     -34.943  19.324   0.639  0.00  0.00    +0.292 HD
ENDBRANCH  17  20
BRANCH  13  22
ATOM     22  C   UNL     1     -39.363  22.101   1.481  0.00  0.00    +0.055 C 
BRANCH  22  23
ATOM     23  C   UNL     1     -39.975  23.347   2.071  0.00  0.00    -0.030 C 
ATOM     24  C   UNL     1     -40.538  24.383   1.421  0.00  0.00    -0.048 C 
ATOM     25  C   UNL     1     -41.131  25.599   2.076  0.00  0.00    +0.026 C 
ATOM     26  C   UNL     1     -40.607  24.393  -0.083  0.00  0.00    +0.026 C 
ENDBRANCH  22  23
ENDBRANCH  13  22
ENDBRANCH   3  12
BRANCH   5  27
ATOM     27  O   UNL     1     -36.026  23.643   5.453  0.00  0.00    -0.465 OA
ATOM     28  C   UNL     1     -35.268  22.601   6.039  0.00  0.00    +0.253 C 
ENDBRANCH   5  27
BRANCH   8  29
ATOM     29  O   UNL     1     -32.900  27.826   5.811  0.00  0.00    -0.505 OA
ATOM     30  H   UNL     1     -33.707  28.016   6.250  0.00  0.00    +0.292 HD
ENDBRANCH   8  29
BRANCH  10  31
ATOM     31  O   UNL     1     -31.357  28.288   1.344  0.00  0.00    -0.505 OA
ATOM     32  H   UNL     1     -30.438  28.118   1.286  0.00  0.00    +0.292 HD
ENDBRANCH  10  31
TORSDOF 8
ENDMDL
