MODEL 1
REMARK VINA RESULT:      -7.2      0.000      0.000
REMARK  Name = 193748
REMARK  11 active torsions:
REMARK  status: ('A' for Active; 'I' for Inactive)
REMARK    1  A    between atoms: C_1  and  O_22
REMARK    2  A    between atoms: C_4  and  C_8
REMARK    3  A    between atoms: C_8  and  C_9
REMARK    4  A    between atoms: C_9  and  C_10
REMARK    5  A    between atoms: C_11  and  C_18
REMARK    6  A    between atoms: O_22  and  C_28
REMARK    7  A    between atoms: C_24  and  O_29
REMARK    8  A    between atoms: C_25  and  O_31
REMARK    9  A    between atoms: C_26  and  C_35
REMARK   10  A    between atoms: C_27  and  O_33
REMARK   11  A    between atoms: C_35  and  O_36
REMARK                            x       y       z     vdW  Elec       q    Type
REMARK                         _______ _______ _______ _____ _____    ______ ____
ROOT
ATOM      1  C   UNL     1     -34.219  25.639   4.535  0.00  0.00    +0.141 C 
ATOM      2  C   UNL     1     -34.731  24.445   5.032  0.00  0.00    +0.037 C 
ATOM      3  C   UNL     1     -34.913  26.355   3.564  0.00  0.00    +0.037 C 
ATOM      4  C   UNL     1     -36.649  24.675   3.580  0.00  0.00    +0.035 C 
ATOM      5  C   UNL     1     -35.949  23.962   4.553  0.00  0.00    +0.006 C 
ATOM      6  C   UNL     1     -36.130  25.871   3.085  0.00  0.00    +0.006 C 
ENDROOT
BRANCH   4   8
ATOM      7  O   UNL     1     -38.980  24.403   3.698  0.00  0.00    -0.291 OA
ATOM      8  C   UNL     1     -37.919  24.172   3.082  0.00  0.00    +0.177 C 
BRANCH   8   9
ATOM      9  C   UNL     1     -37.961  23.349   1.783  0.00  0.00    +0.095 C 
BRANCH   9  10
ATOM     10  C   UNL     1     -36.760  22.458   1.573  0.00  0.00    -0.014 C 
ATOM     11  C   UNL     1     -34.554  20.825   1.190  0.00  0.00    -0.000 C 
ATOM     12  C   UNL     1     -36.735  21.202   2.158  0.00  0.00    -0.004 C 
ATOM     13  C   UNL     1     -35.704  22.914   0.799  0.00  0.00    -0.004 C 
ATOM     14  C   UNL     1     -35.625  20.380   1.966  0.00  0.00    -0.001 C 
ATOM     15  C   UNL     1     -34.593  22.091   0.607  0.00  0.00    -0.001 C 
BRANCH  11  18
ATOM     16  O   UNL     1     -31.347  19.237   0.265  0.00  0.00    -0.440 OA
ATOM     17  O   UNL     1     -31.456  17.177   1.282  0.00  0.00    -0.245 OA
ATOM     18  C   UNL     1     -33.396  19.967   0.989  0.00  0.00    +0.028 C 
ATOM     19  C   UNL     1     -32.220  20.369   0.190  0.00  0.00    +0.236 C 
ATOM     20  C   UNL     1     -33.241  18.744   1.478  0.00  0.00    +0.081 C 
ATOM     21  C   UNL     1     -31.933  18.268   1.022  0.00  0.00    +0.342 C 
ENDBRANCH  11  18
ENDBRANCH   9  10
ENDBRANCH   8   9
ENDBRANCH   4   8
BRANCH   1  22
ATOM     22  O   UNL     1     -33.026  26.114   5.005  0.00  0.00    -0.451 OA
BRANCH  22  28
ATOM     23  O   UNL     1     -32.349  28.116   4.015  0.00  0.00    -0.316 OA
ATOM     24  C   UNL     1     -31.297  29.910   5.260  0.00  0.00    +0.169 C 
ATOM     25  C   UNL     1     -31.760  29.281   6.573  0.00  0.00    +0.173 C 
ATOM     26  C   UNL     1     -32.242  29.537   4.116  0.00  0.00    +0.177 C 
ATOM     27  C   UNL     1     -32.045  27.788   6.402  0.00  0.00    +0.210 C 
ATOM     28  C   UNL     1     -32.924  27.527   5.179  0.00  0.00    +0.318 C 
BRANCH  24  29
ATOM     29  O   UNL     1     -31.265  31.328   5.401  0.00  0.00    -0.379 OA
ATOM     30  H   UNL     1     -31.300  31.560   6.343  0.00  0.00    +0.211 HD
ENDBRANCH  24  29
BRANCH  25  31
ATOM     31  O   UNL     1     -30.722  29.459   7.538  0.00  0.00    -0.379 OA
ATOM     32  H   UNL     1     -29.875  29.180   7.157  0.00  0.00    +0.211 HD
ENDBRANCH  25  31
BRANCH  27  33
ATOM     33  O   UNL     1     -32.728  27.301   7.556  0.00  0.00    -0.377 OA
ATOM     34  H   UNL     1     -33.387  26.640   7.287  0.00  0.00    +0.211 HD
ENDBRANCH  27  33
BRANCH  26  35
ATOM     35  C   UNL     1     -31.736  30.056   2.772  0.00  0.00    +0.169 C 
BRANCH  35  36
ATOM     36  O   UNL     1     -32.065  31.429   2.667  0.00  0.00    -0.379 OA
ATOM     37  H   UNL     1     -31.263  31.963   2.784  0.00  0.00    +0.211 HD
ENDBRANCH  35  36
ENDBRANCH  26  35
ENDBRANCH  22  28
ENDBRANCH   1  22
TORSDOF 11
ENDMDL
MODEL 2
REMARK VINA RESULT:      -7.1      1.669      2.702
REMARK  Name = 193748
REMARK  11 active torsions:
REMARK  status: ('A' for Active; 'I' for Inactive)
REMARK    1  A    between atoms: C_1  and  O_22
REMARK    2  A    between atoms: C_4  and  C_8
REMARK    3  A    between atoms: C_8  and  C_9
REMARK    4  A    between atoms: C_9  and  C_10
REMARK    5  A    between atoms: C_11  and  C_18
REMARK    6  A    between atoms: O_22  and  C_28
REMARK    7  A    between atoms: C_24  and  O_29
REMARK    8  A    between atoms: C_25  and  O_31
REMARK    9  A    between atoms: C_26  and  C_35
REMARK   10  A    between atoms: C_27  and  O_33
REMARK   11  A    between atoms: C_35  and  O_36
REMARK                            x       y       z     vdW  Elec       q    Type
REMARK                         _______ _______ _______ _____ _____    ______ ____
ROOT
ATOM      1  C   UNL     1     -33.808  26.580   5.269  0.00  0.00    +0.141 C 
ATOM      2  C   UNL     1     -33.562  26.346   3.919  0.00  0.00    +0.037 C 
ATOM      3  C   UNL     1     -34.794  25.865   5.941  0.00  0.00    +0.037 C 
ATOM      4  C   UNL     1     -35.301  24.668   3.905  0.00  0.00    +0.035 C 
ATOM      5  C   UNL     1     -34.312  25.387   3.236  0.00  0.00    +0.006 C 
ATOM      6  C   UNL     1     -35.543  24.907   5.258  0.00  0.00    +0.006 C 
ENDROOT
BRANCH   4   8
ATOM      7  O   UNL     1     -36.985  23.034   3.775  0.00  0.00    -0.291 OA
ATOM      8  C   UNL     1     -36.081  23.668   3.193  0.00  0.00    +0.177 C 
BRANCH   8   9
ATOM      9  C   UNL     1     -35.794  23.387   1.707  0.00  0.00    +0.095 C 
BRANCH   9  10
ATOM     10  C   UNL     1     -34.954  22.158   1.459  0.00  0.00    -0.014 C 
ATOM     11  C   UNL     1     -33.410  19.901   1.006  0.00  0.00    -0.000 C 
ATOM     12  C   UNL     1     -35.201  21.007   2.191  0.00  0.00    -0.004 C 
ATOM     13  C   UNL     1     -33.949  22.203   0.505  0.00  0.00    -0.004 C 
ATOM     14  C   UNL     1     -34.424  19.871   1.963  0.00  0.00    -0.001 C 
ATOM     15  C   UNL     1     -33.172  21.067   0.278  0.00  0.00    -0.001 C 
BRANCH  11  18
ATOM     16  O   UNL     1     -32.021  16.519   0.467  0.00  0.00    -0.440 OA
ATOM     17  O   UNL     1     -29.773  16.904   0.169  0.00  0.00    -0.245 OA
ATOM     18  C   UNL     1     -32.599  18.717   0.768  0.00  0.00    +0.028 C 
ATOM     19  C   UNL     1     -33.158  17.350   0.719  0.00  0.00    +0.236 C 
ATOM     20  C   UNL     1     -31.288  18.699   0.571  0.00  0.00    +0.081 C 
ATOM     21  C   UNL     1     -30.907  17.299   0.376  0.00  0.00    +0.342 C 
ENDBRANCH  11  18
ENDBRANCH   9  10
ENDBRANCH   8   9
ENDBRANCH   4   8
BRANCH   1  22
ATOM     22  O   UNL     1     -33.073  27.518   5.940  0.00  0.00    -0.451 OA
BRANCH  22  28
ATOM     23  O   UNL     1     -30.749  27.724   5.926  0.00  0.00    -0.316 OA
ATOM     24  C   UNL     1     -29.611  29.755   5.254  0.00  0.00    +0.169 C 
ATOM     25  C   UNL     1     -30.896  30.270   4.607  0.00  0.00    +0.173 C 
ATOM     26  C   UNL     1     -29.585  28.225   5.267  0.00  0.00    +0.177 C 
ATOM     27  C   UNL     1     -32.128  29.587   5.202  0.00  0.00    +0.210 C 
ATOM     28  C   UNL     1     -31.954  28.068   5.247  0.00  0.00    +0.318 C 
BRANCH  24  29
ATOM     29  O   UNL     1     -28.487  30.239   4.522  0.00  0.00    -0.379 OA
ATOM     30  H   UNL     1     -27.718  29.676   4.701  0.00  0.00    +0.211 HD
ENDBRANCH  24  29
BRANCH  25  31
ATOM     31  O   UNL     1     -30.974  31.677   4.840  0.00  0.00    -0.379 OA
ATOM     32  H   UNL     1     -31.734  31.869   5.412  0.00  0.00    +0.211 HD
ENDBRANCH  25  31
BRANCH  27  33
ATOM     33  O   UNL     1     -33.268  29.882   4.398  0.00  0.00    -0.377 OA
ATOM     34  H   UNL     1     -33.978  29.250   4.596  0.00  0.00    +0.211 HD
ENDBRANCH  27  33
BRANCH  26  35
ATOM     35  C   UNL     1     -28.367  27.686   6.013  0.00  0.00    +0.169 C 
BRANCH  35  36
ATOM     36  O   UNL     1     -28.815  26.952   7.136  0.00  0.00    -0.379 OA
ATOM     37  H   UNL     1     -28.487  26.041   7.079  0.00  0.00    +0.211 HD
ENDBRANCH  35  36
ENDBRANCH  26  35
ENDBRANCH  22  28
ENDBRANCH   1  22
TORSDOF 11
ENDMDL
MODEL 3
REMARK VINA RESULT:      -7.0      1.513      2.239
REMARK  Name = 193748
REMARK  11 active torsions:
REMARK  status: ('A' for Active; 'I' for Inactive)
REMARK    1  A    between atoms: C_1  and  O_22
REMARK    2  A    between atoms: C_4  and  C_8
REMARK    3  A    between atoms: C_8  and  C_9
REMARK    4  A    between atoms: C_9  and  C_10
REMARK    5  A    between atoms: C_11  and  C_18
REMARK    6  A    between atoms: O_22  and  C_28
REMARK    7  A    between atoms: C_24  and  O_29
REMARK    8  A    between atoms: C_25  and  O_31
REMARK    9  A    between atoms: C_26  and  C_35
REMARK   10  A    between atoms: C_27  and  O_33
REMARK   11  A    between atoms: C_35  and  O_36
REMARK                            x       y       z     vdW  Elec       q    Type
REMARK                         _______ _______ _______ _____ _____    ______ ____
ROOT
ATOM      1  C   UNL     1     -34.458  25.888   5.231  0.00  0.00    +0.141 C 
ATOM      2  C   UNL     1     -35.393  26.502   4.402  0.00  0.00    +0.037 C 
ATOM      3  C   UNL     1     -34.360  24.501   5.277  0.00  0.00    +0.037 C 
ATOM      4  C   UNL     1     -36.143  24.330   3.657  0.00  0.00    +0.035 C 
ATOM      5  C   UNL     1     -36.238  25.720   3.614  0.00  0.00    +0.006 C 
ATOM      6  C   UNL     1     -35.205  23.720   4.489  0.00  0.00    +0.006 C 
ENDROOT
BRANCH   4   8
ATOM      7  O   UNL     1     -38.089  23.061   3.298  0.00  0.00    -0.291 OA
ATOM      8  C   UNL     1     -37.023  23.515   2.834  0.00  0.00    +0.177 C 
BRANCH   8   9
ATOM      9  C   UNL     1     -36.641  23.208   1.375  0.00  0.00    +0.095 C 
BRANCH   9  10
ATOM     10  C   UNL     1     -35.538  22.190   1.223  0.00  0.00    -0.014 C 
ATOM     11  C   UNL     1     -33.512  20.319   0.942  0.00  0.00    -0.000 C 
ATOM     12  C   UNL     1     -34.423  22.504   0.461  0.00  0.00    -0.004 C 
ATOM     13  C   UNL     1     -35.659  20.958   1.847  0.00  0.00    -0.004 C 
ATOM     14  C   UNL     1     -33.404  21.562   0.319  0.00  0.00    -0.001 C 
ATOM     15  C   UNL     1     -34.639  20.016   1.705  0.00  0.00    -0.001 C 
BRANCH  11  18
ATOM     16  O   UNL     1     -31.260  17.389   1.016  0.00  0.00    -0.440 OA
ATOM     17  O   UNL     1     -29.479  18.050  -0.280  0.00  0.00    -0.245 OA
ATOM     18  C   UNL     1     -32.449  19.337   0.794  0.00  0.00    +0.028 C 
ATOM     19  C   UNL     1     -32.488  18.001   1.424  0.00  0.00    +0.236 C 
ATOM     20  C   UNL     1     -31.333  19.499   0.096  0.00  0.00    +0.081 C 
ATOM     21  C   UNL     1     -30.565  18.259   0.231  0.00  0.00    +0.342 C 
ENDBRANCH  11  18
ENDBRANCH   9  10
ENDBRANCH   8   9
ENDBRANCH   4   8
BRANCH   1  22
ATOM     22  O   UNL     1     -33.629  26.654   6.003  0.00  0.00    -0.451 OA
BRANCH  22  28
ATOM     23  O   UNL     1     -32.197  26.921   4.181  0.00  0.00    -0.316 OA
ATOM     24  C   UNL     1     -30.158  28.226   4.289  0.00  0.00    +0.169 C 
ATOM     25  C   UNL     1     -30.636  28.879   5.586  0.00  0.00    +0.173 C 
ATOM     26  C   UNL     1     -31.346  27.790   3.430  0.00  0.00    +0.177 C 
ATOM     27  C   UNL     1     -31.685  28.015   6.287  0.00  0.00    +0.210 C 
ATOM     28  C   UNL     1     -32.774  27.565   5.314  0.00  0.00    +0.318 C 
BRANCH  24  29
ATOM     29  O   UNL     1     -29.363  29.157   3.557  0.00  0.00    -0.379 OA
ATOM     30  H   UNL     1     -29.383  28.928   2.615  0.00  0.00    +0.211 HD
ENDBRANCH  24  29
BRANCH  25  31
ATOM     31  O   UNL     1     -29.504  29.041   6.442  0.00  0.00    -0.379 OA
ATOM     32  H   UNL     1     -29.592  29.867   6.942  0.00  0.00    +0.211 HD
ENDBRANCH  25  31
BRANCH  27  33
ATOM     33  O   UNL     1     -32.300  28.770   7.329  0.00  0.00    -0.377 OA
ATOM     34  H   UNL     1     -31.868  29.637   7.401  0.00  0.00    +0.211 HD
ENDBRANCH  27  33
BRANCH  26  35
ATOM     35  C   UNL     1     -30.896  27.031   2.186  0.00  0.00    +0.169 C 
BRANCH  35  36
ATOM     36  O   UNL     1     -29.768  26.245   2.520  0.00  0.00    -0.379 OA
ATOM     37  H   UNL     1     -29.375  25.883   1.711  0.00  0.00    +0.211 HD
ENDBRANCH  35  36
ENDBRANCH  26  35
ENDBRANCH  22  28
ENDBRANCH   1  22
TORSDOF 11
ENDMDL
MODEL 4
REMARK VINA RESULT:      -7.0      3.458      9.883
REMARK  Name = 193748
REMARK  11 active torsions:
REMARK  status: ('A' for Active; 'I' for Inactive)
REMARK    1  A    between atoms: C_1  and  O_22
REMARK    2  A    between atoms: C_4  and  C_8
REMARK    3  A    between atoms: C_8  and  C_9
REMARK    4  A    between atoms: C_9  and  C_10
REMARK    5  A    between atoms: C_11  and  C_18
REMARK    6  A    between atoms: O_22  and  C_28
REMARK    7  A    between atoms: C_24  and  O_29
REMARK    8  A    between atoms: C_25  and  O_31
REMARK    9  A    between atoms: C_26  and  C_35
REMARK   10  A    between atoms: C_27  and  O_33
REMARK   11  A    between atoms: C_35  and  O_36
REMARK                            x       y       z     vdW  Elec       q    Type
REMARK                         _______ _______ _______ _____ _____    ______ ____
ROOT
ATOM      1  C   UNL     1     -35.848  24.001   4.225  0.00  0.00    +0.141 C 
ATOM      2  C   UNL     1     -36.089  24.836   5.311  0.00  0.00    +0.037 C 
ATOM      3  C   UNL     1     -34.730  24.195   3.420  0.00  0.00    +0.037 C 
ATOM      4  C   UNL     1     -34.080  26.075   4.791  0.00  0.00    +0.035 C 
ATOM      5  C   UNL     1     -35.203  25.876   5.595  0.00  0.00    +0.006 C 
ATOM      6  C   UNL     1     -33.844  25.234   3.704  0.00  0.00    +0.006 C 
ENDROOT
BRANCH   4   8
ATOM      7  O   UNL     1     -32.859  27.435   6.268  0.00  0.00    -0.291 OA
ATOM      8  C   UNL     1     -33.156  27.157   5.088  0.00  0.00    +0.177 C 
BRANCH   8   9
ATOM      9  C   UNL     1     -32.534  27.970   3.939  0.00  0.00    +0.095 C 
BRANCH   9  10
ATOM     10  C   UNL     1     -33.433  29.048   3.383  0.00  0.00    -0.014 C 
ATOM     11  C   UNL     1     -35.083  31.025   2.360  0.00  0.00    -0.000 C 
ATOM     12  C   UNL     1     -34.525  28.688   2.608  0.00  0.00    -0.004 C 
ATOM     13  C   UNL     1     -33.150  30.377   3.656  0.00  0.00    -0.004 C 
ATOM     14  C   UNL     1     -35.355  29.683   2.093  0.00  0.00    -0.001 C 
ATOM     15  C   UNL     1     -33.981  31.372   3.141  0.00  0.00    -0.001 C 
BRANCH  11  18
ATOM     16  O   UNL     1     -36.623  33.984   0.767  0.00  0.00    -0.440 OA
ATOM     17  O   UNL     1     -38.875  33.662   1.103  0.00  0.00    -0.245 OA
ATOM     18  C   UNL     1     -35.950  32.063   1.823  0.00  0.00    +0.028 C 
ATOM     19  C   UNL     1     -35.441  33.252   1.108  0.00  0.00    +0.236 C 
ATOM     20  C   UNL     1     -37.274  32.087   1.898  0.00  0.00    +0.081 C 
ATOM     21  C   UNL     1     -37.715  33.310   1.226  0.00  0.00    +0.342 C 
ENDBRANCH  11  18
ENDBRANCH   9  10
ENDBRANCH   8   9
ENDBRANCH   4   8
BRANCH   1  22
ATOM     22  O   UNL     1     -36.716  22.981   3.947  0.00  0.00    -0.451 OA
BRANCH  22  28
ATOM     23  O   UNL     1     -38.522  24.238   3.170  0.00  0.00    -0.316 OA
ATOM     24  C   UNL     1     -40.316  23.286   1.848  0.00  0.00    +0.169 C 
ATOM     25  C   UNL     1     -39.462  22.051   1.563  0.00  0.00    +0.173 C 
ATOM     26  C   UNL     1     -39.435  24.510   2.104  0.00  0.00    +0.177 C 
ATOM     27  C   UNL     1     -38.370  21.878   2.619  0.00  0.00    +0.210 C 
ATOM     28  C   UNL     1     -37.614  23.185   2.856  0.00  0.00    +0.318 C 
BRANCH  24  29
ATOM     29  O   UNL     1     -41.164  23.542   0.731  0.00  0.00    -0.379 OA
ATOM     30  H   UNL     1     -41.434  22.700   0.331  0.00  0.00    +0.211 HD
ENDBRANCH  24  29
BRANCH  25  31
ATOM     31  O   UNL     1     -40.319  20.909   1.574  0.00  0.00    -0.379 OA
ATOM     32  H   UNL     1     -40.341  20.529   2.466  0.00  0.00    +0.211 HD
ENDBRANCH  25  31
BRANCH  27  33
ATOM     33  O   UNL     1     -37.436  20.894   2.177  0.00  0.00    -0.377 OA
ATOM     34  H   UNL     1     -36.636  20.938   2.725  0.00  0.00    +0.211 HD
ENDBRANCH  27  33
BRANCH  26  35
ATOM     35  C   UNL     1     -40.261  25.728   2.507  0.00  0.00    +0.169 C 
BRANCH  35  36
ATOM     36  O   UNL     1     -39.493  26.520   3.394  0.00  0.00    -0.379 OA
ATOM     37  H   UNL     1     -39.875  26.469   4.285  0.00  0.00    +0.211 HD
ENDBRANCH  35  36
ENDBRANCH  26  35
ENDBRANCH  22  28
ENDBRANCH   1  22
TORSDOF 11
ENDMDL
MODEL 5
REMARK VINA RESULT:      -6.7      2.106      9.891
REMARK  Name = 193748
REMARK  11 active torsions:
REMARK  status: ('A' for Active; 'I' for Inactive)
REMARK    1  A    between atoms: C_1  and  O_22
REMARK    2  A    between atoms: C_4  and  C_8
REMARK    3  A    between atoms: C_8  and  C_9
REMARK    4  A    between atoms: C_9  and  C_10
REMARK    5  A    between atoms: C_11  and  C_18
REMARK    6  A    between atoms: O_22  and  C_28
REMARK    7  A    between atoms: C_24  and  O_29
REMARK    8  A    between atoms: C_25  and  O_31
REMARK    9  A    between atoms: C_26  and  C_35
REMARK   10  A    between atoms: C_27  and  O_33
REMARK   11  A    between atoms: C_35  and  O_36
REMARK                            x       y       z     vdW  Elec       q    Type
REMARK                         _______ _______ _______ _____ _____    ______ ____
ROOT
ATOM      1  C   UNL     1     -34.923  21.123   1.502  0.00  0.00    +0.141 C 
ATOM      2  C   UNL     1     -34.846  22.504   1.352  0.00  0.00    +0.037 C 
ATOM      3  C   UNL     1     -35.317  20.565   2.715  0.00  0.00    +0.037 C 
ATOM      4  C   UNL     1     -35.561  22.782   3.644  0.00  0.00    +0.035 C 
ATOM      5  C   UNL     1     -35.166  23.335   2.426  0.00  0.00    +0.006 C 
ATOM      6  C   UNL     1     -35.636  21.396   3.788  0.00  0.00    +0.006 C 
ENDROOT
BRANCH   4   8
ATOM      7  O   UNL     1     -35.983  23.188   5.920  0.00  0.00    -0.291 OA
ATOM      8  C   UNL     1     -35.895  23.648   4.763  0.00  0.00    +0.177 C 
BRANCH   8   9
ATOM      9  C   UNL     1     -36.142  25.148   4.523  0.00  0.00    +0.095 C 
BRANCH   9  10
ATOM     10  C   UNL     1     -34.931  26.020   4.750  0.00  0.00    -0.014 C 
ATOM     11  C   UNL     1     -32.708  27.623   5.168  0.00  0.00    -0.000 C 
ATOM     12  C   UNL     1     -34.300  25.999   5.984  0.00  0.00    -0.004 C 
ATOM     13  C   UNL     1     -34.472  26.827   3.721  0.00  0.00    -0.004 C 
ATOM     14  C   UNL     1     -33.182  26.805   6.195  0.00  0.00    -0.001 C 
ATOM     15  C   UNL     1     -33.353  27.634   3.932  0.00  0.00    -0.001 C 
BRANCH  11  18
ATOM     16  O   UNL     1     -30.128  29.988   6.354  0.00  0.00    -0.440 OA
ATOM     17  O   UNL     1     -28.473  29.817   4.766  0.00  0.00    -0.245 OA
ATOM     18  C   UNL     1     -31.542  28.464   5.388  0.00  0.00    +0.028 C 
ATOM     19  C   UNL     1     -31.407  29.375   6.543  0.00  0.00    +0.236 C 
ATOM     20  C   UNL     1     -30.472  28.530   4.606  0.00  0.00    +0.081 C 
ATOM     21  C   UNL     1     -29.561  29.501   5.215  0.00  0.00    +0.342 C 
ENDBRANCH  11  18
ENDBRANCH   9  10
ENDBRANCH   8   9
ENDBRANCH   4   8
BRANCH   1  22
ATOM     22  O   UNL     1     -34.611  20.307   0.450  0.00  0.00    -0.451 OA
BRANCH  22  28
ATOM     23  O   UNL     1     -32.590  19.144   0.533  0.00  0.00    -0.316 OA
ATOM     24  C   UNL     1     -32.396  16.799  -0.047  0.00  0.00    +0.169 C 
ATOM     25  C   UNL     1     -33.912  16.641   0.052  0.00  0.00    +0.173 C 
ATOM     26  C   UNL     1     -31.907  17.932   0.858  0.00  0.00    +0.177 C 
ATOM     27  C   UNL     1     -34.622  17.985  -0.118  0.00  0.00    +0.210 C 
ATOM     28  C   UNL     1     -33.993  19.061   0.768  0.00  0.00    +0.318 C 
BRANCH  24  29
ATOM     29  O   UNL     1     -31.767  15.580   0.342  0.00  0.00    -0.379 OA
ATOM     30  H   UNL     1     -32.418  15.004   0.771  0.00  0.00    +0.211 HD
ENDBRANCH  24  29
BRANCH  25  31
ATOM     31  O   UNL     1     -34.332  15.748  -0.980  0.00  0.00    -0.379 OA
ATOM     32  H   UNL     1     -33.827  14.921  -0.918  0.00  0.00    +0.211 HD
ENDBRANCH  25  31
BRANCH  27  33
ATOM     33  O   UNL     1     -35.993  17.846   0.251  0.00  0.00    -0.377 OA
ATOM     34  H   UNL     1     -36.054  17.621   1.193  0.00  0.00    +0.211 HD
ENDBRANCH  27  33
BRANCH  26  35
ATOM     35  C   UNL     1     -30.412  18.187   0.688  0.00  0.00    +0.169 C 
BRANCH  35  36
ATOM     36  O   UNL     1     -29.703  17.287   1.518  0.00  0.00    -0.379 OA
ATOM     37  H   UNL     1     -29.114  17.785   2.106  0.00  0.00    +0.211 HD
ENDBRANCH  35  36
ENDBRANCH  26  35
ENDBRANCH  22  28
ENDBRANCH   1  22
TORSDOF 11
ENDMDL
MODEL 6
REMARK VINA RESULT:      -6.7      2.168      3.653
REMARK  Name = 193748
REMARK  11 active torsions:
REMARK  status: ('A' for Active; 'I' for Inactive)
REMARK    1  A    between atoms: C_1  and  O_22
REMARK    2  A    between atoms: C_4  and  C_8
REMARK    3  A    between atoms: C_8  and  C_9
REMARK    4  A    between atoms: C_9  and  C_10
REMARK    5  A    between atoms: C_11  and  C_18
REMARK    6  A    between atoms: O_22  and  C_28
REMARK    7  A    between atoms: C_24  and  O_29
REMARK    8  A    between atoms: C_25  and  O_31
REMARK    9  A    between atoms: C_26  and  C_35
REMARK   10  A    between atoms: C_27  and  O_33
REMARK   11  A    between atoms: C_35  and  O_36
REMARK                            x       y       z     vdW  Elec       q    Type
REMARK                         _______ _______ _______ _____ _____    ______ ____
ROOT
ATOM      1  C   UNL     1     -35.270  25.428   3.488  0.00  0.00    +0.141 C 
ATOM      2  C   UNL     1     -35.469  24.555   4.554  0.00  0.00    +0.037 C 
ATOM      3  C   UNL     1     -35.074  24.936   2.201  0.00  0.00    +0.037 C 
ATOM      4  C   UNL     1     -35.276  22.681   3.041  0.00  0.00    +0.035 C 
ATOM      5  C   UNL     1     -35.472  23.178   4.330  0.00  0.00    +0.006 C 
ATOM      6  C   UNL     1     -35.077  23.560   1.977  0.00  0.00    +0.006 C 
ENDROOT
BRANCH   4   8
ATOM      7  O   UNL     1     -35.375  20.446   3.761  0.00  0.00    -0.291 OA
ATOM      8  C   UNL     1     -35.281  21.245   2.808  0.00  0.00    +0.177 C 
BRANCH   8   9
ATOM      9  C   UNL     1     -35.170  20.702   1.372  0.00  0.00    +0.095 C 
BRANCH   9  10
ATOM     10  C   UNL     1     -33.822  20.114   1.033  0.00  0.00    -0.014 C 
ATOM     11  C   UNL     1     -31.345  19.034   0.413  0.00  0.00    -0.000 C 
ATOM     12  C   UNL     1     -33.502  18.843   1.484  0.00  0.00    -0.004 C 
ATOM     13  C   UNL     1     -32.927  20.856   0.278  0.00  0.00    -0.004 C 
ATOM     14  C   UNL     1     -32.256  18.299   1.172  0.00  0.00    -0.001 C 
ATOM     15  C   UNL     1     -31.680  20.312  -0.033  0.00  0.00    -0.001 C 
BRANCH  11  18
ATOM     16  O   UNL     1     -28.150  17.945  -1.089  0.00  0.00    -0.440 OA
ATOM     17  O   UNL     1     -27.174  16.692   0.574  0.00  0.00    -0.245 OA
ATOM     18  C   UNL     1     -30.046  18.468   0.088  0.00  0.00    +0.028 C 
ATOM     19  C   UNL     1     -29.378  18.668  -1.215  0.00  0.00    +0.236 C 
ATOM     20  C   UNL     1     -29.303  17.715   0.889  0.00  0.00    +0.081 C 
ATOM     21  C   UNL     1     -28.088  17.376   0.147  0.00  0.00    +0.342 C 
ENDBRANCH  11  18
ENDBRANCH   9  10
ENDBRANCH   8   9
ENDBRANCH   4   8
BRANCH   1  22
ATOM     22  O   UNL     1     -35.268  26.777   3.707  0.00  0.00    -0.451 OA
BRANCH  22  28
ATOM     23  O   UNL     1     -33.476  27.638   4.929  0.00  0.00    -0.316 OA
ATOM     24  C   UNL     1     -32.320  29.676   4.312  0.00  0.00    +0.169 C 
ATOM     25  C   UNL     1     -32.945  29.618   2.918  0.00  0.00    +0.173 C 
ATOM     26  C   UNL     1     -32.197  28.274   4.911  0.00  0.00    +0.177 C 
ATOM     27  C   UNL     1     -34.222  28.778   2.919  0.00  0.00    +0.210 C 
ATOM     28  C   UNL     1     -34.006  27.437   3.621  0.00  0.00    +0.318 C 
BRANCH  24  29
ATOM     29  O   UNL     1     -31.025  30.266   4.224  0.00  0.00    -0.379 OA
ATOM     30  H   UNL     1     -30.509  30.031   5.011  0.00  0.00    +0.211 HD
ENDBRANCH  24  29
BRANCH  25  31
ATOM     31  O   UNL     1     -33.254  30.953   2.517  0.00  0.00    -0.379 OA
ATOM     32  H   UNL     1     -32.683  31.575   2.995  0.00  0.00    +0.211 HD
ENDBRANCH  25  31
BRANCH  27  33
ATOM     33  O   UNL     1     -34.620  28.519   1.574  0.00  0.00    -0.377 OA
ATOM     34  H   UNL     1     -34.221  29.180   0.985  0.00  0.00    +0.211 HD
ENDBRANCH  27  33
BRANCH  26  35
ATOM     35  C   UNL     1     -31.685  28.315   6.348  0.00  0.00    +0.169 C 
BRANCH  35  36
ATOM     36  O   UNL     1     -31.972  27.074   6.965  0.00  0.00    -0.379 OA
ATOM     37  H   UNL     1     -32.822  27.133   7.428  0.00  0.00    +0.211 HD
ENDBRANCH  35  36
ENDBRANCH  26  35
ENDBRANCH  22  28
ENDBRANCH   1  22
TORSDOF 11
ENDMDL
MODEL 7
REMARK VINA RESULT:      -6.6      3.118     10.313
REMARK  Name = 193748
REMARK  11 active torsions:
REMARK  status: ('A' for Active; 'I' for Inactive)
REMARK    1  A    between atoms: C_1  and  O_22
REMARK    2  A    between atoms: C_4  and  C_8
REMARK    3  A    between atoms: C_8  and  C_9
REMARK    4  A    between atoms: C_9  and  C_10
REMARK    5  A    between atoms: C_11  and  C_18
REMARK    6  A    between atoms: O_22  and  C_28
REMARK    7  A    between atoms: C_24  and  O_29
REMARK    8  A    between atoms: C_25  and  O_31
REMARK    9  A    between atoms: C_26  and  C_35
REMARK   10  A    between atoms: C_27  and  O_33
REMARK   11  A    between atoms: C_35  and  O_36
REMARK                            x       y       z     vdW  Elec       q    Type
REMARK                         _______ _______ _______ _____ _____    ______ ____
ROOT
ATOM      1  C   UNL     1     -35.020  24.470   4.346  0.00  0.00    +0.141 C 
ATOM      2  C   UNL     1     -34.389  25.072   3.262  0.00  0.00    +0.037 C 
ATOM      3  C   UNL     1     -34.855  24.978   5.631  0.00  0.00    +0.037 C 
ATOM      4  C   UNL     1     -33.416  26.707   4.752  0.00  0.00    +0.035 C 
ATOM      5  C   UNL     1     -33.585  26.194   3.466  0.00  0.00    +0.006 C 
ATOM      6  C   UNL     1     -34.051  26.099   5.834  0.00  0.00    +0.006 C 
ENDROOT
BRANCH   4   8
ATOM      7  O   UNL     1     -32.481  28.393   6.097  0.00  0.00    -0.291 OA
ATOM      8  C   UNL     1     -32.578  27.877   4.964  0.00  0.00    +0.177 C 
BRANCH   8   9
ATOM      9  C   UNL     1     -31.801  28.488   3.785  0.00  0.00    +0.095 C 
BRANCH   9  10
ATOM     10  C   UNL     1     -32.326  29.824   3.320  0.00  0.00    -0.014 C 
ATOM     11  C   UNL     1     -33.291  32.278   2.466  0.00  0.00    -0.000 C 
ATOM     12  C   UNL     1     -33.625  29.916   2.846  0.00  0.00    -0.004 C 
ATOM     13  C   UNL     1     -31.500  30.936   3.376  0.00  0.00    -0.004 C 
ATOM     14  C   UNL     1     -34.111  31.151   2.415  0.00  0.00    -0.001 C 
ATOM     15  C   UNL     1     -31.986  32.171   2.946  0.00  0.00    -0.001 C 
BRANCH  11  18
ATOM     16  O   UNL     1     -33.956  35.828   1.683  0.00  0.00    -0.440 OA
ATOM     17  O   UNL     1     -35.913  35.755   0.478  0.00  0.00    -0.245 OA
ATOM     18  C   UNL     1     -33.797  33.566   2.017  0.00  0.00    +0.028 C 
ATOM     19  C   UNL     1     -33.120  34.847   2.304  0.00  0.00    +0.236 C 
ATOM     20  C   UNL     1     -34.903  33.764   1.311  0.00  0.00    +0.081 C 
ATOM     21  C   UNL     1     -35.013  35.207   1.091  0.00  0.00    +0.342 C 
ENDBRANCH  11  18
ENDBRANCH   9  10
ENDBRANCH   8   9
ENDBRANCH   4   8
BRANCH   1  22
ATOM     22  O   UNL     1     -35.810  23.371   4.147  0.00  0.00    -0.451 OA
BRANCH  22  28
ATOM     23  O   UNL     1     -37.945  24.185   3.672  0.00  0.00    -0.316 OA
ATOM     24  C   UNL     1     -39.531  22.988   2.284  0.00  0.00    +0.169 C 
ATOM     25  C   UNL     1     -38.408  22.095   1.757  0.00  0.00    +0.173 C 
ATOM     26  C   UNL     1     -38.986  24.353   2.708  0.00  0.00    +0.177 C 
ATOM     27  C   UNL     1     -37.221  22.071   2.721  0.00  0.00    +0.210 C 
ATOM     28  C   UNL     1     -36.821  23.484   3.146  0.00  0.00    +0.318 C 
BRANCH  24  29
ATOM     29  O   UNL     1     -40.510  23.168   1.263  0.00  0.00    -0.379 OA
ATOM     30  H   UNL     1     -40.187  23.814   0.617  0.00  0.00    +0.211 HD
ENDBRANCH  24  29
BRANCH  25  31
ATOM     31  O   UNL     1     -38.928  20.773   1.609  0.00  0.00    -0.379 OA
ATOM     32  H   UNL     1     -39.792  20.715   2.046  0.00  0.00    +0.211 HD
ENDBRANCH  25  31
BRANCH  27  33
ATOM     33  O   UNL     1     -36.102  21.462   2.079  0.00  0.00    -0.377 OA
ATOM     34  H   UNL     1     -36.176  21.580   1.118  0.00  0.00    +0.211 HD
ENDBRANCH  27  33
BRANCH  26  35
ATOM     35  C   UNL     1     -40.067  25.221   3.347  0.00  0.00    +0.169 C 
BRANCH  35  36
ATOM     36  O   UNL     1     -39.569  26.539   3.477  0.00  0.00    -0.379 OA
ATOM     37  H   UNL     1     -38.666  26.509   3.830  0.00  0.00    +0.211 HD
ENDBRANCH  35  36
ENDBRANCH  26  35
ENDBRANCH  22  28
ENDBRANCH   1  22
TORSDOF 11
ENDMDL
MODEL 8
REMARK VINA RESULT:      -6.6      4.113      7.488
REMARK  Name = 193748
REMARK  11 active torsions:
REMARK  status: ('A' for Active; 'I' for Inactive)
REMARK    1  A    between atoms: C_1  and  O_22
REMARK    2  A    between atoms: C_4  and  C_8
REMARK    3  A    between atoms: C_8  and  C_9
REMARK    4  A    between atoms: C_9  and  C_10
REMARK    5  A    between atoms: C_11  and  C_18
REMARK    6  A    between atoms: O_22  and  C_28
REMARK    7  A    between atoms: C_24  and  O_29
REMARK    8  A    between atoms: C_25  and  O_31
REMARK    9  A    between atoms: C_26  and  C_35
REMARK   10  A    between atoms: C_27  and  O_33
REMARK   11  A    between atoms: C_35  and  O_36
REMARK                            x       y       z     vdW  Elec       q    Type
REMARK                         _______ _______ _______ _____ _____    ______ ____
ROOT
ATOM      1  C   UNL     1     -34.552  21.230   1.181  0.00  0.00    +0.141 C 
ATOM      2  C   UNL     1     -33.612  21.513   0.195  0.00  0.00    +0.037 C 
ATOM      3  C   UNL     1     -34.545  20.000   1.831  0.00  0.00    +0.037 C 
ATOM      4  C   UNL     1     -32.645  19.320   0.503  0.00  0.00    +0.035 C 
ATOM      5  C   UNL     1     -32.656  20.555  -0.145  0.00  0.00    +0.006 C 
ATOM      6  C   UNL     1     -33.589  19.042   1.491  0.00  0.00    +0.006 C 
ENDROOT
BRANCH   4   8
ATOM      7  O   UNL     1     -30.539  18.300   0.724  0.00  0.00    -0.291 OA
ATOM      8  C   UNL     1     -31.647  18.322   0.150  0.00  0.00    +0.177 C 
BRANCH   8   9
ATOM      9  C   UNL     1     -31.957  17.281  -0.940  0.00  0.00    +0.095 C 
BRANCH   9  10
ATOM     10  C   UNL     1     -33.406  16.864  -1.005  0.00  0.00    -0.014 C 
ATOM     11  C   UNL     1     -36.067  16.095  -1.126  0.00  0.00    -0.000 C 
ATOM     12  C   UNL     1     -33.857  15.844  -0.182  0.00  0.00    -0.004 C 
ATOM     13  C   UNL     1     -34.260  17.507  -1.888  0.00  0.00    -0.004 C 
ATOM     14  C   UNL     1     -35.196  15.457  -0.243  0.00  0.00    -0.001 C 
ATOM     15  C   UNL     1     -35.599  17.120  -1.948  0.00  0.00    -0.001 C 
BRANCH  11  18
ATOM     16  O   UNL     1     -39.333  14.446  -1.641  0.00  0.00    -0.440 OA
ATOM     17  O   UNL     1     -40.833  15.925  -0.718  0.00  0.00    -0.245 OA
ATOM     18  C   UNL     1     -37.463  15.691  -1.189  0.00  0.00    +0.028 C 
ATOM     19  C   UNL     1     -37.912  14.424  -1.801  0.00  0.00    +0.236 C 
ATOM     20  C   UNL     1     -38.494  16.383  -0.724  0.00  0.00    +0.081 C 
ATOM     21  C   UNL     1     -39.696  15.596  -1.006  0.00  0.00    +0.342 C 
ENDBRANCH  11  18
ENDBRANCH   9  10
ENDBRANCH   8   9
ENDBRANCH   4   8
BRANCH   1  22
ATOM     22  O   UNL     1     -35.488  22.169   1.516  0.00  0.00    -0.451 OA
BRANCH  22  28
ATOM     23  O   UNL     1     -35.533  22.381   3.839  0.00  0.00    -0.316 OA
ATOM     24  C   UNL     1     -36.033  24.470   4.961  0.00  0.00    +0.169 C 
ATOM     25  C   UNL     1     -35.796  25.235   3.659  0.00  0.00    +0.173 C 
ATOM     26  C   UNL     1     -35.220  23.174   4.985  0.00  0.00    +0.177 C 
ATOM     27  C   UNL     1     -35.958  24.322   2.443  0.00  0.00    +0.210 C 
ATOM     28  C   UNL     1     -35.174  23.021   2.617  0.00  0.00    +0.318 C 
BRANCH  24  29
ATOM     29  O   UNL     1     -35.651  25.287   6.065  0.00  0.00    -0.379 OA
ATOM     30  H   UNL     1     -34.966  24.834   6.581  0.00  0.00    +0.211 HD
ENDBRANCH  24  29
BRANCH  25  31
ATOM     31  O   UNL     1     -36.752  26.294   3.590  0.00  0.00    -0.379 OA
ATOM     32  H   UNL     1     -37.034  26.534   4.486  0.00  0.00    +0.211 HD
ENDBRANCH  25  31
BRANCH  27  33
ATOM     33  O   UNL     1     -35.467  24.989   1.282  0.00  0.00    -0.377 OA
ATOM     34  H   UNL     1     -34.536  25.229   1.415  0.00  0.00    +0.211 HD
ENDBRANCH  27  33
BRANCH  26  35
ATOM     35  C   UNL     1     -35.529  22.335   6.223  0.00  0.00    +0.169 C 
BRANCH  35  36
ATOM     36  O   UNL     1     -35.367  20.969   5.892  0.00  0.00    -0.379 OA
ATOM     37  H   UNL     1     -36.229  20.526   5.916  0.00  0.00    +0.211 HD
ENDBRANCH  35  36
ENDBRANCH  26  35
ENDBRANCH  22  28
ENDBRANCH   1  22
TORSDOF 11
ENDMDL
MODEL 9
REMARK VINA RESULT:      -6.6      3.662      5.830
REMARK  Name = 193748
REMARK  11 active torsions:
REMARK  status: ('A' for Active; 'I' for Inactive)
REMARK    1  A    between atoms: C_1  and  O_22
REMARK    2  A    between atoms: C_4  and  C_8
REMARK    3  A    between atoms: C_8  and  C_9
REMARK    4  A    between atoms: C_9  and  C_10
REMARK    5  A    between atoms: C_11  and  C_18
REMARK    6  A    between atoms: O_22  and  C_28
REMARK    7  A    between atoms: C_24  and  O_29
REMARK    8  A    between atoms: C_25  and  O_31
REMARK    9  A    between atoms: C_26  and  C_35
REMARK   10  A    between atoms: C_27  and  O_33
REMARK   11  A    between atoms: C_35  and  O_36
REMARK                            x       y       z     vdW  Elec       q    Type
REMARK                         _______ _______ _______ _____ _____    ______ ____
ROOT
ATOM      1  C   UNL     1     -39.179  23.177   1.395  0.00  0.00    +0.141 C 
ATOM      2  C   UNL     1     -39.993  22.049   1.401  0.00  0.00    +0.037 C 
ATOM      3  C   UNL     1     -38.504  23.554   0.238  0.00  0.00    +0.037 C 
ATOM      4  C   UNL     1     -39.459  21.664  -0.924  0.00  0.00    +0.035 C 
ATOM      5  C   UNL     1     -40.133  21.290   0.239  0.00  0.00    +0.006 C 
ATOM      6  C   UNL     1     -38.644  22.796  -0.924  0.00  0.00    +0.006 C 
ENDROOT
BRANCH   4   8
ATOM      7  O   UNL     1     -40.212  21.334  -3.125  0.00  0.00    -0.291 OA
ATOM      8  C   UNL     1     -39.606  20.874  -2.136  0.00  0.00    +0.177 C 
BRANCH   8   9
ATOM      9  C   UNL     1     -39.008  19.457  -2.205  0.00  0.00    +0.095 C 
BRANCH   9  10
ATOM     10  C   UNL     1     -37.624  19.339  -1.616  0.00  0.00    -0.014 C 
ATOM     11  C   UNL     1     -35.081  19.122  -0.533  0.00  0.00    -0.000 C 
ATOM     12  C   UNL     1     -37.449  18.657  -0.421  0.00  0.00    -0.004 C 
ATOM     13  C   UNL     1     -36.551  19.914  -2.280  0.00  0.00    -0.004 C 
ATOM     14  C   UNL     1     -36.171  18.548   0.124  0.00  0.00    -0.001 C 
ATOM     15  C   UNL     1     -35.272  19.805  -1.734  0.00  0.00    -0.001 C 
BRANCH  11  18
ATOM     16  O   UNL     1     -31.580  19.519   0.582  0.00  0.00    -0.440 OA
ATOM     17  O   UNL     1     -31.177  17.597   1.778  0.00  0.00    -0.245 OA
ATOM     18  C   UNL     1     -33.748  19.008   0.036  0.00  0.00    +0.028 C 
ATOM     19  C   UNL     1     -32.706  20.043  -0.130  0.00  0.00    +0.236 C 
ATOM     20  C   UNL     1     -33.295  17.993   0.759  0.00  0.00    +0.081 C 
ATOM     21  C   UNL     1     -31.910  18.309   1.114  0.00  0.00    +0.342 C 
ENDBRANCH  11  18
ENDBRANCH   9  10
ENDBRANCH   8   9
ENDBRANCH   4   8
BRANCH   1  22
ATOM     22  O   UNL     1     -39.042  23.922   2.534  0.00  0.00    -0.451 OA
BRANCH  22  28
ATOM     23  O   UNL     1     -37.278  23.048   3.787  0.00  0.00    -0.316 OA
ATOM     24  C   UNL     1     -35.848  24.420   5.181  0.00  0.00    +0.169 C 
ATOM     25  C   UNL     1     -36.350  25.678   4.472  0.00  0.00    +0.173 C 
ATOM     26  C   UNL     1     -35.938  23.204   4.258  0.00  0.00    +0.177 C 
ATOM     27  C   UNL     1     -37.710  25.438   3.816  0.00  0.00    +0.210 C 
ATOM     28  C   UNL     1     -37.710  24.150   2.992  0.00  0.00    +0.318 C 
BRANCH  24  29
ATOM     29  O   UNL     1     -34.491  24.612   5.576  0.00  0.00    -0.379 OA
ATOM     30  H   UNL     1     -34.049  23.751   5.643  0.00  0.00    +0.211 HD
ENDBRANCH  24  29
BRANCH  25  31
ATOM     31  O   UNL     1     -36.468  26.716   5.445  0.00  0.00    -0.379 OA
ATOM     32  H   UNL     1     -36.637  26.324   6.317  0.00  0.00    +0.211 HD
ENDBRANCH  25  31
BRANCH  27  33
ATOM     33  O   UNL     1     -38.014  26.525   2.945  0.00  0.00    -0.377 OA
ATOM     34  H   UNL     1     -38.286  26.181   2.079  0.00  0.00    +0.211 HD
ENDBRANCH  27  33
BRANCH  26  35
ATOM     35  C   UNL     1     -35.553  21.915   4.981  0.00  0.00    +0.169 C 
BRANCH  35  36
ATOM     36  O   UNL     1     -36.034  21.984   6.310  0.00  0.00    -0.379 OA
ATOM     37  H   UNL     1     -35.776  22.832   6.704  0.00  0.00    +0.211 HD
ENDBRANCH  35  36
ENDBRANCH  26  35
ENDBRANCH  22  28
ENDBRANCH   1  22
TORSDOF 11
ENDMDL
