MODEL 1
REMARK VINA RESULT:      -7.5      0.000      0.000
REMARK  Name = 5047428
REMARK  4 active torsions:
REMARK  status: ('A' for Active; 'I' for Inactive)
REMARK    1  A    between atoms: C_7  and  C_15
REMARK    2  A    between atoms: C_8  and  C_25
REMARK    3  A    between atoms: C_18  and  S_21
REMARK    4  A    between atoms: C_28  and  S_31
REMARK                            x       y       z     vdW  Elec       q    Type
REMARK                         _______ _______ _______ _____ _____    ______ ____
ROOT
ATOM      1  N   UNL     1     -38.255  21.062   1.017  0.00  0.00    -0.242 NA
ATOM      2  N   UNL     1     -38.689  23.413   2.346  0.00  0.00    -0.242 NA
ATOM      3  C   UNL     1     -35.888  21.285   1.347  0.00  0.00    +0.019 C 
ATOM      4  C   UNL     1     -36.329  23.677   2.700  0.00  0.00    +0.019 C 
ATOM      5  C   UNL     1     -37.209  21.757   1.509  0.00  0.00    +0.099 C 
ATOM      6  C   UNL     1     -37.430  22.955   2.187  0.00  0.00    +0.099 C 
ATOM      7  C   UNL     1     -35.686  20.078   0.662  0.00  0.00    +0.003 C 
ATOM      8  C   UNL     1     -36.572  24.880   3.378  0.00  0.00    +0.003 C 
ATOM      9  C   UNL     1     -34.806  22.007   1.859  0.00  0.00    +0.002 C 
ATOM     10  C   UNL     1     -35.026  23.200   2.533  0.00  0.00    +0.002 C 
ATOM     11  C   UNL     1     -36.766  19.370   0.160  0.00  0.00    +0.021 C 
ATOM     12  C   UNL     1     -37.869  25.343   3.537  0.00  0.00    +0.021 C 
ATOM     13  C   UNL     1     -38.021  19.902   0.362  0.00  0.00    +0.099 C 
ATOM     14  C   UNL     1     -38.884  24.577   3.006  0.00  0.00    +0.099 C 
ENDROOT
BRANCH   7  15
ATOM     15  C   UNL     1     -34.366  19.509   0.444  0.00  0.00    +0.000 C 
ATOM     16  C   UNL     1     -33.785  19.576  -0.819  0.00  0.00    +0.001 C 
ATOM     17  C   UNL     1     -33.691  18.904   1.500  0.00  0.00    +0.001 C 
ATOM     18  C   UNL     1     -31.838  18.422   0.028  0.00  0.00    +0.112 C 
ATOM     19  C   UNL     1     -32.519  19.030  -1.028  0.00  0.00    +0.019 C 
ATOM     20  C   UNL     1     -32.424  18.358   1.292  0.00  0.00    +0.019 C 
BRANCH  18  21
ATOM     21  S   UNL     1     -30.253  17.739  -0.235  0.00  0.00    +0.042 S 
ATOM     22  O   UNL     1     -30.290  17.296  -1.637  0.00  0.00    -0.065 OA
ATOM     23  O   UNL     1     -29.298  18.831   0.015  0.00  0.00    -0.065 OA
ATOM     24  O   UNL     1     -30.171  16.649   0.750  0.00  0.00    -0.065 OA
ENDBRANCH  18  21
ENDBRANCH   7  15
BRANCH   8  25
ATOM     25  C   UNL     1     -35.507  25.694   3.942  0.00  0.00    +0.000 C 
ATOM     26  C   UNL     1     -34.918  26.690   3.170  0.00  0.00    +0.001 C 
ATOM     27  C   UNL     1     -35.085  25.469   5.248  0.00  0.00    +0.001 C 
ATOM     28  C   UNL     1     -33.468  27.249   5.020  0.00  0.00    +0.112 C 
ATOM     29  C   UNL     1     -33.895  27.470   3.710  0.00  0.00    +0.019 C 
ATOM     30  C   UNL     1     -34.063  26.249   5.788  0.00  0.00    +0.019 C 
BRANCH  28  31
ATOM     31  S   UNL     1     -32.188  28.226   5.696  0.00  0.00    +0.042 S 
ATOM     32  O   UNL     1     -32.262  27.949   7.139  0.00  0.00    -0.065 OA
ATOM     33  O   UNL     1     -30.945  27.751   5.067  0.00  0.00    -0.065 OA
ATOM     34  O   UNL     1     -32.553  29.599   5.316  0.00  0.00    -0.065 OA
ENDBRANCH  28  31
ENDBRANCH   8  25
TORSDOF 4
ENDMDL
MODEL 2
REMARK VINA RESULT:      -7.5      0.115      8.513
REMARK  Name = 5047428
REMARK  4 active torsions:
REMARK  status: ('A' for Active; 'I' for Inactive)
REMARK    1  A    between atoms: C_7  and  C_15
REMARK    2  A    between atoms: C_8  and  C_25
REMARK    3  A    between atoms: C_18  and  S_21
REMARK    4  A    between atoms: C_28  and  S_31
REMARK                            x       y       z     vdW  Elec       q    Type
REMARK                         _______ _______ _______ _____ _____    ______ ____
ROOT
ATOM      1  N   UNL     1     -38.684  23.391   2.347  0.00  0.00    -0.242 NA
ATOM      2  N   UNL     1     -38.249  21.039   1.021  0.00  0.00    -0.242 NA
ATOM      3  C   UNL     1     -36.324  23.657   2.698  0.00  0.00    +0.019 C 
ATOM      4  C   UNL     1     -35.881  21.263   1.348  0.00  0.00    +0.019 C 
ATOM      5  C   UNL     1     -37.425  22.934   2.187  0.00  0.00    +0.099 C 
ATOM      6  C   UNL     1     -37.203  21.735   1.511  0.00  0.00    +0.099 C 
ATOM      7  C   UNL     1     -36.568  24.861   3.375  0.00  0.00    +0.003 C 
ATOM      8  C   UNL     1     -35.679  20.055   0.665  0.00  0.00    +0.003 C 
ATOM      9  C   UNL     1     -35.021  23.181   2.530  0.00  0.00    +0.002 C 
ATOM     10  C   UNL     1     -34.800  21.988   1.857  0.00  0.00    +0.002 C 
ATOM     11  C   UNL     1     -37.865  25.323   3.534  0.00  0.00    +0.021 C 
ATOM     12  C   UNL     1     -36.759  19.346   0.165  0.00  0.00    +0.021 C 
ATOM     13  C   UNL     1     -38.880  24.556   3.005  0.00  0.00    +0.099 C 
ATOM     14  C   UNL     1     -38.014  19.877   0.368  0.00  0.00    +0.099 C 
ENDROOT
BRANCH   7  15
ATOM     15  C   UNL     1     -35.503  25.677   3.935  0.00  0.00    +0.000 C 
ATOM     16  C   UNL     1     -34.912  26.669   3.160  0.00  0.00    +0.001 C 
ATOM     17  C   UNL     1     -35.085  25.461   5.245  0.00  0.00    +0.001 C 
ATOM     18  C   UNL     1     -33.466  27.238   5.010  0.00  0.00    +0.112 C 
ATOM     19  C   UNL     1     -33.890  27.451   3.698  0.00  0.00    +0.019 C 
ATOM     20  C   UNL     1     -34.063  26.243   5.784  0.00  0.00    +0.019 C 
BRANCH  18  21
ATOM     21  S   UNL     1     -32.187  28.218   5.684  0.00  0.00    +0.042 S 
ATOM     22  O   UNL     1     -32.255  27.938   7.127  0.00  0.00    -0.065 OA
ATOM     23  O   UNL     1     -30.945  27.750   5.048  0.00  0.00    -0.065 OA
ATOM     24  O   UNL     1     -32.560  29.591   5.309  0.00  0.00    -0.065 OA
ENDBRANCH  18  21
ENDBRANCH   7  15
BRANCH   8  25
ATOM     25  C   UNL     1     -34.358  19.488   0.447  0.00  0.00    +0.000 C 
ATOM     26  C   UNL     1     -33.773  19.566  -0.813  0.00  0.00    +0.001 C 
ATOM     27  C   UNL     1     -33.688  18.872   1.499  0.00  0.00    +0.001 C 
ATOM     28  C   UNL     1     -31.830  18.403   0.029  0.00  0.00    +0.112 C 
ATOM     29  C   UNL     1     -32.506  19.022  -1.023  0.00  0.00    +0.019 C 
ATOM     30  C   UNL     1     -32.422  18.329   1.290  0.00  0.00    +0.019 C 
BRANCH  28  31
ATOM     31  S   UNL     1     -30.244  17.721  -0.234  0.00  0.00    +0.042 S 
ATOM     32  O   UNL     1     -30.301  16.425   0.460  0.00  0.00    -0.065 OA
ATOM     33  O   UNL     1     -30.094  17.604  -1.693  0.00  0.00    -0.065 OA
ATOM     34  O   UNL     1     -29.333  18.703   0.375  0.00  0.00    -0.065 OA
ENDBRANCH  28  31
ENDBRANCH   8  25
TORSDOF 4
ENDMDL
MODEL 3
REMARK VINA RESULT:      -7.3      6.286      9.224
REMARK  Name = 5047428
REMARK  4 active torsions:
REMARK  status: ('A' for Active; 'I' for Inactive)
REMARK    1  A    between atoms: C_7  and  C_15
REMARK    2  A    between atoms: C_8  and  C_25
REMARK    3  A    between atoms: C_18  and  S_21
REMARK    4  A    between atoms: C_28  and  S_31
REMARK                            x       y       z     vdW  Elec       q    Type
REMARK                         _______ _______ _______ _____ _____    ______ ____
ROOT
ATOM      1  N   UNL     1     -41.493  24.241   0.404  0.00  0.00    -0.242 NA
ATOM      2  N   UNL     1     -43.956  25.167   1.151  0.00  0.00    -0.242 NA
ATOM      3  C   UNL     1     -40.471  25.414   2.234  0.00  0.00    +0.019 C 
ATOM      4  C   UNL     1     -42.978  26.356   2.993  0.00  0.00    +0.019 C 
ATOM      5  C   UNL     1     -41.609  25.044   1.483  0.00  0.00    +0.099 C 
ATOM      6  C   UNL     1     -42.865  25.516   1.863  0.00  0.00    +0.099 C 
ATOM      7  C   UNL     1     -39.217  24.929   1.835  0.00  0.00    +0.003 C 
ATOM      8  C   UNL     1     -44.249  26.820   3.360  0.00  0.00    +0.003 C 
ATOM      9  C   UNL     1     -40.595  26.245   3.350  0.00  0.00    +0.002 C 
ATOM     10  C   UNL     1     -41.845  26.715   3.729  0.00  0.00    +0.002 C 
ATOM     11  C   UNL     1     -39.107  24.105   0.726  0.00  0.00    +0.021 C 
ATOM     12  C   UNL     1     -45.365  26.457   2.623  0.00  0.00    +0.021 C 
ATOM     13  C   UNL     1     -40.267  23.794   0.050  0.00  0.00    +0.099 C 
ATOM     14  C   UNL     1     -45.166  25.635   1.535  0.00  0.00    +0.099 C 
ENDROOT
BRANCH   7  15
ATOM     15  C   UNL     1     -37.989  25.252   2.541  0.00  0.00    +0.000 C 
ATOM     16  C   UNL     1     -37.217  26.332   2.125  0.00  0.00    +0.001 C 
ATOM     17  C   UNL     1     -37.595  24.481   3.630  0.00  0.00    +0.001 C 
ATOM     18  C   UNL     1     -35.638  25.871   3.895  0.00  0.00    +0.112 C 
ATOM     19  C   UNL     1     -36.037  26.642   2.803  0.00  0.00    +0.019 C 
ATOM     20  C   UNL     1     -36.416  24.790   4.309  0.00  0.00    +0.019 C 
BRANCH  18  21
ATOM     21  S   UNL     1     -34.162  26.260   4.744  0.00  0.00    +0.042 S 
ATOM     22  O   UNL     1     -33.256  25.154   4.395  0.00  0.00    -0.065 OA
ATOM     23  O   UNL     1     -33.730  27.566   4.222  0.00  0.00    -0.065 OA
ATOM     24  O   UNL     1     -34.567  26.296   6.158  0.00  0.00    -0.065 OA
ENDBRANCH  18  21
ENDBRANCH   7  15
BRANCH   8  25
ATOM     25  C   UNL     1     -44.468  27.688   4.506  0.00  0.00    +0.000 C 
ATOM     26  C   UNL     1     -45.253  27.246   5.567  0.00  0.00    +0.001 C 
ATOM     27  C   UNL     1     -43.891  28.954   4.534  0.00  0.00    +0.001 C 
ATOM     28  C   UNL     1     -44.887  29.349   6.698  0.00  0.00    +0.112 C 
ATOM     29  C   UNL     1     -45.464  28.079   6.666  0.00  0.00    +0.019 C 
ATOM     30  C   UNL     1     -44.102  29.786   5.633  0.00  0.00    +0.019 C 
BRANCH  28  31
ATOM     31  S   UNL     1     -45.151  30.392   8.074  0.00  0.00    +0.042 S 
ATOM     32  O   UNL     1     -45.815  31.572   7.497  0.00  0.00    -0.065 OA
ATOM     33  O   UNL     1     -46.003  29.628   9.000  0.00  0.00    -0.065 OA
ATOM     34  O   UNL     1     -43.797  30.642   8.592  0.00  0.00    -0.065 OA
ENDBRANCH  28  31
ENDBRANCH   8  25
TORSDOF 4
ENDMDL
MODEL 4
REMARK VINA RESULT:      -7.2      6.315      9.268
REMARK  Name = 5047428
REMARK  4 active torsions:
REMARK  status: ('A' for Active; 'I' for Inactive)
REMARK    1  A    between atoms: C_7  and  C_15
REMARK    2  A    between atoms: C_8  and  C_25
REMARK    3  A    between atoms: C_18  and  S_21
REMARK    4  A    between atoms: C_28  and  S_31
REMARK                            x       y       z     vdW  Elec       q    Type
REMARK                         _______ _______ _______ _____ _____    ______ ____
ROOT
ATOM      1  N   UNL     1     -41.570  24.209   0.361  0.00  0.00    -0.242 NA
ATOM      2  N   UNL     1     -44.035  25.100   1.142  0.00  0.00    -0.242 NA
ATOM      3  C   UNL     1     -40.539  25.399   2.173  0.00  0.00    +0.019 C 
ATOM      4  C   UNL     1     -43.048  26.306   2.969  0.00  0.00    +0.019 C 
ATOM      5  C   UNL     1     -41.682  25.012   1.440  0.00  0.00    +0.099 C 
ATOM      6  C   UNL     1     -42.939  25.466   1.838  0.00  0.00    +0.099 C 
ATOM      7  C   UNL     1     -39.284  24.932   1.757  0.00  0.00    +0.003 C 
ATOM      8  C   UNL     1     -44.320  26.752   3.354  0.00  0.00    +0.003 C 
ATOM      9  C   UNL     1     -40.658  26.230   3.291  0.00  0.00    +0.002 C 
ATOM     10  C   UNL     1     -41.909  26.683   3.687  0.00  0.00    +0.002 C 
ATOM     11  C   UNL     1     -39.178  24.108   0.648  0.00  0.00    +0.021 C 
ATOM     12  C   UNL     1     -45.442  26.372   2.633  0.00  0.00    +0.021 C 
ATOM     13  C   UNL     1     -40.343  23.779  -0.010  0.00  0.00    +0.099 C 
ATOM     14  C   UNL     1     -45.246  25.551   1.544  0.00  0.00    +0.099 C 
ENDROOT
BRANCH   7  15
ATOM     15  C   UNL     1     -38.050  25.274   2.445  0.00  0.00    +0.000 C 
ATOM     16  C   UNL     1     -37.641  24.525   3.544  0.00  0.00    +0.001 C 
ATOM     17  C   UNL     1     -37.285  26.348   1.998  0.00  0.00    +0.001 C 
ATOM     18  C   UNL     1     -35.687  25.929   3.761  0.00  0.00    +0.112 C 
ATOM     19  C   UNL     1     -36.457  24.853   4.204  0.00  0.00    +0.019 C 
ATOM     20  C   UNL     1     -36.101  26.677   2.658  0.00  0.00    +0.019 C 
BRANCH  18  21
ATOM     21  S   UNL     1     -34.205  26.341   4.587  0.00  0.00    +0.042 S 
ATOM     22  O   UNL     1     -33.916  27.708   4.129  0.00  0.00    -0.065 OA
ATOM     23  O   UNL     1     -34.508  26.250   6.025  0.00  0.00    -0.065 OA
ATOM     24  O   UNL     1     -33.248  25.324   4.122  0.00  0.00    -0.065 OA
ENDBRANCH  18  21
ENDBRANCH   7  15
BRANCH   8  25
ATOM     25  C   UNL     1     -44.535  27.618   4.502  0.00  0.00    +0.000 C 
ATOM     26  C   UNL     1     -43.963  28.886   4.526  0.00  0.00    +0.001 C 
ATOM     27  C   UNL     1     -45.312  27.173   5.566  0.00  0.00    +0.001 C 
ATOM     28  C   UNL     1     -44.947  29.275   6.699  0.00  0.00    +0.112 C 
ATOM     29  C   UNL     1     -44.168  29.717   5.628  0.00  0.00    +0.019 C 
ATOM     30  C   UNL     1     -45.518  28.003   6.667  0.00  0.00    +0.019 C 
BRANCH  28  31
ATOM     31  S   UNL     1     -45.204  30.315   8.078  0.00  0.00    +0.042 S 
ATOM     32  O   UNL     1     -45.859  31.501   7.504  0.00  0.00    -0.065 OA
ATOM     33  O   UNL     1     -46.063  29.554   9.000  0.00  0.00    -0.065 OA
ATOM     34  O   UNL     1     -43.849  30.554   8.597  0.00  0.00    -0.065 OA
ENDBRANCH  28  31
ENDBRANCH   8  25
TORSDOF 4
ENDMDL
MODEL 5
REMARK VINA RESULT:      -7.2      6.347     11.239
REMARK  Name = 5047428
REMARK  4 active torsions:
REMARK  status: ('A' for Active; 'I' for Inactive)
REMARK    1  A    between atoms: C_7  and  C_15
REMARK    2  A    between atoms: C_8  and  C_25
REMARK    3  A    between atoms: C_18  and  S_21
REMARK    4  A    between atoms: C_28  and  S_31
REMARK                            x       y       z     vdW  Elec       q    Type
REMARK                         _______ _______ _______ _____ _____    ______ ____
ROOT
ATOM      1  N   UNL     1     -44.089  25.124   1.145  0.00  0.00    -0.242 NA
ATOM      2  N   UNL     1     -41.628  24.229   0.355  0.00  0.00    -0.242 NA
ATOM      3  C   UNL     1     -43.094  26.320   2.974  0.00  0.00    +0.019 C 
ATOM      4  C   UNL     1     -40.589  25.410   2.169  0.00  0.00    +0.019 C 
ATOM      5  C   UNL     1     -42.989  25.484   1.840  0.00  0.00    +0.099 C 
ATOM      6  C   UNL     1     -41.735  25.028   1.437  0.00  0.00    +0.099 C 
ATOM      7  C   UNL     1     -44.364  26.768   3.363  0.00  0.00    +0.003 C 
ATOM      8  C   UNL     1     -39.336  24.941   1.749  0.00  0.00    +0.003 C 
ATOM      9  C   UNL     1     -41.953  26.691   3.691  0.00  0.00    +0.002 C 
ATOM     10  C   UNL     1     -40.704  26.238   3.290  0.00  0.00    +0.002 C 
ATOM     11  C   UNL     1     -45.488  26.393   2.644  0.00  0.00    +0.021 C 
ATOM     12  C   UNL     1     -39.234  24.121   0.636  0.00  0.00    +0.021 C 
ATOM     13  C   UNL     1     -45.297  25.576   1.551  0.00  0.00    +0.099 C 
ATOM     14  C   UNL     1     -40.402  23.797  -0.021  0.00  0.00    +0.099 C 
ENDROOT
BRANCH   7  15
ATOM     15  C   UNL     1     -44.575  27.631   4.514  0.00  0.00    +0.000 C 
ATOM     16  C   UNL     1     -44.069  28.927   4.507  0.00  0.00    +0.001 C 
ATOM     17  C   UNL     1     -45.283  27.154   5.613  0.00  0.00    +0.001 C 
ATOM     18  C   UNL     1     -44.980  29.281   6.717  0.00  0.00    +0.112 C 
ATOM     19  C   UNL     1     -44.271  29.754   5.612  0.00  0.00    +0.019 C 
ATOM     20  C   UNL     1     -45.485  27.981   6.718  0.00  0.00    +0.019 C 
BRANCH  18  21
ATOM     21  S   UNL     1     -45.233  30.317   8.100  0.00  0.00    +0.042 S 
ATOM     22  O   UNL     1     -46.064  29.503   9.000  0.00  0.00    -0.065 OA
ATOM     23  O   UNL     1     -43.893  30.609   8.634  0.00  0.00    -0.065 OA
ATOM     24  O   UNL     1     -45.912  31.496   7.538  0.00  0.00    -0.065 OA
ENDBRANCH  18  21
ENDBRANCH   7  15
BRANCH   8  25
ATOM     25  C   UNL     1     -38.099  25.278   2.436  0.00  0.00    +0.000 C 
ATOM     26  C   UNL     1     -37.334  26.352   1.992  0.00  0.00    +0.001 C 
ATOM     27  C   UNL     1     -37.692  24.525   3.532  0.00  0.00    +0.001 C 
ATOM     28  C   UNL     1     -35.734  25.922   3.751  0.00  0.00    +0.112 C 
ATOM     29  C   UNL     1     -36.147  26.674   2.651  0.00  0.00    +0.019 C 
ATOM     30  C   UNL     1     -36.506  24.848   4.191  0.00  0.00    +0.019 C 
BRANCH  28  31
ATOM     31  S   UNL     1     -34.249  26.326   4.576  0.00  0.00    +0.042 S 
ATOM     32  O   UNL     1     -33.304  25.293   4.123  0.00  0.00    -0.065 OA
ATOM     33  O   UNL     1     -33.898  27.684   4.130  0.00  0.00    -0.065 OA
ATOM     34  O   UNL     1     -34.604  26.249   6.001  0.00  0.00    -0.065 OA
ENDBRANCH  28  31
ENDBRANCH   8  25
TORSDOF 4
ENDMDL
MODEL 6
REMARK VINA RESULT:      -7.1      4.804      9.040
REMARK  Name = 5047428
REMARK  4 active torsions:
REMARK  status: ('A' for Active; 'I' for Inactive)
REMARK    1  A    between atoms: C_7  and  C_15
REMARK    2  A    between atoms: C_8  and  C_25
REMARK    3  A    between atoms: C_18  and  S_21
REMARK    4  A    between atoms: C_28  and  S_31
REMARK                            x       y       z     vdW  Elec       q    Type
REMARK                         _______ _______ _______ _____ _____    ______ ____
ROOT
ATOM      1  N   UNL     1     -39.422  23.143   0.564  0.00  0.00    -0.242 NA
ATOM      2  N   UNL     1     -36.752  22.800   1.044  0.00  0.00    -0.242 NA
ATOM      3  C   UNL     1     -39.437  25.124   1.922  0.00  0.00    +0.019 C 
ATOM      4  C   UNL     1     -36.718  24.774   2.410  0.00  0.00    +0.019 C 
ATOM      5  C   UNL     1     -38.763  24.023   1.346  0.00  0.00    +0.099 C 
ATOM      6  C   UNL     1     -37.401  23.848   1.590  0.00  0.00    +0.099 C 
ATOM      7  C   UNL     1     -40.806  25.282   1.664  0.00  0.00    +0.003 C 
ATOM      8  C   UNL     1     -35.349  24.581   2.644  0.00  0.00    +0.003 C 
ATOM      9  C   UNL     1     -38.750  26.033   2.731  0.00  0.00    +0.002 C 
ATOM     10  C   UNL     1     -37.395  25.859   2.975  0.00  0.00    +0.002 C 
ATOM     11  C   UNL     1     -41.475  24.374   0.859  0.00  0.00    +0.021 C 
ATOM     12  C   UNL     1     -34.689  23.502   2.079  0.00  0.00    +0.021 C 
ATOM     13  C   UNL     1     -40.742  23.329   0.338  0.00  0.00    +0.099 C 
ATOM     14  C   UNL     1     -35.431  22.647   1.293  0.00  0.00    +0.099 C 
ENDROOT
BRANCH   7  15
ATOM     15  C   UNL     1     -41.586  26.380   2.209  0.00  0.00    +0.000 C 
ATOM     16  C   UNL     1     -41.979  27.427   1.381  0.00  0.00    +0.001 C 
ATOM     17  C   UNL     1     -41.937  26.376   3.556  0.00  0.00    +0.001 C 
ATOM     18  C   UNL     1     -43.081  28.481   3.255  0.00  0.00    +0.112 C 
ATOM     19  C   UNL     1     -42.727  28.481   1.905  0.00  0.00    +0.019 C 
ATOM     20  C   UNL     1     -42.685  27.429   4.081  0.00  0.00    +0.019 C 
BRANCH  18  21
ATOM     21  S   UNL     1     -44.019  29.801   3.911  0.00  0.00    +0.042 S 
ATOM     22  O   UNL     1     -43.356  30.099   5.190  0.00  0.00    -0.065 OA
ATOM     23  O   UNL     1     -43.922  30.891   2.927  0.00  0.00    -0.065 OA
ATOM     24  O   UNL     1     -45.374  29.242   4.038  0.00  0.00    -0.065 OA
ENDBRANCH  18  21
ENDBRANCH   7  15
BRANCH   8  25
ATOM     25  C   UNL     1     -34.559  25.478   3.473  0.00  0.00    +0.000 C 
ATOM     26  C   UNL     1     -33.831  26.504   2.879  0.00  0.00    +0.001 C 
ATOM     27  C   UNL     1     -34.540  25.304   4.853  0.00  0.00    +0.001 C 
ATOM     28  C   UNL     1     -33.049  27.194   5.059  0.00  0.00    +0.112 C 
ATOM     29  C   UNL     1     -33.073  27.364   3.674  0.00  0.00    +0.019 C 
ATOM     30  C   UNL     1     -33.782  26.164   5.648  0.00  0.00    +0.019 C 
BRANCH  28  31
ATOM     31  S   UNL     1     -32.100  28.271   6.054  0.00  0.00    +0.042 S 
ATOM     32  O   UNL     1     -32.416  29.606   5.523  0.00  0.00    -0.065 OA
ATOM     33  O   UNL     1     -32.566  28.058   7.434  0.00  0.00    -0.065 OA
ATOM     34  O   UNL     1     -30.714  27.832   5.826  0.00  0.00    -0.065 OA
ENDBRANCH  28  31
ENDBRANCH   8  25
TORSDOF 4
ENDMDL
MODEL 7
REMARK VINA RESULT:      -7.0     13.078     18.007
REMARK  Name = 5047428
REMARK  4 active torsions:
REMARK  status: ('A' for Active; 'I' for Inactive)
REMARK    1  A    between atoms: C_7  and  C_15
REMARK    2  A    between atoms: C_8  and  C_25
REMARK    3  A    between atoms: C_18  and  S_21
REMARK    4  A    between atoms: C_28  and  S_31
REMARK                            x       y       z     vdW  Elec       q    Type
REMARK                         _______ _______ _______ _____ _____    ______ ____
ROOT
ATOM      1  N   UNL     1     -33.640  41.495  -1.606  0.00  0.00    -0.242 NA
ATOM      2  N   UNL     1     -35.282  39.734  -2.903  0.00  0.00    -0.242 NA
ATOM      3  C   UNL     1     -33.815  40.208   0.414  0.00  0.00    +0.019 C 
ATOM      4  C   UNL     1     -35.487  38.416  -0.906  0.00  0.00    +0.019 C 
ATOM      5  C   UNL     1     -34.135  40.428  -0.944  0.00  0.00    +0.099 C 
ATOM      6  C   UNL     1     -34.972  39.530  -1.605  0.00  0.00    +0.099 C 
ATOM      7  C   UNL     1     -32.972  41.123   1.061  0.00  0.00    +0.003 C 
ATOM      8  C   UNL     1     -36.327  37.524  -1.588  0.00  0.00    +0.003 C 
ATOM      9  C   UNL     1     -34.330  39.102   1.096  0.00  0.00    +0.002 C 
ATOM     10  C   UNL     1     -35.163  38.208   0.438  0.00  0.00    +0.002 C 
ATOM     11  C   UNL     1     -32.467  42.216   0.375  0.00  0.00    +0.021 C 
ATOM     12  C   UNL     1     -36.640  37.740  -2.921  0.00  0.00    +0.021 C 
ATOM     13  C   UNL     1     -32.830  42.355  -0.948  0.00  0.00    +0.099 C 
ATOM     14  C   UNL     1     -36.096  38.851  -3.528  0.00  0.00    +0.099 C 
ENDROOT
BRANCH   7  15
ATOM     15  C   UNL     1     -32.585  40.984   2.456  0.00  0.00    +0.000 C 
ATOM     16  C   UNL     1     -33.267  41.697   3.436  0.00  0.00    +0.001 C 
ATOM     17  C   UNL     1     -31.537  40.136   2.800  0.00  0.00    +0.001 C 
ATOM     18  C   UNL     1     -31.844  40.716   5.125  0.00  0.00    +0.112 C 
ATOM     19  C   UNL     1     -32.895  41.564   4.774  0.00  0.00    +0.019 C 
ATOM     20  C   UNL     1     -31.164  40.002   4.138  0.00  0.00    +0.019 C 
BRANCH  18  21
ATOM     21  S   UNL     1     -31.379  40.549   6.800  0.00  0.00    +0.042 S 
ATOM     22  O   UNL     1     -31.272  39.094   6.990  0.00  0.00    -0.065 OA
ATOM     23  O   UNL     1     -30.097  41.259   6.934  0.00  0.00    -0.065 OA
ATOM     24  O   UNL     1     -32.483  41.183   7.537  0.00  0.00    -0.065 OA
ENDBRANCH  18  21
ENDBRANCH   7  15
BRANCH   8  25
ATOM     25  C   UNL     1     -36.905  36.349  -0.956  0.00  0.00    +0.000 C 
ATOM     26  C   UNL     1     -36.204  35.148  -0.960  0.00  0.00    +0.001 C 
ATOM     27  C   UNL     1     -38.155  36.436  -0.351  0.00  0.00    +0.001 C 
ATOM     28  C   UNL     1     -38.013  34.102   0.254  0.00  0.00    +0.112 C 
ATOM     29  C   UNL     1     -36.760  34.020  -0.354  0.00  0.00    +0.019 C 
ATOM     30  C   UNL     1     -38.710  35.310   0.256  0.00  0.00    +0.019 C 
BRANCH  28  31
ATOM     31  S   UNL     1     -38.708  32.691   1.013  0.00  0.00    +0.042 S 
ATOM     32  O   UNL     1     -38.764  31.701  -0.074  0.00  0.00    -0.065 OA
ATOM     33  O   UNL     1     -37.786  32.324   2.100  0.00  0.00    -0.065 OA
ATOM     34  O   UNL     1     -40.021  33.156   1.487  0.00  0.00    -0.065 OA
ENDBRANCH  28  31
ENDBRANCH   8  25
TORSDOF 4
ENDMDL
MODEL 8
REMARK VINA RESULT:      -7.0     13.061     16.579
REMARK  Name = 5047428
REMARK  4 active torsions:
REMARK  status: ('A' for Active; 'I' for Inactive)
REMARK    1  A    between atoms: C_7  and  C_15
REMARK    2  A    between atoms: C_8  and  C_25
REMARK    3  A    between atoms: C_18  and  S_21
REMARK    4  A    between atoms: C_28  and  S_31
REMARK                            x       y       z     vdW  Elec       q    Type
REMARK                         _______ _______ _______ _____ _____    ______ ____
ROOT
ATOM      1  N   UNL     1     -35.287  39.724  -2.905  0.00  0.00    -0.242 NA
ATOM      2  N   UNL     1     -33.648  41.490  -1.611  0.00  0.00    -0.242 NA
ATOM      3  C   UNL     1     -35.484  38.406  -0.908  0.00  0.00    +0.019 C 
ATOM      4  C   UNL     1     -33.816  40.204   0.410  0.00  0.00    +0.019 C 
ATOM      5  C   UNL     1     -34.974  39.522  -1.608  0.00  0.00    +0.099 C 
ATOM      6  C   UNL     1     -34.139  40.422  -0.948  0.00  0.00    +0.099 C 
ATOM      7  C   UNL     1     -36.323  37.512  -1.589  0.00  0.00    +0.003 C 
ATOM      8  C   UNL     1     -32.975  41.121   1.055  0.00  0.00    +0.003 C 
ATOM      9  C   UNL     1     -35.158  38.200   0.436  0.00  0.00    +0.002 C 
ATOM     10  C   UNL     1     -34.327  39.096   1.093  0.00  0.00    +0.002 C 
ATOM     11  C   UNL     1     -36.639  37.727  -2.921  0.00  0.00    +0.021 C 
ATOM     12  C   UNL     1     -32.475  42.215   0.368  0.00  0.00    +0.021 C 
ATOM     13  C   UNL     1     -36.099  38.840  -3.528  0.00  0.00    +0.099 C 
ATOM     14  C   UNL     1     -32.839  42.353  -0.954  0.00  0.00    +0.099 C 
ENDROOT
BRANCH   7  15
ATOM     15  C   UNL     1     -36.897  36.336  -0.956  0.00  0.00    +0.000 C 
ATOM     16  C   UNL     1     -38.152  36.415  -0.360  0.00  0.00    +0.001 C 
ATOM     17  C   UNL     1     -36.188  35.138  -0.952  0.00  0.00    +0.001 C 
ATOM     18  C   UNL     1     -37.995  34.084   0.254  0.00  0.00    +0.112 C 
ATOM     19  C   UNL     1     -38.703  35.287   0.248  0.00  0.00    +0.019 C 
ATOM     20  C   UNL     1     -36.738  34.009  -0.345  0.00  0.00    +0.019 C 
BRANCH  18  21
ATOM     21  S   UNL     1     -38.685  32.671   1.015  0.00  0.00    +0.042 S 
ATOM     22  O   UNL     1     -38.744  31.682  -0.073  0.00  0.00    -0.065 OA
ATOM     23  O   UNL     1     -37.758  32.304   2.097  0.00  0.00    -0.065 OA
ATOM     24  O   UNL     1     -39.997  33.133   1.494  0.00  0.00    -0.065 OA
ENDBRANCH  18  21
ENDBRANCH   7  15
BRANCH   8  25
ATOM     25  C   UNL     1     -32.585  40.983   2.450  0.00  0.00    +0.000 C 
ATOM     26  C   UNL     1     -31.530  40.143   2.791  0.00  0.00    +0.001 C 
ATOM     27  C   UNL     1     -33.270  41.692   3.431  0.00  0.00    +0.001 C 
ATOM     28  C   UNL     1     -31.841  40.719   5.117  0.00  0.00    +0.112 C 
ATOM     29  C   UNL     1     -31.157  40.010   4.129  0.00  0.00    +0.019 C 
ATOM     30  C   UNL     1     -32.897  41.559   4.768  0.00  0.00    +0.019 C 
BRANCH  28  31
ATOM     31  S   UNL     1     -31.374  40.553   6.792  0.00  0.00    +0.042 S 
ATOM     32  O   UNL     1     -30.106  41.295   6.877  0.00  0.00    -0.065 OA
ATOM     33  O   UNL     1     -32.465  41.155   7.575  0.00  0.00    -0.065 OA
ATOM     34  O   UNL     1     -31.247  39.099   6.980  0.00  0.00    -0.065 OA
ENDBRANCH  28  31
ENDBRANCH   8  25
TORSDOF 4
ENDMDL
MODEL 9
REMARK VINA RESULT:      -6.9      6.523     11.377
REMARK  Name = 5047428
REMARK  4 active torsions:
REMARK  status: ('A' for Active; 'I' for Inactive)
REMARK    1  A    between atoms: C_7  and  C_15
REMARK    2  A    between atoms: C_8  and  C_25
REMARK    3  A    between atoms: C_18  and  S_21
REMARK    4  A    between atoms: C_28  and  S_31
REMARK                            x       y       z     vdW  Elec       q    Type
REMARK                         _______ _______ _______ _____ _____    ______ ____
ROOT
ATOM      1  N   UNL     1     -32.655  32.531   2.484  0.00  0.00    -0.242 NA
ATOM      2  N   UNL     1     -31.542  30.294   3.598  0.00  0.00    -0.242 NA
ATOM      3  C   UNL     1     -34.719  31.357   2.130  0.00  0.00    +0.019 C 
ATOM      4  C   UNL     1     -33.586  29.080   3.263  0.00  0.00    +0.019 C 
ATOM      5  C   UNL     1     -33.384  31.400   2.589  0.00  0.00    +0.099 C 
ATOM      6  C   UNL     1     -32.817  30.260   3.157  0.00  0.00    +0.099 C 
ATOM      7  C   UNL     1     -35.272  32.513   1.562  0.00  0.00    +0.003 C 
ATOM      8  C   UNL     1     -32.998  27.944   3.837  0.00  0.00    +0.003 C 
ATOM      9  C   UNL     1     -35.471  30.184   2.241  0.00  0.00    +0.002 C 
ATOM     10  C   UNL     1     -34.907  29.049   2.806  0.00  0.00    +0.002 C 
ATOM     11  C   UNL     1     -34.516  33.670   1.458  0.00  0.00    +0.021 C 
ATOM     12  C   UNL     1     -31.688  27.987   4.288  0.00  0.00    +0.021 C 
ATOM     13  C   UNL     1     -33.222  33.626   1.931  0.00  0.00    +0.099 C 
ATOM     14  C   UNL     1     -31.009  29.178   4.146  0.00  0.00    +0.099 C 
ENDROOT
BRANCH   7  15
ATOM     15  C   UNL     1     -36.635  32.569   1.061  0.00  0.00    +0.000 C 
ATOM     16  C   UNL     1     -36.890  32.296  -0.279  0.00  0.00    +0.001 C 
ATOM     17  C   UNL     1     -37.676  32.892   1.926  0.00  0.00    +0.001 C 
ATOM     18  C   UNL     1     -39.246  32.674   0.103  0.00  0.00    +0.112 C 
ATOM     19  C   UNL     1     -38.198  32.349  -0.760  0.00  0.00    +0.019 C 
ATOM     20  C   UNL     1     -38.985  32.946   1.446  0.00  0.00    +0.019 C 
BRANCH  18  21
ATOM     21  S   UNL     1     -40.884  32.740  -0.499  0.00  0.00    +0.042 S 
ATOM     22  O   UNL     1     -41.064  34.153  -0.866  0.00  0.00    -0.065 OA
ATOM     23  O   UNL     1     -40.928  31.820  -1.647  0.00  0.00    -0.065 OA
ATOM     24  O   UNL     1     -41.698  32.296   0.644  0.00  0.00    -0.065 OA
ENDBRANCH  18  21
ENDBRANCH   7  15
BRANCH   8  25
ATOM     25  C   UNL     1     -33.708  26.684   3.991  0.00  0.00    +0.000 C 
ATOM     26  C   UNL     1     -34.272  26.355   5.219  0.00  0.00    +0.001 C 
ATOM     27  C   UNL     1     -33.818  25.818   2.908  0.00  0.00    +0.001 C 
ATOM     28  C   UNL     1     -35.065  24.273   4.284  0.00  0.00    +0.112 C 
ATOM     29  C   UNL     1     -34.952  25.146   5.367  0.00  0.00    +0.019 C 
ATOM     30  C   UNL     1     -34.499  24.610   3.055  0.00  0.00    +0.019 C 
BRANCH  28  31
ATOM     31  S   UNL     1     -35.917  22.760   4.468  0.00  0.00    +0.042 S 
ATOM     32  O   UNL     1     -37.222  23.014   3.837  0.00  0.00    -0.065 OA
ATOM     33  O   UNL     1     -35.106  21.754   3.764  0.00  0.00    -0.065 OA
ATOM     34  O   UNL     1     -35.969  22.560   5.925  0.00  0.00    -0.065 OA
ENDBRANCH  28  31
ENDBRANCH   8  25
TORSDOF 4
ENDMDL
