MODEL 1
REMARK VINA RESULT:      -5.3      0.000      0.000
REMARK  Name = 195627
REMARK  7 active torsions:
REMARK  status: ('A' for Active; 'I' for Inactive)
REMARK    1  A    between atoms: C_6  and  C_16
REMARK    2  A    between atoms: C_8  and  S_10
REMARK    3  A    between atoms: S_10  and  N_13
REMARK    4  A    between atoms: C_16  and  C_17
REMARK    5  A    between atoms: C_17  and  C_19
REMARK    6  A    between atoms: C_19  and  O_20
REMARK    7  A    between atoms: O_20  and  C_21
REMARK                            x       y       z     vdW  Elec       q    Type
REMARK                         _______ _______ _______ _____ _____    ______ ____
ROOT
ATOM      1  S   UNL     1     -39.956  25.112   3.259  0.00  0.00    -0.011 S 
ATOM      2  O   UNL     1     -35.641  26.799   3.577  0.00  0.00    -0.275 OA
ATOM      3  N   UNL     1     -37.528  25.530   4.181  0.00  0.00    -0.263 N 
ATOM      4  N   UNL     1     -38.232  26.658   2.162  0.00  0.00    -0.124 NA
ATOM      5  N   UNL     1     -39.360  26.730   1.364  0.00  0.00    -0.119 NA
ATOM      6  C   UNL     1     -36.229  26.014   4.312  0.00  0.00    +0.228 C 
ATOM      7  C   UNL     1     -38.428  25.856   3.164  0.00  0.00    +0.189 A 
ATOM      8  C   UNL     1     -40.332  25.971   1.823  0.00  0.00    +0.256 A 
ATOM      9  H   UNL     1     -37.841  24.899   4.869  0.00  0.00    +0.157 HD
ENDROOT
BRANCH   8  10
ATOM     10  S   UNL     1     -41.906  25.777   1.118  0.00  0.00    +0.081 S 
ATOM     11  O   UNL     1     -42.880  26.068   2.173  0.00  0.00    -0.151 OA
ATOM     12  O   UNL     1     -41.899  26.580  -0.105  0.00  0.00    -0.151 OA
BRANCH  10  13
ATOM     13  N   UNL     1     -42.130  24.128   0.663  0.00  0.00    -0.202 NA
ATOM     14  H   UNL     1     -41.436  23.873  -0.041  0.00  0.00    +0.144 HD
ATOM     15  H   UNL     1     -43.066  24.006   0.278  0.00  0.00    +0.144 HD
ENDBRANCH  10  13
ENDBRANCH   8  10
BRANCH   6  16
ATOM     16  C   UNL     1     -35.568  25.418   5.551  0.00  0.00    +0.097 C 
BRANCH  16  17
ATOM     17  C   UNL     1     -34.847  24.099   5.281  0.00  0.00    +0.119 C 
BRANCH  17  19
ATOM     18  O   UNL     1     -35.801  22.246   6.539  0.00  0.00    -0.250 OA
ATOM     19  C   UNL     1     -35.735  22.893   5.504  0.00  0.00    +0.317 C 
BRANCH  19  20
ATOM     20  O   UNL     1     -36.452  22.657   4.364  0.00  0.00    -0.448 OA
BRANCH  20  21
ATOM     21  C   UNL     1     -35.675  22.431   3.184  0.00  0.00    +0.209 C 
ATOM     22  C   UNL     1     -35.508  20.941   2.981  0.00  0.00    +0.051 C 
ENDBRANCH  20  21
ENDBRANCH  19  20
ENDBRANCH  17  19
ENDBRANCH  16  17
ENDBRANCH   6  16
TORSDOF 7
ENDMDL
MODEL 2
REMARK VINA RESULT:      -5.2      4.704      6.751
REMARK  Name = 195627
REMARK  7 active torsions:
REMARK  status: ('A' for Active; 'I' for Inactive)
REMARK    1  A    between atoms: C_6  and  C_16
REMARK    2  A    between atoms: C_8  and  S_10
REMARK    3  A    between atoms: S_10  and  N_13
REMARK    4  A    between atoms: C_16  and  C_17
REMARK    5  A    between atoms: C_17  and  C_19
REMARK    6  A    between atoms: C_19  and  O_20
REMARK    7  A    between atoms: O_20  and  C_21
REMARK                            x       y       z     vdW  Elec       q    Type
REMARK                         _______ _______ _______ _____ _____    ______ ____
ROOT
ATOM      1  S   UNL     1     -35.055  22.382   1.494  0.00  0.00    -0.011 S 
ATOM      2  O   UNL     1     -35.891  23.013   6.019  0.00  0.00    -0.275 OA
ATOM      3  N   UNL     1     -35.488  23.612   3.779  0.00  0.00    -0.263 N 
ATOM      4  N   UNL     1     -35.453  21.195   3.730  0.00  0.00    -0.124 NA
ATOM      5  N   UNL     1     -35.270  20.188   2.799  0.00  0.00    -0.119 NA
ATOM      6  C   UNL     1     -35.737  23.843   5.129  0.00  0.00    +0.228 C 
ATOM      7  C   UNL     1     -35.363  22.362   3.168  0.00  0.00    +0.189 A 
ATOM      8  C   UNL     1     -35.054  20.670   1.594  0.00  0.00    +0.256 A 
ATOM      9  H   UNL     1     -35.391  24.403   3.202  0.00  0.00    +0.157 HD
ENDROOT
BRANCH   8  10
ATOM     10  S   UNL     1     -34.778  19.747   0.151  0.00  0.00    +0.081 S 
ATOM     11  O   UNL     1     -35.916  19.999  -0.737  0.00  0.00    -0.151 OA
ATOM     12  O   UNL     1     -33.425  20.087  -0.290  0.00  0.00    -0.151 OA
BRANCH  10  13
ATOM     13  N   UNL     1     -34.799  18.065   0.535  0.00  0.00    -0.202 NA
ATOM     14  H   UNL     1     -35.338  17.562  -0.170  0.00  0.00    +0.144 HD
ATOM     15  H   UNL     1     -35.229  17.931   1.451  0.00  0.00    +0.144 HD
ENDBRANCH  10  13
ENDBRANCH   8  10
BRANCH   6  16
ATOM     16  C   UNL     1     -35.807  25.342   5.403  0.00  0.00    +0.097 C 
BRANCH  16  17
ATOM     17  C   UNL     1     -34.529  25.907   6.019  0.00  0.00    +0.119 C 
BRANCH  17  19
ATOM     18  O   UNL     1     -33.227  25.892   3.961  0.00  0.00    -0.250 OA
ATOM     19  C   UNL     1     -33.580  26.468   4.981  0.00  0.00    +0.317 C 
BRANCH  19  20
ATOM     20  O   UNL     1     -33.192  27.720   5.368  0.00  0.00    -0.448 OA
BRANCH  20  21
ATOM     21  C   UNL     1     -32.234  27.768   6.430  0.00  0.00    +0.209 C 
ATOM     22  C   UNL     1     -31.767  29.196   6.608  0.00  0.00    +0.051 C 
ENDBRANCH  20  21
ENDBRANCH  19  20
ENDBRANCH  17  19
ENDBRANCH  16  17
ENDBRANCH   6  16
TORSDOF 7
ENDMDL
MODEL 3
REMARK VINA RESULT:      -5.2      4.293      6.460
REMARK  Name = 195627
REMARK  7 active torsions:
REMARK  status: ('A' for Active; 'I' for Inactive)
REMARK    1  A    between atoms: C_6  and  C_16
REMARK    2  A    between atoms: C_8  and  S_10
REMARK    3  A    between atoms: S_10  and  N_13
REMARK    4  A    between atoms: C_16  and  C_17
REMARK    5  A    between atoms: C_17  and  C_19
REMARK    6  A    between atoms: C_19  and  O_20
REMARK    7  A    between atoms: O_20  and  C_21
REMARK                            x       y       z     vdW  Elec       q    Type
REMARK                         _______ _______ _______ _____ _____    ______ ____
ROOT
ATOM      1  S   UNL     1     -35.338  26.860   3.356  0.00  0.00    -0.011 S 
ATOM      2  O   UNL     1     -32.631  26.826   7.129  0.00  0.00    -0.275 OA
ATOM      3  N   UNL     1     -33.350  27.446   4.976  0.00  0.00    -0.263 N 
ATOM      4  N   UNL     1     -35.022  25.853   5.691  0.00  0.00    -0.124 NA
ATOM      5  N   UNL     1     -36.177  25.279   5.190  0.00  0.00    -0.119 NA
ATOM      6  C   UNL     1     -32.512  27.463   6.088  0.00  0.00    +0.228 C 
ATOM      7  C   UNL     1     -34.510  26.681   4.832  0.00  0.00    +0.189 A 
ATOM      8  C   UNL     1     -36.456  25.718   3.980  0.00  0.00    +0.256 A 
ATOM      9  H   UNL     1     -33.102  28.026   4.221  0.00  0.00    +0.157 HD
ENDROOT
BRANCH   8  10
ATOM     10  S   UNL     1     -37.811  25.251   3.003  0.00  0.00    +0.081 S 
ATOM     11  O   UNL     1     -37.399  25.409   1.606  0.00  0.00    -0.151 OA
ATOM     12  O   UNL     1     -38.225  23.937   3.493  0.00  0.00    -0.151 OA
BRANCH  10  13
ATOM     13  N   UNL     1     -39.115  26.348   3.273  0.00  0.00    -0.202 NA
ATOM     14  H   UNL     1     -39.529  26.610   2.378  0.00  0.00    +0.144 HD
ATOM     15  H   UNL     1     -38.765  27.182   3.744  0.00  0.00    +0.144 HD
ENDBRANCH  10  13
ENDBRANCH   8  10
BRANCH   6  16
ATOM     16  C   UNL     1     -31.354  28.429   5.860  0.00  0.00    +0.097 C 
BRANCH  16  17
ATOM     17  C   UNL     1     -31.615  29.831   6.406  0.00  0.00    +0.119 C 
BRANCH  17  19
ATOM     18  O   UNL     1     -31.161  31.703   4.917  0.00  0.00    -0.250 OA
ATOM     19  C   UNL     1     -31.924  30.834   5.315  0.00  0.00    +0.317 C 
BRANCH  19  20
ATOM     20  O   UNL     1     -33.187  30.601   4.848  0.00  0.00    -0.448 OA
BRANCH  20  21
ATOM     21  C   UNL     1     -33.404  30.927   3.471  0.00  0.00    +0.209 C 
ATOM     22  C   UNL     1     -34.878  30.788   3.158  0.00  0.00    +0.051 C 
ENDBRANCH  20  21
ENDBRANCH  19  20
ENDBRANCH  17  19
ENDBRANCH  16  17
ENDBRANCH   6  16
TORSDOF 7
ENDMDL
MODEL 4
REMARK VINA RESULT:      -5.2      4.068      5.471
REMARK  Name = 195627
REMARK  7 active torsions:
REMARK  status: ('A' for Active; 'I' for Inactive)
REMARK    1  A    between atoms: C_6  and  C_16
REMARK    2  A    between atoms: C_8  and  S_10
REMARK    3  A    between atoms: S_10  and  N_13
REMARK    4  A    between atoms: C_16  and  C_17
REMARK    5  A    between atoms: C_17  and  C_19
REMARK    6  A    between atoms: C_19  and  O_20
REMARK    7  A    between atoms: O_20  and  C_21
REMARK                            x       y       z     vdW  Elec       q    Type
REMARK                         _______ _______ _______ _____ _____    ______ ____
ROOT
ATOM      1  S   UNL     1     -35.546  21.779   1.531  0.00  0.00    -0.011 S 
ATOM      2  O   UNL     1     -38.580  24.507   3.750  0.00  0.00    -0.275 OA
ATOM      3  N   UNL     1     -36.493  23.799   2.926  0.00  0.00    -0.263 N 
ATOM      4  N   UNL     1     -38.009  22.072   2.176  0.00  0.00    -0.124 NA
ATOM      5  N   UNL     1     -37.949  20.892   1.456  0.00  0.00    -0.119 NA
ATOM      6  C   UNL     1     -37.370  24.643   3.601  0.00  0.00    +0.228 C 
ATOM      7  C   UNL     1     -36.832  22.611   2.275  0.00  0.00    +0.189 A 
ATOM      8  C   UNL     1     -36.723  20.623   1.060  0.00  0.00    +0.256 A 
ATOM      9  H   UNL     1     -35.545  24.065   2.904  0.00  0.00    +0.157 HD
ENDROOT
BRANCH   8  10
ATOM     10  S   UNL     1     -36.219  19.244   0.135  0.00  0.00    +0.081 S 
ATOM     11  O   UNL     1     -36.456  19.570  -1.273  0.00  0.00    -0.151 OA
ATOM     12  O   UNL     1     -34.864  18.930   0.590  0.00  0.00    -0.151 OA
BRANCH  10  13
ATOM     13  N   UNL     1     -37.227  17.898   0.520  0.00  0.00    -0.202 NA
ATOM     14  H   UNL     1     -36.832  17.393   1.314  0.00  0.00    +0.144 HD
ATOM     15  H   UNL     1     -37.284  17.275  -0.285  0.00  0.00    +0.144 HD
ENDBRANCH  10  13
ENDBRANCH   8  10
BRANCH   6  16
ATOM     16  C   UNL     1     -36.615  25.839   4.173  0.00  0.00    +0.097 C 
BRANCH  16  17
ATOM     17  C   UNL     1     -35.935  25.546   5.508  0.00  0.00    +0.119 C 
BRANCH  17  19
ATOM     18  O   UNL     1     -33.531  25.910   5.369  0.00  0.00    -0.250 OA
ATOM     19  C   UNL     1     -34.484  25.144   5.348  0.00  0.00    +0.317 C 
BRANCH  19  20
ATOM     20  O   UNL     1     -34.418  23.788   5.184  0.00  0.00    -0.448 OA
BRANCH  20  21
ATOM     21  C   UNL     1     -35.217  23.019   6.088  0.00  0.00    +0.209 C 
ATOM     22  C   UNL     1     -35.155  21.562   5.683  0.00  0.00    +0.051 C 
ENDBRANCH  20  21
ENDBRANCH  19  20
ENDBRANCH  17  19
ENDBRANCH  16  17
ENDBRANCH   6  16
TORSDOF 7
ENDMDL
MODEL 5
REMARK VINA RESULT:      -5.2      5.148      7.934
REMARK  Name = 195627
REMARK  7 active torsions:
REMARK  status: ('A' for Active; 'I' for Inactive)
REMARK    1  A    between atoms: C_6  and  C_16
REMARK    2  A    between atoms: C_8  and  S_10
REMARK    3  A    between atoms: S_10  and  N_13
REMARK    4  A    between atoms: C_16  and  C_17
REMARK    5  A    between atoms: C_17  and  C_19
REMARK    6  A    between atoms: C_19  and  O_20
REMARK    7  A    between atoms: O_20  and  C_21
REMARK                            x       y       z     vdW  Elec       q    Type
REMARK                         _______ _______ _______ _____ _____    ______ ____
ROOT
ATOM      1  S   UNL     1     -32.212  28.006   4.200  0.00  0.00    -0.011 S 
ATOM      2  O   UNL     1     -35.926  25.752   5.841  0.00  0.00    -0.275 OA
ATOM      3  N   UNL     1     -34.577  26.856   4.260  0.00  0.00    -0.263 N 
ATOM      4  N   UNL     1     -33.242  26.910   6.274  0.00  0.00    -0.124 NA
ATOM      5  N   UNL     1     -32.007  27.386   6.677  0.00  0.00    -0.119 NA
ATOM      6  C   UNL     1     -35.708  26.183   4.714  0.00  0.00    +0.228 C 
ATOM      7  C   UNL     1     -33.450  27.174   5.020  0.00  0.00    +0.189 A 
ATOM      8  C   UNL     1     -31.366  27.979   5.692  0.00  0.00    +0.256 A 
ATOM      9  H   UNL     1     -34.571  27.132   3.315  0.00  0.00    +0.157 HD
ENDROOT
BRANCH   8  10
ATOM     10  S   UNL     1     -29.794  28.708   5.777  0.00  0.00    +0.081 S 
ATOM     11  O   UNL     1     -28.825  27.665   5.430  0.00  0.00    -0.151 OA
ATOM     12  O   UNL     1     -29.872  29.925   4.969  0.00  0.00    -0.151 OA
BRANCH  10  13
ATOM     13  N   UNL     1     -29.470  29.178   7.405  0.00  0.00    -0.202 NA
ATOM     14  H   UNL     1     -30.168  29.858   7.708  0.00  0.00    +0.144 HD
ATOM     15  H   UNL     1     -28.541  29.598   7.459  0.00  0.00    +0.144 HD
ENDBRANCH  10  13
ENDBRANCH   8  10
BRANCH   6  16
ATOM     16  C   UNL     1     -36.717  26.026   3.580  0.00  0.00    +0.097 C 
BRANCH  16  17
ATOM     17  C   UNL     1     -37.337  24.632   3.508  0.00  0.00    +0.119 C 
BRANCH  17  19
ATOM     18  O   UNL     1     -35.407  23.553   2.490  0.00  0.00    -0.250 OA
ATOM     19  C   UNL     1     -36.304  23.543   3.322  0.00  0.00    +0.317 C 
BRANCH  19  20
ATOM     20  O   UNL     1     -36.534  22.555   4.238  0.00  0.00    -0.448 OA
BRANCH  20  21
ATOM     21  C   UNL     1     -35.366  21.991   4.843  0.00  0.00    +0.209 C 
ATOM     22  C   UNL     1     -35.412  22.246   6.334  0.00  0.00    +0.051 C 
ENDBRANCH  20  21
ENDBRANCH  19  20
ENDBRANCH  17  19
ENDBRANCH  16  17
ENDBRANCH   6  16
TORSDOF 7
ENDMDL
MODEL 6
REMARK VINA RESULT:      -5.1      3.976      6.674
REMARK  Name = 195627
REMARK  7 active torsions:
REMARK  status: ('A' for Active; 'I' for Inactive)
REMARK    1  A    between atoms: C_6  and  C_16
REMARK    2  A    between atoms: C_8  and  S_10
REMARK    3  A    between atoms: S_10  and  N_13
REMARK    4  A    between atoms: C_16  and  C_17
REMARK    5  A    between atoms: C_17  and  C_19
REMARK    6  A    between atoms: C_19  and  O_20
REMARK    7  A    between atoms: O_20  and  C_21
REMARK                            x       y       z     vdW  Elec       q    Type
REMARK                         _______ _______ _______ _____ _____    ______ ____
ROOT
ATOM      1  S   UNL     1     -33.939  26.390   5.183  0.00  0.00    -0.011 S 
ATOM      2  O   UNL     1     -37.588  26.780   2.336  0.00  0.00    -0.275 OA
ATOM      3  N   UNL     1     -36.232  25.841   4.015  0.00  0.00    -0.263 N 
ATOM      4  N   UNL     1     -35.003  27.809   3.333  0.00  0.00    -0.124 NA
ATOM      5  N   UNL     1     -33.819  28.446   3.659  0.00  0.00    -0.119 NA
ATOM      6  C   UNL     1     -37.341  25.922   3.178  0.00  0.00    +0.228 C 
ATOM      7  C   UNL     1     -35.165  26.742   4.055  0.00  0.00    +0.189 A 
ATOM      8  C   UNL     1     -33.167  27.810   4.609  0.00  0.00    +0.256 A 
ATOM      9  H   UNL     1     -36.196  25.079   4.636  0.00  0.00    +0.157 HD
ENDROOT
BRANCH   8  10
ATOM     10  S   UNL     1     -31.646  28.276   5.303  0.00  0.00    +0.081 S 
ATOM     11  O   UNL     1     -30.604  27.831   4.375  0.00  0.00    -0.151 OA
ATOM     12  O   UNL     1     -31.772  29.698   5.626  0.00  0.00    -0.151 OA
BRANCH  10  13
ATOM     13  N   UNL     1     -31.407  27.420   6.782  0.00  0.00    -0.202 NA
ATOM     14  H   UNL     1     -31.555  28.053   7.568  0.00  0.00    +0.144 HD
ATOM     15  H   UNL     1     -30.454  27.057   6.813  0.00  0.00    +0.144 HD
ENDBRANCH  10  13
ENDBRANCH   8  10
BRANCH   6  16
ATOM     16  C   UNL     1     -38.284  24.752   3.440  0.00  0.00    +0.097 C 
BRANCH  16  17
ATOM     17  C   UNL     1     -38.007  23.539   2.556  0.00  0.00    +0.119 C 
BRANCH  17  19
ATOM     18  O   UNL     1     -35.923  22.344   2.158  0.00  0.00    -0.250 OA
ATOM     19  C   UNL     1     -36.734  22.815   2.942  0.00  0.00    +0.317 C 
BRANCH  19  20
ATOM     20  O   UNL     1     -36.641  22.784   4.306  0.00  0.00    -0.448 OA
BRANCH  20  21
ATOM     21  C   UNL     1     -35.365  22.400   4.827  0.00  0.00    +0.209 C 
ATOM     22  C   UNL     1     -35.485  22.193   6.321  0.00  0.00    +0.051 C 
ENDBRANCH  20  21
ENDBRANCH  19  20
ENDBRANCH  17  19
ENDBRANCH  16  17
ENDBRANCH   6  16
TORSDOF 7
ENDMDL
MODEL 7
REMARK VINA RESULT:      -5.1      4.210      6.037
REMARK  Name = 195627
REMARK  7 active torsions:
REMARK  status: ('A' for Active; 'I' for Inactive)
REMARK    1  A    between atoms: C_6  and  C_16
REMARK    2  A    between atoms: C_8  and  S_10
REMARK    3  A    between atoms: S_10  and  N_13
REMARK    4  A    between atoms: C_16  and  C_17
REMARK    5  A    between atoms: C_17  and  C_19
REMARK    6  A    between atoms: C_19  and  O_20
REMARK    7  A    between atoms: O_20  and  C_21
REMARK                            x       y       z     vdW  Elec       q    Type
REMARK                         _______ _______ _______ _____ _____    ______ ____
ROOT
ATOM      1  S   UNL     1     -35.252  22.915   2.847  0.00  0.00    -0.011 S 
ATOM      2  O   UNL     1     -36.018  26.286   5.949  0.00  0.00    -0.275 OA
ATOM      3  N   UNL     1     -34.773  24.880   4.530  0.00  0.00    -0.263 N 
ATOM      4  N   UNL     1     -37.053  24.151   4.187  0.00  0.00    -0.124 NA
ATOM      5  N   UNL     1     -37.728  23.204   3.437  0.00  0.00    -0.119 NA
ATOM      6  C   UNL     1     -34.961  25.898   5.461  0.00  0.00    +0.228 C 
ATOM      7  C   UNL     1     -35.776  24.090   3.962  0.00  0.00    +0.189 A 
ATOM      8  C   UNL     1     -36.907  22.492   2.694  0.00  0.00    +0.256 A 
ATOM      9  H   UNL     1     -33.849  24.701   4.246  0.00  0.00    +0.157 HD
ENDROOT
BRANCH   8  10
ATOM     10  S   UNL     1     -37.348  21.209   1.613  0.00  0.00    +0.081 S 
ATOM     11  O   UNL     1     -38.810  21.216   1.522  0.00  0.00    -0.151 OA
ATOM     12  O   UNL     1     -36.544  21.408   0.407  0.00  0.00    -0.151 OA
BRANCH  10  13
ATOM     13  N   UNL     1     -36.891  19.696   2.306  0.00  0.00    -0.202 NA
ATOM     14  H   UNL     1     -37.250  18.936   1.728  0.00  0.00    +0.144 HD
ATOM     15  H   UNL     1     -37.281  19.621   3.246  0.00  0.00    +0.144 HD
ENDBRANCH  10  13
ENDBRANCH   8  10
BRANCH   6  16
ATOM     16  C   UNL     1     -33.621  26.524   5.835  0.00  0.00    +0.097 C 
BRANCH  16  17
ATOM     17  C   UNL     1     -33.007  27.358   4.713  0.00  0.00    +0.119 C 
BRANCH  17  19
ATOM     18  O   UNL     1     -32.479  29.637   5.389  0.00  0.00    -0.250 OA
ATOM     19  C   UNL     1     -32.128  28.476   5.231  0.00  0.00    +0.317 C 
BRANCH  19  20
ATOM     20  O   UNL     1     -30.886  27.972   5.499  0.00  0.00    -0.448 OA
BRANCH  20  21
ATOM     21  C   UNL     1     -29.814  28.918   5.451  0.00  0.00    +0.209 C 
ATOM     22  C   UNL     1     -29.320  29.176   6.858  0.00  0.00    +0.051 C 
ENDBRANCH  20  21
ENDBRANCH  19  20
ENDBRANCH  17  19
ENDBRANCH  16  17
ENDBRANCH   6  16
TORSDOF 7
ENDMDL
MODEL 8
REMARK VINA RESULT:      -5.1      4.453      5.966
REMARK  Name = 195627
REMARK  7 active torsions:
REMARK  status: ('A' for Active; 'I' for Inactive)
REMARK    1  A    between atoms: C_6  and  C_16
REMARK    2  A    between atoms: C_8  and  S_10
REMARK    3  A    between atoms: S_10  and  N_13
REMARK    4  A    between atoms: C_16  and  C_17
REMARK    5  A    between atoms: C_17  and  C_19
REMARK    6  A    between atoms: C_19  and  O_20
REMARK    7  A    between atoms: O_20  and  C_21
REMARK                            x       y       z     vdW  Elec       q    Type
REMARK                         _______ _______ _______ _____ _____    ______ ____
ROOT
ATOM      1  S   UNL     1     -35.219  20.392   2.218  0.00  0.00    -0.011 S 
ATOM      2  O   UNL     1     -37.355  24.049   4.125  0.00  0.00    -0.275 OA
ATOM      3  N   UNL     1     -35.676  22.428   3.821  0.00  0.00    -0.263 N 
ATOM      4  N   UNL     1     -37.296  21.889   2.109  0.00  0.00    -0.124 NA
ATOM      5  N   UNL     1     -37.455  20.954   1.101  0.00  0.00    -0.119 NA
ATOM      6  C   UNL     1     -36.284  23.528   4.420  0.00  0.00    +0.228 C 
ATOM      7  C   UNL     1     -36.181  21.694   2.745  0.00  0.00    +0.189 A 
ATOM      8  C   UNL     1     -36.443  20.115   1.049  0.00  0.00    +0.256 A 
ATOM      9  H   UNL     1     -34.809  22.142   4.188  0.00  0.00    +0.157 HD
ENDROOT
BRANCH   8  10
ATOM     10  S   UNL     1     -36.254  18.798  -0.065  0.00  0.00    +0.081 S 
ATOM     11  O   UNL     1     -36.686  19.289  -1.376  0.00  0.00    -0.151 OA
ATOM     12  O   UNL     1     -34.885  18.315   0.114  0.00  0.00    -0.151 OA
BRANCH  10  13
ATOM     13  N   UNL     1     -37.325  17.519   0.375  0.00  0.00    -0.202 NA
ATOM     14  H   UNL     1     -38.172  17.911   0.784  0.00  0.00    +0.144 HD
ATOM     15  H   UNL     1     -36.867  16.912   1.056  0.00  0.00    +0.144 HD
ENDBRANCH  10  13
ENDBRANCH   8  10
BRANCH   6  16
ATOM     16  C   UNL     1     -35.416  24.054   5.559  0.00  0.00    +0.097 C 
BRANCH  16  17
ATOM     17  C   UNL     1     -35.359  25.578   5.625  0.00  0.00    +0.119 C 
BRANCH  17  19
ATOM     18  O   UNL     1     -33.444  26.973   6.187  0.00  0.00    -0.250 OA
ATOM     19  C   UNL     1     -33.952  26.116   5.477  0.00  0.00    +0.317 C 
BRANCH  19  20
ATOM     20  O   UNL     1     -33.345  25.482   4.429  0.00  0.00    -0.448 OA
BRANCH  20  21
ATOM     21  C   UNL     1     -33.449  26.144   3.164  0.00  0.00    +0.209 C 
ATOM     22  C   UNL     1     -33.803  25.125   2.102  0.00  0.00    +0.051 C 
ENDBRANCH  20  21
ENDBRANCH  19  20
ENDBRANCH  17  19
ENDBRANCH  16  17
ENDBRANCH   6  16
TORSDOF 7
ENDMDL
MODEL 9
REMARK VINA RESULT:      -5.1      5.232      6.919
REMARK  Name = 195627
REMARK  7 active torsions:
REMARK  status: ('A' for Active; 'I' for Inactive)
REMARK    1  A    between atoms: C_6  and  C_16
REMARK    2  A    between atoms: C_8  and  S_10
REMARK    3  A    between atoms: S_10  and  N_13
REMARK    4  A    between atoms: C_16  and  C_17
REMARK    5  A    between atoms: C_17  and  C_19
REMARK    6  A    between atoms: C_19  and  O_20
REMARK    7  A    between atoms: O_20  and  C_21
REMARK                            x       y       z     vdW  Elec       q    Type
REMARK                         _______ _______ _______ _____ _____    ______ ____
ROOT
ATOM      1  S   UNL     1     -34.436  25.294   5.501  0.00  0.00    -0.011 S 
ATOM      2  O   UNL     1     -32.609  29.484   4.681  0.00  0.00    -0.275 OA
ATOM      3  N   UNL     1     -32.947  27.442   5.801  0.00  0.00    -0.263 N 
ATOM      4  N   UNL     1     -34.462  27.312   3.921  0.00  0.00    -0.124 NA
ATOM      5  N   UNL     1     -35.384  26.419   3.403  0.00  0.00    -0.119 NA
ATOM      6  C   UNL     1     -32.376  28.694   5.590  0.00  0.00    +0.228 C 
ATOM      7  C   UNL     1     -33.916  26.835   4.998  0.00  0.00    +0.189 A 
ATOM      8  C   UNL     1     -35.467  25.325   4.131  0.00  0.00    +0.256 A 
ATOM      9  H   UNL     1     -32.640  26.938   6.588  0.00  0.00    +0.157 HD
ENDROOT
BRANCH   8  10
ATOM     10  S   UNL     1     -36.499  23.964   3.827  0.00  0.00    +0.081 S 
ATOM     11  O   UNL     1     -37.878  24.435   3.982  0.00  0.00    -0.151 OA
ATOM     12  O   UNL     1     -36.062  23.408   2.546  0.00  0.00    -0.151 OA
BRANCH  10  13
ATOM     13  N   UNL     1     -36.234  22.764   5.039  0.00  0.00    -0.202 NA
ATOM     14  H   UNL     1     -37.026  22.122   5.059  0.00  0.00    +0.144 HD
ATOM     15  H   UNL     1     -36.140  23.216   5.948  0.00  0.00    +0.144 HD
ENDBRANCH  10  13
ENDBRANCH   8  10
BRANCH   6  16
ATOM     16  C   UNL     1     -31.357  28.999   6.683  0.00  0.00    +0.097 C 
BRANCH  16  17
ATOM     17  C   UNL     1     -29.945  29.229   6.150  0.00  0.00    +0.119 C 
BRANCH  17  19
ATOM     18  O   UNL     1     -29.089  27.667   4.491  0.00  0.00    -0.250 OA
ATOM     19  C   UNL     1     -29.290  27.955   5.662  0.00  0.00    +0.317 C 
BRANCH  19  20
ATOM     20  O   UNL     1     -28.955  27.189   6.744  0.00  0.00    -0.448 OA
BRANCH  20  21
ATOM     21  C   UNL     1     -27.635  27.393   7.258  0.00  0.00    +0.209 C 
ATOM     22  C   UNL     1     -26.957  26.050   7.422  0.00  0.00    +0.051 C 
ENDBRANCH  20  21
ENDBRANCH  19  20
ENDBRANCH  17  19
ENDBRANCH  16  17
ENDBRANCH   6  16
TORSDOF 7
ENDMDL
