MODEL 1
REMARK VINA RESULT:      -6.6      0.000      0.000
REMARK  Name = 5489997
REMARK  10 active torsions:
REMARK  status: ('A' for Active; 'I' for Inactive)
REMARK    1  A    between atoms: C_4  and  C_21
REMARK    2  A    between atoms: C_5  and  C_7
REMARK    3  A    between atoms: C_7  and  N_9
REMARK    4  A    between atoms: N_9  and  C_11
REMARK    5  A    between atoms: C_21  and  N_22
REMARK    6  A    between atoms: C_21  and  C_26
REMARK    7  A    between atoms: C_26  and  C_27
REMARK    8  A    between atoms: C_27  and  C_28
REMARK    9  A    between atoms: C_28  and  C_29
REMARK   10  A    between atoms: C_29  and  N_30
REMARK                            x       y       z     vdW  Elec       q    Type
REMARK                         _______ _______ _______ _____ _____    ______ ____
ROOT
ATOM      1  O   UNL     1     -40.667  33.741   1.269  0.00  0.00    -0.277 OA
ATOM      2  O   UNL     1     -43.103  32.375   1.062  0.00  0.00    -0.273 OA
ATOM      3  N   UNL     1     -42.700  34.351   2.232  0.00  0.00    -0.256 N 
ATOM      4  C   UNL     1     -41.341  34.508   1.954  0.00  0.00    +0.208 C 
ATOM      5  C   UNL     1     -43.494  33.298   1.771  0.00  0.00    +0.246 C 
ATOM      6  H   UNL     1     -43.131  35.034   2.795  0.00  0.00    +0.157 HD
ENDROOT
BRANCH   5   7
ATOM      7  C   UNL     1     -44.934  33.423   2.247  0.00  0.00    +0.147 C 
ATOM      8  C   UNL     1     -45.766  34.306   1.328  0.00  0.00    +0.031 C 
BRANCH   7   9
ATOM      9  N   UNL     1     -44.915  34.000   3.573  0.00  0.00    -0.327 N 
ATOM     10  H   UNL     1     -44.646  34.942   3.667  0.00  0.00    +0.147 HD
BRANCH   9  11
ATOM     11  C   UNL     1     -45.257  33.300   4.718  0.00  0.00    +0.045 C 
ATOM     12  C   UNL     1     -44.692  31.671   6.433  0.00  0.00    +0.001 C 
ATOM     13  C   UNL     1     -44.358  32.390   5.273  0.00  0.00    +0.014 C 
ATOM     14  C   UNL     1     -45.954  31.880   7.038  0.00  0.00    +0.000 C 
ATOM     15  C   UNL     1     -46.498  33.505   5.313  0.00  0.00    +0.014 C 
ATOM     16  C   UNL     1     -46.845  32.801   6.466  0.00  0.00    +0.001 C 
ATOM     17  C   UNL     1     -43.799  30.750   7.006  0.00  0.00    +0.000 C 
ATOM     18  C   UNL     1     -46.286  31.161   8.199  0.00  0.00    +0.000 C 
ATOM     19  C   UNL     1     -44.146  30.045   8.158  0.00  0.00    +0.000 C 
ATOM     20  C   UNL     1     -45.387  30.249   8.753  0.00  0.00    +0.000 C 
ENDBRANCH   9  11
ENDBRANCH   7   9
ENDBRANCH   5   7
BRANCH   4  21
ATOM     21  C   UNL     1     -40.759  35.768   2.584  0.00  0.00    +0.013 C 
BRANCH  21  22
ATOM     22  N   UNL     1     -41.483  35.977   3.841  0.00  0.00    +0.387 N 
ATOM     23  H   UNL     1     -42.483  36.032   3.651  0.00  0.00    -0.089 HD
ATOM     24  H   UNL     1     -41.170  36.845   4.273  0.00  0.00    -0.089 HD
ATOM     25  H   UNL     1     -41.300  35.196   4.472  0.00  0.00    -0.089 HD
ENDBRANCH  21  22
BRANCH  21  26
ATOM     26  C   UNL     1     -39.256  35.608   2.850  0.00  0.00    -0.013 C 
BRANCH  26  27
ATOM     27  C   UNL     1     -38.344  36.221   1.777  0.00  0.00    -0.004 C 
BRANCH  27  28
ATOM     28  C   UNL     1     -37.388  35.208   1.139  0.00  0.00    -0.024 C 
BRANCH  28  29
ATOM     29  C   UNL     1     -37.556  35.106  -0.380  0.00  0.00    -0.086 C 
BRANCH  29  30
ATOM     30  N   UNL     1     -38.542  34.097  -0.750  0.00  0.00    +0.380 N 
ATOM     31  H   UNL     1     -39.166  33.927   0.038  0.00  0.00    -0.089 HD
ATOM     32  H   UNL     1     -38.064  33.230  -0.998  0.00  0.00    -0.089 HD
ATOM     33  H   UNL     1     -39.083  34.427  -1.549  0.00  0.00    -0.089 HD
ENDBRANCH  29  30
ENDBRANCH  28  29
ENDBRANCH  27  28
ENDBRANCH  26  27
ENDBRANCH  21  26
ENDBRANCH   4  21
TORSDOF 10
ENDMDL
MODEL 2
REMARK VINA RESULT:      -6.5     14.302     16.229
REMARK  Name = 5489997
REMARK  10 active torsions:
REMARK  status: ('A' for Active; 'I' for Inactive)
REMARK    1  A    between atoms: C_4  and  C_21
REMARK    2  A    between atoms: C_5  and  C_7
REMARK    3  A    between atoms: C_7  and  N_9
REMARK    4  A    between atoms: N_9  and  C_11
REMARK    5  A    between atoms: C_21  and  N_22
REMARK    6  A    between atoms: C_21  and  C_26
REMARK    7  A    between atoms: C_26  and  C_27
REMARK    8  A    between atoms: C_27  and  C_28
REMARK    9  A    between atoms: C_28  and  C_29
REMARK   10  A    between atoms: C_29  and  N_30
REMARK                            x       y       z     vdW  Elec       q    Type
REMARK                         _______ _______ _______ _____ _____    ______ ____
ROOT
ATOM      1  O   UNL     1     -35.421  22.947   5.667  0.00  0.00    -0.277 OA
ATOM      2  O   UNL     1     -35.235  20.625   4.113  0.00  0.00    -0.273 OA
ATOM      3  N   UNL     1     -35.908  22.739   3.397  0.00  0.00    -0.256 N 
ATOM      4  C   UNL     1     -35.790  23.436   4.601  0.00  0.00    +0.208 C 
ATOM      5  C   UNL     1     -35.625  21.382   3.228  0.00  0.00    +0.246 C 
ATOM      6  H   UNL     1     -36.215  23.242   2.609  0.00  0.00    +0.157 HD
ENDROOT
BRANCH   5   7
ATOM      7  C   UNL     1     -35.851  20.930   1.792  0.00  0.00    +0.147 C 
ATOM      8  C   UNL     1     -37.320  20.652   1.505  0.00  0.00    +0.031 C 
BRANCH   7   9
ATOM      9  N   UNL     1     -35.087  19.722   1.580  0.00  0.00    -0.327 N 
ATOM     10  H   UNL     1     -35.506  18.861   1.805  0.00  0.00    +0.147 HD
BRANCH   9  11
ATOM     11  C   UNL     1     -33.796  19.710   1.078  0.00  0.00    +0.045 C 
ATOM     12  C   UNL     1     -31.634  18.619   0.861  0.00  0.00    +0.001 C 
ATOM     13  C   UNL     1     -32.946  18.643   1.362  0.00  0.00    +0.014 C 
ATOM     14  C   UNL     1     -31.179  19.692   0.058  0.00  0.00    +0.000 C 
ATOM     15  C   UNL     1     -33.349  20.766   0.288  0.00  0.00    +0.014 C 
ATOM     16  C   UNL     1     -32.050  20.757  -0.219  0.00  0.00    +0.001 C 
ATOM     17  C   UNL     1     -30.763  17.551   1.138  0.00  0.00    +0.000 C 
ATOM     18  C   UNL     1     -29.868  19.666  -0.444  0.00  0.00    +0.000 C 
ATOM     19  C   UNL     1     -29.463  17.543   0.631  0.00  0.00    +0.000 C 
ATOM     20  C   UNL     1     -29.016  18.599  -0.157  0.00  0.00    +0.000 C 
ENDBRANCH   9  11
ENDBRANCH   7   9
ENDBRANCH   5   7
BRANCH   4  21
ATOM     21  C   UNL     1     -36.153  24.910   4.459  0.00  0.00    +0.013 C 
BRANCH  21  22
ATOM     22  N   UNL     1     -37.616  24.981   4.481  0.00  0.00    +0.387 N 
ATOM     23  H   UNL     1     -37.997  24.067   4.723  0.00  0.00    -0.089 HD
ATOM     24  H   UNL     1     -37.957  25.259   3.561  0.00  0.00    -0.089 HD
ATOM     25  H   UNL     1     -37.913  25.668   5.175  0.00  0.00    -0.089 HD
ENDBRANCH  21  22
BRANCH  21  26
ATOM     26  C   UNL     1     -35.558  25.737   5.607  0.00  0.00    -0.013 C 
BRANCH  26  27
ATOM     27  C   UNL     1     -34.187  26.362   5.305  0.00  0.00    -0.004 C 
BRANCH  27  28
ATOM     28  C   UNL     1     -33.342  26.609   6.559  0.00  0.00    -0.024 C 
BRANCH  28  29
ATOM     29  C   UNL     1     -32.271  27.684   6.352  0.00  0.00    -0.086 C 
BRANCH  29  30
ATOM     30  N   UNL     1     -32.556  28.520   5.192  0.00  0.00    +0.380 N 
ATOM     31  H   UNL     1     -33.032  29.369   5.494  0.00  0.00    -0.089 HD
ATOM     32  H   UNL     1     -33.156  28.008   4.544  0.00  0.00    -0.089 HD
ATOM     33  H   UNL     1     -31.683  28.765   4.726  0.00  0.00    -0.089 HD
ENDBRANCH  29  30
ENDBRANCH  28  29
ENDBRANCH  27  28
ENDBRANCH  26  27
ENDBRANCH  21  26
ENDBRANCH   4  21
TORSDOF 10
ENDMDL
MODEL 3
REMARK VINA RESULT:      -6.5     12.210     13.959
REMARK  Name = 5489997
REMARK  10 active torsions:
REMARK  status: ('A' for Active; 'I' for Inactive)
REMARK    1  A    between atoms: C_4  and  C_21
REMARK    2  A    between atoms: C_5  and  C_7
REMARK    3  A    between atoms: C_7  and  N_9
REMARK    4  A    between atoms: N_9  and  C_11
REMARK    5  A    between atoms: C_21  and  N_22
REMARK    6  A    between atoms: C_21  and  C_26
REMARK    7  A    between atoms: C_26  and  C_27
REMARK    8  A    between atoms: C_27  and  C_28
REMARK    9  A    between atoms: C_28  and  C_29
REMARK   10  A    between atoms: C_29  and  N_30
REMARK                            x       y       z     vdW  Elec       q    Type
REMARK                         _______ _______ _______ _____ _____    ______ ____
ROOT
ATOM      1  O   UNL     1     -39.121  19.471  -0.384  0.00  0.00    -0.277 OA
ATOM      2  O   UNL     1     -36.438  18.864   0.144  0.00  0.00    -0.273 OA
ATOM      3  N   UNL     1     -37.648  20.686   0.953  0.00  0.00    -0.256 N 
ATOM      4  C   UNL     1     -38.879  20.429   0.349  0.00  0.00    +0.208 C 
ATOM      5  C   UNL     1     -36.507  19.891   0.814  0.00  0.00    +0.246 C 
ATOM      6  H   UNL     1     -37.578  21.487   1.520  0.00  0.00    +0.157 HD
ENDROOT
BRANCH   5   7
ATOM      7  C   UNL     1     -35.331  20.443   1.607  0.00  0.00    +0.147 C 
ATOM      8  C   UNL     1     -34.171  19.460   1.669  0.00  0.00    +0.031 C 
BRANCH   7   9
ATOM      9  N   UNL     1     -35.791  20.722   2.949  0.00  0.00    -0.327 N 
ATOM     10  H   UNL     1     -36.368  20.058   3.390  0.00  0.00    +0.147 HD
BRANCH   9  11
ATOM     11  C   UNL     1     -35.463  21.872   3.648  0.00  0.00    +0.045 C 
ATOM     12  C   UNL     1     -34.812  24.215   3.654  0.00  0.00    +0.001 C 
ATOM     13  C   UNL     1     -35.149  23.042   2.958  0.00  0.00    +0.014 C 
ATOM     14  C   UNL     1     -34.796  24.200   5.068  0.00  0.00    +0.000 C 
ATOM     15  C   UNL     1     -35.447  21.857   5.040  0.00  0.00    +0.014 C 
ATOM     16  C   UNL     1     -35.117  23.014   5.746  0.00  0.00    +0.001 C 
ATOM     17  C   UNL     1     -34.493  25.403   2.975  0.00  0.00    +0.000 C 
ATOM     18  C   UNL     1     -34.460  25.375   5.763  0.00  0.00    +0.000 C 
ATOM     19  C   UNL     1     -34.161  26.559   3.682  0.00  0.00    +0.000 C 
ATOM     20  C   UNL     1     -34.144  26.545   5.073  0.00  0.00    +0.000 C 
ENDBRANCH   9  11
ENDBRANCH   7   9
ENDBRANCH   5   7
BRANCH   4  21
ATOM     21  C   UNL     1     -39.934  21.469   0.709  0.00  0.00    +0.013 C 
BRANCH  21  22
ATOM     22  N   UNL     1     -40.192  21.320   2.143  0.00  0.00    +0.387 N 
ATOM     23  H   UNL     1     -39.725  20.481   2.487  0.00  0.00    -0.089 HD
ATOM     24  H   UNL     1     -41.195  21.239   2.302  0.00  0.00    -0.089 HD
ATOM     25  H   UNL     1     -39.833  22.136   2.640  0.00  0.00    -0.089 HD
ENDBRANCH  21  22
BRANCH  21  26
ATOM     26  C   UNL     1     -39.439  22.888   0.397  0.00  0.00    -0.013 C 
BRANCH  26  27
ATOM     27  C   UNL     1     -39.452  23.851   1.593  0.00  0.00    -0.004 C 
BRANCH  27  28
ATOM     28  C   UNL     1     -38.228  24.772   1.647  0.00  0.00    -0.024 C 
BRANCH  28  29
ATOM     29  C   UNL     1     -38.234  25.700   2.864  0.00  0.00    -0.086 C 
BRANCH  29  30
ATOM     30  N   UNL     1     -38.229  24.953   4.117  0.00  0.00    +0.380 N 
ATOM     31  H   UNL     1     -37.440  24.307   4.123  0.00  0.00    -0.089 HD
ATOM     32  H   UNL     1     -39.099  24.427   4.203  0.00  0.00    -0.089 HD
ATOM     33  H   UNL     1     -38.144  25.601   4.900  0.00  0.00    -0.089 HD
ENDBRANCH  29  30
ENDBRANCH  28  29
ENDBRANCH  27  28
ENDBRANCH  26  27
ENDBRANCH  21  26
ENDBRANCH   4  21
TORSDOF 10
ENDMDL
MODEL 4
REMARK VINA RESULT:      -6.2     10.828     13.211
REMARK  Name = 5489997
REMARK  10 active torsions:
REMARK  status: ('A' for Active; 'I' for Inactive)
REMARK    1  A    between atoms: C_4  and  C_21
REMARK    2  A    between atoms: C_5  and  C_7
REMARK    3  A    between atoms: C_7  and  N_9
REMARK    4  A    between atoms: N_9  and  C_11
REMARK    5  A    between atoms: C_21  and  N_22
REMARK    6  A    between atoms: C_21  and  C_26
REMARK    7  A    between atoms: C_26  and  C_27
REMARK    8  A    between atoms: C_27  and  C_28
REMARK    9  A    between atoms: C_28  and  C_29
REMARK   10  A    between atoms: C_29  and  N_30
REMARK                            x       y       z     vdW  Elec       q    Type
REMARK                         _______ _______ _______ _____ _____    ______ ____
ROOT
ATOM      1  O   UNL     1     -37.291  20.701   1.559  0.00  0.00    -0.277 OA
ATOM      2  O   UNL     1     -35.179  20.619   3.397  0.00  0.00    -0.273 OA
ATOM      3  N   UNL     1     -36.858  22.231   3.263  0.00  0.00    -0.256 N 
ATOM      4  C   UNL     1     -37.576  21.724   2.179  0.00  0.00    +0.208 C 
ATOM      5  C   UNL     1     -35.708  21.650   3.803  0.00  0.00    +0.246 C 
ATOM      6  H   UNL     1     -37.187  23.061   3.678  0.00  0.00    +0.157 HD
ENDROOT
BRANCH   5   7
ATOM      7  C   UNL     1     -35.171  22.448   4.982  0.00  0.00    +0.147 C 
ATOM      8  C   UNL     1     -35.578  21.840   6.317  0.00  0.00    +0.031 C 
BRANCH   7   9
ATOM      9  N   UNL     1     -35.700  23.790   4.889  0.00  0.00    -0.327 N 
ATOM     10  H   UNL     1     -36.674  23.911   4.941  0.00  0.00    +0.147 HD
BRANCH   9  11
ATOM     11  C   UNL     1     -34.908  24.916   4.732  0.00  0.00    +0.045 C 
ATOM     12  C   UNL     1     -33.450  26.611   5.688  0.00  0.00    +0.001 C 
ATOM     13  C   UNL     1     -34.254  25.468   5.832  0.00  0.00    +0.014 C 
ATOM     14  C   UNL     1     -33.306  27.200   4.409  0.00  0.00    +0.000 C 
ATOM     15  C   UNL     1     -34.767  25.495   3.474  0.00  0.00    +0.014 C 
ATOM     16  C   UNL     1     -33.971  26.629   3.312  0.00  0.00    +0.001 C 
ATOM     17  C   UNL     1     -32.784  27.181   6.786  0.00  0.00    +0.000 C 
ATOM     18  C   UNL     1     -32.501  28.342   4.266  0.00  0.00    +0.000 C 
ATOM     19  C   UNL     1     -31.989  28.316   6.624  0.00  0.00    +0.000 C 
ATOM     20  C   UNL     1     -31.848  28.895   5.367  0.00  0.00    +0.000 C 
ENDBRANCH   9  11
ENDBRANCH   7   9
ENDBRANCH   5   7
BRANCH   4  21
ATOM     21  C   UNL     1     -38.796  22.573   1.838  0.00  0.00    +0.013 C 
BRANCH  21  22
ATOM     22  N   UNL     1     -39.971  21.742   2.113  0.00  0.00    +0.387 N 
ATOM     23  H   UNL     1     -40.284  21.902   3.069  0.00  0.00    -0.089 HD
ATOM     24  H   UNL     1     -39.727  20.759   1.994  0.00  0.00    -0.089 HD
ATOM     25  H   UNL     1     -40.720  21.988   1.464  0.00  0.00    -0.089 HD
ENDBRANCH  21  22
BRANCH  21  26
ATOM     26  C   UNL     1     -38.831  23.852   2.686  0.00  0.00    -0.013 C 
BRANCH  26  27
ATOM     27  C   UNL     1     -38.723  25.158   1.884  0.00  0.00    -0.004 C 
BRANCH  27  28
ATOM     28  C   UNL     1     -39.840  26.159   2.196  0.00  0.00    -0.024 C 
BRANCH  28  29
ATOM     29  C   UNL     1     -40.718  25.724   3.373  0.00  0.00    -0.086 C 
BRANCH  29  30
ATOM     30  N   UNL     1     -41.394  26.857   3.994  0.00  0.00    +0.380 N 
ATOM     31  H   UNL     1     -42.237  27.081   3.466  0.00  0.00    -0.089 HD
ATOM     32  H   UNL     1     -40.770  27.665   3.997  0.00  0.00    -0.089 HD
ATOM     33  H   UNL     1     -41.647  26.619   4.953  0.00  0.00    -0.089 HD
ENDBRANCH  29  30
ENDBRANCH  28  29
ENDBRANCH  27  28
ENDBRANCH  26  27
ENDBRANCH  21  26
ENDBRANCH   4  21
TORSDOF 10
ENDMDL
MODEL 5
REMARK VINA RESULT:      -6.2     12.604     14.746
REMARK  Name = 5489997
REMARK  10 active torsions:
REMARK  status: ('A' for Active; 'I' for Inactive)
REMARK    1  A    between atoms: C_4  and  C_21
REMARK    2  A    between atoms: C_5  and  C_7
REMARK    3  A    between atoms: C_7  and  N_9
REMARK    4  A    between atoms: N_9  and  C_11
REMARK    5  A    between atoms: C_21  and  N_22
REMARK    6  A    between atoms: C_21  and  C_26
REMARK    7  A    between atoms: C_26  and  C_27
REMARK    8  A    between atoms: C_27  and  C_28
REMARK    9  A    between atoms: C_28  and  C_29
REMARK   10  A    between atoms: C_29  and  N_30
REMARK                            x       y       z     vdW  Elec       q    Type
REMARK                         _______ _______ _______ _____ _____    ______ ____
ROOT
ATOM      1  O   UNL     1     -37.994  21.770   2.028  0.00  0.00    -0.277 OA
ATOM      2  O   UNL     1     -37.309  23.639   3.998  0.00  0.00    -0.273 OA
ATOM      3  N   UNL     1     -36.091  21.751   3.374  0.00  0.00    -0.256 N 
ATOM      4  C   UNL     1     -36.933  21.255   2.378  0.00  0.00    +0.208 C 
ATOM      5  C   UNL     1     -36.329  22.908   4.120  0.00  0.00    +0.246 C 
ATOM      6  H   UNL     1     -35.266  21.248   3.564  0.00  0.00    +0.157 HD
ENDROOT
BRANCH   5   7
ATOM      7  C   UNL     1     -35.215  23.177   5.122  0.00  0.00    +0.147 C 
ATOM      8  C   UNL     1     -35.270  22.224   6.308  0.00  0.00    +0.031 C 
BRANCH   7   9
ATOM      9  N   UNL     1     -35.360  24.535   5.594  0.00  0.00    -0.327 N 
ATOM     10  H   UNL     1     -36.101  24.738   6.208  0.00  0.00    +0.147 HD
BRANCH   9  11
ATOM     11  C   UNL     1     -34.511  25.567   5.230  0.00  0.00    +0.045 C 
ATOM     12  C   UNL     1     -32.914  27.294   5.848  0.00  0.00    +0.001 C 
ATOM     13  C   UNL     1     -33.777  26.244   6.203  0.00  0.00    +0.014 C 
ATOM     14  C   UNL     1     -32.794  27.661   4.487  0.00  0.00    +0.000 C 
ATOM     15  C   UNL     1     -34.393  25.929   3.890  0.00  0.00    +0.014 C 
ATOM     16  C   UNL     1     -33.540  26.968   3.520  0.00  0.00    +0.001 C 
ATOM     17  C   UNL     1     -32.166  27.986   6.815  0.00  0.00    +0.000 C 
ATOM     18  C   UNL     1     -31.929  28.711   4.133  0.00  0.00    +0.000 C 
ATOM     19  C   UNL     1     -31.314  29.026   6.445  0.00  0.00    +0.000 C 
ATOM     20  C   UNL     1     -31.196  29.388   5.107  0.00  0.00    +0.000 C 
ENDBRANCH   9  11
ENDBRANCH   7   9
ENDBRANCH   5   7
BRANCH   4  21
ATOM     21  C   UNL     1     -36.388  19.986   1.732  0.00  0.00    +0.013 C 
BRANCH  21  22
ATOM     22  N   UNL     1     -37.345  19.607   0.689  0.00  0.00    +0.387 N 
ATOM     23  H   UNL     1     -37.767  20.446   0.294  0.00  0.00    -0.089 HD
ATOM     24  H   UNL     1     -38.073  19.018   1.093  0.00  0.00    -0.089 HD
ATOM     25  H   UNL     1     -36.860  19.092  -0.046  0.00  0.00    -0.089 HD
ENDBRANCH  21  22
BRANCH  21  26
ATOM     26  C   UNL     1     -35.000  20.228   1.125  0.00  0.00    -0.013 C 
BRANCH  26  27
ATOM     27  C   UNL     1     -33.884  19.343   1.699  0.00  0.00    -0.004 C 
BRANCH  27  28
ATOM     28  C   UNL     1     -32.860  18.896   0.651  0.00  0.00    -0.024 C 
BRANCH  28  29
ATOM     29  C   UNL     1     -32.897  17.388   0.388  0.00  0.00    -0.086 C 
BRANCH  29  30
ATOM     30  N   UNL     1     -34.261  16.872   0.374  0.00  0.00    +0.380 N 
ATOM     31  H   UNL     1     -34.243  15.862   0.517  0.00  0.00    -0.089 HD
ATOM     32  H   UNL     1     -34.694  17.079  -0.526  0.00  0.00    -0.089 HD
ATOM     33  H   UNL     1     -34.799  17.311   1.120  0.00  0.00    -0.089 HD
ENDBRANCH  29  30
ENDBRANCH  28  29
ENDBRANCH  27  28
ENDBRANCH  26  27
ENDBRANCH  21  26
ENDBRANCH   4  21
TORSDOF 10
ENDMDL
MODEL 6
REMARK VINA RESULT:      -6.2     13.574     15.379
REMARK  Name = 5489997
REMARK  10 active torsions:
REMARK  status: ('A' for Active; 'I' for Inactive)
REMARK    1  A    between atoms: C_4  and  C_21
REMARK    2  A    between atoms: C_5  and  C_7
REMARK    3  A    between atoms: C_7  and  N_9
REMARK    4  A    between atoms: N_9  and  C_11
REMARK    5  A    between atoms: C_21  and  N_22
REMARK    6  A    between atoms: C_21  and  C_26
REMARK    7  A    between atoms: C_26  and  C_27
REMARK    8  A    between atoms: C_27  and  C_28
REMARK    9  A    between atoms: C_28  and  C_29
REMARK   10  A    between atoms: C_29  and  N_30
REMARK                            x       y       z     vdW  Elec       q    Type
REMARK                         _______ _______ _______ _____ _____    ______ ____
ROOT
ATOM      1  O   UNL     1     -37.718  24.607   4.127  0.00  0.00    -0.277 OA
ATOM      2  O   UNL     1     -38.311  23.523   1.614  0.00  0.00    -0.273 OA
ATOM      3  N   UNL     1     -36.673  22.792   3.103  0.00  0.00    -0.256 N 
ATOM      4  C   UNL     1     -36.875  23.711   4.134  0.00  0.00    +0.208 C 
ATOM      5  C   UNL     1     -37.401  22.755   1.911  0.00  0.00    +0.246 C 
ATOM      6  H   UNL     1     -35.965  22.120   3.226  0.00  0.00    +0.157 HD
ENDROOT
BRANCH   5   7
ATOM      7  C   UNL     1     -36.937  21.628   0.999  0.00  0.00    +0.147 C 
ATOM      8  C   UNL     1     -38.077  20.692   0.621  0.00  0.00    +0.031 C 
BRANCH   7   9
ATOM      9  N   UNL     1     -35.919  20.879   1.701  0.00  0.00    -0.327 N 
ATOM     10  H   UNL     1     -36.140  20.508   2.584  0.00  0.00    +0.147 HD
BRANCH   9  11
ATOM     11  C   UNL     1     -34.649  20.654   1.196  0.00  0.00    +0.045 C 
ATOM     12  C   UNL     1     -32.689  19.228   0.992  0.00  0.00    +0.001 C 
ATOM     13  C   UNL     1     -33.978  19.469   1.496  0.00  0.00    +0.014 C 
ATOM     14  C   UNL     1     -32.073  20.203   0.172  0.00  0.00    +0.000 C 
ATOM     15  C   UNL     1     -34.043  21.613   0.389  0.00  0.00    +0.014 C 
ATOM     16  C   UNL     1     -32.764  21.389  -0.121  0.00  0.00    +0.001 C 
ATOM     17  C   UNL     1     -31.999  18.040   1.284  0.00  0.00    +0.000 C 
ATOM     18  C   UNL     1     -30.785  19.960  -0.333  0.00  0.00    +0.000 C 
ATOM     19  C   UNL     1     -30.719  17.817   0.775  0.00  0.00    +0.000 C 
ATOM     20  C   UNL     1     -30.113  18.775  -0.031  0.00  0.00    +0.000 C 
ENDBRANCH   9  11
ENDBRANCH   7   9
ENDBRANCH   5   7
BRANCH   4  21
ATOM     21  C   UNL     1     -35.936  23.481   5.313  0.00  0.00    +0.013 C 
BRANCH  21  22
ATOM     22  N   UNL     1     -35.928  22.037   5.562  0.00  0.00    +0.387 N 
ATOM     23  H   UNL     1     -34.994  21.747   5.848  0.00  0.00    -0.089 HD
ATOM     24  H   UNL     1     -36.191  21.544   4.710  0.00  0.00    -0.089 HD
ATOM     25  H   UNL     1     -36.594  21.817   6.303  0.00  0.00    -0.089 HD
ENDBRANCH  21  22
BRANCH  21  26
ATOM     26  C   UNL     1     -34.520  23.980   4.995  0.00  0.00    -0.013 C 
BRANCH  26  27
ATOM     27  C   UNL     1     -34.305  25.486   5.210  0.00  0.00    -0.004 C 
BRANCH  27  28
ATOM     28  C   UNL     1     -33.887  26.229   3.937  0.00  0.00    -0.024 C 
BRANCH  28  29
ATOM     29  C   UNL     1     -34.963  27.193   3.429  0.00  0.00    -0.086 C 
BRANCH  29  30
ATOM     30  N   UNL     1     -35.881  26.543   2.502  0.00  0.00    +0.380 N 
ATOM     31  H   UNL     1     -36.230  25.680   2.918  0.00  0.00    -0.089 HD
ATOM     32  H   UNL     1     -35.391  26.326   1.633  0.00  0.00    -0.089 HD
ATOM     33  H   UNL     1     -36.664  27.166   2.304  0.00  0.00    -0.089 HD
ENDBRANCH  29  30
ENDBRANCH  28  29
ENDBRANCH  27  28
ENDBRANCH  26  27
ENDBRANCH  21  26
ENDBRANCH   4  21
TORSDOF 10
ENDMDL
MODEL 7
REMARK VINA RESULT:      -6.1     13.119     15.150
REMARK  Name = 5489997
REMARK  10 active torsions:
REMARK  status: ('A' for Active; 'I' for Inactive)
REMARK    1  A    between atoms: C_4  and  C_21
REMARK    2  A    between atoms: C_5  and  C_7
REMARK    3  A    between atoms: C_7  and  N_9
REMARK    4  A    between atoms: N_9  and  C_11
REMARK    5  A    between atoms: C_21  and  N_22
REMARK    6  A    between atoms: C_21  and  C_26
REMARK    7  A    between atoms: C_26  and  C_27
REMARK    8  A    between atoms: C_27  and  C_28
REMARK    9  A    between atoms: C_28  and  C_29
REMARK   10  A    between atoms: C_29  and  N_30
REMARK                            x       y       z     vdW  Elec       q    Type
REMARK                         _______ _______ _______ _____ _____    ______ ____
ROOT
ATOM      1  O   UNL     1     -32.512  26.387   3.576  0.00  0.00    -0.277 OA
ATOM      2  O   UNL     1     -32.052  25.121   1.120  0.00  0.00    -0.273 OA
ATOM      3  N   UNL     1     -34.121  25.627   2.071  0.00  0.00    -0.256 N 
ATOM      4  C   UNL     1     -33.688  26.230   3.252  0.00  0.00    +0.208 C 
ATOM      5  C   UNL     1     -33.280  25.111   1.081  0.00  0.00    +0.246 C 
ATOM      6  H   UNL     1     -35.092  25.559   1.923  0.00  0.00    +0.157 HD
ENDROOT
BRANCH   5   7
ATOM      7  C   UNL     1     -34.066  24.525  -0.083  0.00  0.00    +0.147 C 
ATOM      8  C   UNL     1     -34.963  25.561  -0.746  0.00  0.00    +0.031 C 
BRANCH   7   9
ATOM      9  N   UNL     1     -34.882  23.447   0.430  0.00  0.00    -0.327 N 
ATOM     10  H   UNL     1     -35.833  23.626   0.604  0.00  0.00    +0.147 HD
BRANCH   9  11
ATOM     11  C   UNL     1     -34.397  22.176   0.687  0.00  0.00    +0.045 C 
ATOM     12  C   UNL     1     -32.684  20.476   0.379  0.00  0.00    +0.001 C 
ATOM     13  C   UNL     1     -33.187  21.764   0.128  0.00  0.00    +0.014 C 
ATOM     14  C   UNL     1     -33.418  19.596   1.209  0.00  0.00    +0.000 C 
ATOM     15  C   UNL     1     -35.119  21.309   1.503  0.00  0.00    +0.014 C 
ATOM     16  C   UNL     1     -34.633  20.028   1.764  0.00  0.00    +0.001 C 
ATOM     17  C   UNL     1     -31.468  20.045  -0.175  0.00  0.00    +0.000 C 
ATOM     18  C   UNL     1     -32.913  18.309   1.460  0.00  0.00    +0.000 C 
ATOM     19  C   UNL     1     -30.982  18.763   0.084  0.00  0.00    +0.000 C 
ATOM     20  C   UNL     1     -31.704  17.897   0.899  0.00  0.00    +0.000 C 
ENDBRANCH   9  11
ENDBRANCH   7   9
ENDBRANCH   5   7
BRANCH   4  21
ATOM     21  C   UNL     1     -34.846  26.710   4.120  0.00  0.00    +0.013 C 
BRANCH  21  22
ATOM     22  N   UNL     1     -35.414  27.880   3.446  0.00  0.00    +0.387 N 
ATOM     23  H   UNL     1     -36.404  27.720   3.265  0.00  0.00    -0.089 HD
ATOM     24  H   UNL     1     -34.926  28.034   2.564  0.00  0.00    -0.089 HD
ATOM     25  H   UNL     1     -35.306  28.701   4.043  0.00  0.00    -0.089 HD
ENDBRANCH  21  22
BRANCH  21  26
ATOM     26  C   UNL     1     -35.907  25.613   4.278  0.00  0.00    -0.013 C 
BRANCH  26  27
ATOM     27  C   UNL     1     -35.709  24.697   5.495  0.00  0.00    -0.004 C 
BRANCH  27  28
ATOM     28  C   UNL     1     -35.218  23.293   5.128  0.00  0.00    -0.024 C 
BRANCH  28  29
ATOM     29  C   UNL     1     -35.324  22.301   6.289  0.00  0.00    -0.086 C 
BRANCH  29  30
ATOM     30  N   UNL     1     -35.262  20.919   5.831  0.00  0.00    +0.380 N 
ATOM     31  H   UNL     1     -34.725  20.872   4.965  0.00  0.00    -0.089 HD
ATOM     32  H   UNL     1     -36.207  20.573   5.663  0.00  0.00    -0.089 HD
ATOM     33  H   UNL     1     -34.811  20.344   6.542  0.00  0.00    -0.089 HD
ENDBRANCH  29  30
ENDBRANCH  28  29
ENDBRANCH  27  28
ENDBRANCH  26  27
ENDBRANCH  21  26
ENDBRANCH   4  21
TORSDOF 10
ENDMDL
MODEL 8
REMARK VINA RESULT:      -6.1     14.093     16.214
REMARK  Name = 5489997
REMARK  10 active torsions:
REMARK  status: ('A' for Active; 'I' for Inactive)
REMARK    1  A    between atoms: C_4  and  C_21
REMARK    2  A    between atoms: C_5  and  C_7
REMARK    3  A    between atoms: C_7  and  N_9
REMARK    4  A    between atoms: N_9  and  C_11
REMARK    5  A    between atoms: C_21  and  N_22
REMARK    6  A    between atoms: C_21  and  C_26
REMARK    7  A    between atoms: C_26  and  C_27
REMARK    8  A    between atoms: C_27  and  C_28
REMARK    9  A    between atoms: C_28  and  C_29
REMARK   10  A    between atoms: C_29  and  N_30
REMARK                            x       y       z     vdW  Elec       q    Type
REMARK                         _______ _______ _______ _____ _____    ______ ____
ROOT
ATOM      1  O   UNL     1     -36.055  22.947   5.287  0.00  0.00    -0.277 OA
ATOM      2  O   UNL     1     -35.388  20.595   3.921  0.00  0.00    -0.273 OA
ATOM      3  N   UNL     1     -36.091  22.609   2.980  0.00  0.00    -0.256 N 
ATOM      4  C   UNL     1     -36.258  23.359   4.146  0.00  0.00    +0.208 C 
ATOM      5  C   UNL     1     -35.669  21.278   2.940  0.00  0.00    +0.246 C 
ATOM      6  H   UNL     1     -36.287  23.052   2.123  0.00  0.00    +0.157 HD
ENDROOT
BRANCH   5   7
ATOM      7  C   UNL     1     -35.585  20.754   1.513  0.00  0.00    +0.147 C 
ATOM      8  C   UNL     1     -36.961  20.526   0.906  0.00  0.00    +0.031 C 
BRANCH   7   9
ATOM      9  N   UNL     1     -34.864  19.501   1.542  0.00  0.00    -0.327 N 
ATOM     10  H   UNL     1     -35.332  18.703   1.876  0.00  0.00    +0.147 HD
BRANCH   9  11
ATOM     11  C   UNL     1     -33.551  19.363   1.125  0.00  0.00    +0.045 C 
ATOM     12  C   UNL     1     -31.608  20.256  -0.034  0.00  0.00    +0.001 C 
ATOM     13  C   UNL     1     -32.939  20.383   0.397  0.00  0.00    +0.014 C 
ATOM     14  C   UNL     1     -30.888  19.079   0.279  0.00  0.00    +0.000 C 
ATOM     15  C   UNL     1     -32.842  18.204   1.433  0.00  0.00    +0.014 C 
ATOM     16  C   UNL     1     -31.519  18.063   1.014  0.00  0.00    +0.001 C 
ATOM     17  C   UNL     1     -30.976  21.273  -0.769  0.00  0.00    +0.000 C 
ATOM     18  C   UNL     1     -29.556  18.953  -0.152  0.00  0.00    +0.000 C 
ATOM     19  C   UNL     1     -29.653  21.130  -1.189  0.00  0.00    +0.000 C 
ATOM     20  C   UNL     1     -28.945  19.973  -0.881  0.00  0.00    +0.000 C 
ENDBRANCH   9  11
ENDBRANCH   7   9
ENDBRANCH   5   7
BRANCH   4  21
ATOM     21  C   UNL     1     -36.711  24.787   3.861  0.00  0.00    +0.013 C 
BRANCH  21  22
ATOM     22  N   UNL     1     -38.156  24.820   4.102  0.00  0.00    +0.387 N 
ATOM     23  H   UNL     1     -38.647  24.896   3.212  0.00  0.00    -0.089 HD
ATOM     24  H   UNL     1     -38.385  25.624   4.686  0.00  0.00    -0.089 HD
ATOM     25  H   UNL     1     -38.441  23.963   4.576  0.00  0.00    -0.089 HD
ENDBRANCH  21  22
BRANCH  21  26
ATOM     26  C   UNL     1     -35.990  25.787   4.775  0.00  0.00    -0.013 C 
BRANCH  26  27
ATOM     27  C   UNL     1     -34.930  26.650   4.074  0.00  0.00    -0.004 C 
BRANCH  27  28
ATOM     28  C   UNL     1     -33.606  25.917   3.838  0.00  0.00    -0.024 C 
BRANCH  28  29
ATOM     29  C   UNL     1     -33.313  25.676   2.355  0.00  0.00    -0.086 C 
BRANCH  29  30
ATOM     30  N   UNL     1     -31.889  25.773   2.060  0.00  0.00    +0.380 N 
ATOM     31  H   UNL     1     -31.682  25.247   1.211  0.00  0.00    -0.089 HD
ATOM     32  H   UNL     1     -31.353  25.384   2.837  0.00  0.00    -0.089 HD
ATOM     33  H   UNL     1     -31.633  26.751   1.926  0.00  0.00    -0.089 HD
ENDBRANCH  29  30
ENDBRANCH  28  29
ENDBRANCH  27  28
ENDBRANCH  26  27
ENDBRANCH  21  26
ENDBRANCH   4  21
TORSDOF 10
ENDMDL
MODEL 9
REMARK VINA RESULT:      -6.1     12.805     14.529
REMARK  Name = 5489997
REMARK  10 active torsions:
REMARK  status: ('A' for Active; 'I' for Inactive)
REMARK    1  A    between atoms: C_4  and  C_21
REMARK    2  A    between atoms: C_5  and  C_7
REMARK    3  A    between atoms: C_7  and  N_9
REMARK    4  A    between atoms: N_9  and  C_11
REMARK    5  A    between atoms: C_21  and  N_22
REMARK    6  A    between atoms: C_21  and  C_26
REMARK    7  A    between atoms: C_26  and  C_27
REMARK    8  A    between atoms: C_27  and  C_28
REMARK    9  A    between atoms: C_28  and  C_29
REMARK   10  A    between atoms: C_29  and  N_30
REMARK                            x       y       z     vdW  Elec       q    Type
REMARK                         _______ _______ _______ _____ _____    ______ ____
ROOT
ATOM      1  O   UNL     1     -37.730  26.934   2.247  0.00  0.00    -0.277 OA
ATOM      2  O   UNL     1     -38.666  24.855   0.621  0.00  0.00    -0.273 OA
ATOM      3  N   UNL     1     -36.729  24.855   1.918  0.00  0.00    -0.256 N 
ATOM      4  C   UNL     1     -36.824  26.134   2.469  0.00  0.00    +0.208 C 
ATOM      5  C   UNL     1     -37.653  24.297   1.031  0.00  0.00    +0.246 C 
ATOM      6  H   UNL     1     -35.954  24.305   2.174  0.00  0.00    +0.157 HD
ENDROOT
BRANCH   5   7
ATOM      7  C   UNL     1     -37.262  22.884   0.621  0.00  0.00    +0.147 C 
ATOM      8  C   UNL     1     -38.445  21.927   0.669  0.00  0.00    +0.031 C 
BRANCH   7   9
ATOM      9  N   UNL     1     -36.239  22.423   1.533  0.00  0.00    -0.327 N 
ATOM     10  H   UNL     1     -36.393  22.534   2.498  0.00  0.00    +0.147 HD
BRANCH   9  11
ATOM     11  C   UNL     1     -35.056  21.833   1.121  0.00  0.00    +0.045 C 
ATOM     12  C   UNL     1     -33.544  19.928   1.125  0.00  0.00    +0.001 C 
ATOM     13  C   UNL     1     -34.742  20.538   1.533  0.00  0.00    +0.014 C 
ATOM     14  C   UNL     1     -32.654  20.641   0.287  0.00  0.00    +0.000 C 
ATOM     15  C   UNL     1     -34.180  22.534   0.297  0.00  0.00    +0.014 C 
ATOM     16  C   UNL     1     -32.988  21.943  -0.119  0.00  0.00    +0.001 C 
ATOM     17  C   UNL     1     -33.211  18.624   1.530  0.00  0.00    +0.000 C 
ATOM     18  C   UNL     1     -31.457  20.029  -0.121  0.00  0.00    +0.000 C 
ATOM     19  C   UNL     1     -32.018  18.033   1.115  0.00  0.00    +0.000 C 
ATOM     20  C   UNL     1     -31.142  18.734   0.292  0.00  0.00    +0.000 C 
ENDBRANCH   9  11
ENDBRANCH   7   9
ENDBRANCH   5   7
BRANCH   4  21
ATOM     21  C   UNL     1     -35.671  26.446   3.418  0.00  0.00    +0.013 C 
BRANCH  21  22
ATOM     22  N   UNL     1     -35.456  27.894   3.347  0.00  0.00    +0.387 N 
ATOM     23  H   UNL     1     -36.329  28.355   3.093  0.00  0.00    -0.089 HD
ATOM     24  H   UNL     1     -34.746  28.098   2.645  0.00  0.00    -0.089 HD
ATOM     25  H   UNL     1     -35.144  28.236   4.257  0.00  0.00    -0.089 HD
ENDBRANCH  21  22
BRANCH  21  26
ATOM     26  C   UNL     1     -36.008  26.022   4.854  0.00  0.00    -0.013 C 
BRANCH  26  27
ATOM     27  C   UNL     1     -34.844  25.385   5.626  0.00  0.00    -0.004 C 
BRANCH  27  28
ATOM     28  C   UNL     1     -34.416  24.024   5.070  0.00  0.00    -0.024 C 
BRANCH  28  29
ATOM     29  C   UNL     1     -35.129  22.852   5.749  0.00  0.00    -0.086 C 
BRANCH  29  30
ATOM     30  N   UNL     1     -36.286  22.402   4.983  0.00  0.00    +0.380 N 
ATOM     31  H   UNL     1     -36.575  21.481   5.314  0.00  0.00    -0.089 HD
ATOM     32  H   UNL     1     -36.037  22.344   3.995  0.00  0.00    -0.089 HD
ATOM     33  H   UNL     1     -37.052  23.063   5.104  0.00  0.00    -0.089 HD
ENDBRANCH  29  30
ENDBRANCH  28  29
ENDBRANCH  27  28
ENDBRANCH  26  27
ENDBRANCH  21  26
ENDBRANCH   4  21
TORSDOF 10
ENDMDL
