MODEL 1
REMARK VINA RESULT:      -6.4      0.000      0.000
REMARK  Name = 5281699
REMARK  6 active torsions:
REMARK  status: ('A' for Active; 'I' for Inactive)
REMARK    1  A    between atoms: C_4  and  C_12
REMARK    2  A    between atoms: C_6  and  O_22
REMARK    3  A    between atoms: C_8  and  O_24
REMARK    4  A    between atoms: C_10  and  O_26
REMARK    5  A    between atoms: C_15  and  O_20
REMARK    6  A    between atoms: C_16  and  O_18
REMARK                            x       y       z     vdW  Elec       q    Type
REMARK                         _______ _______ _______ _____ _____    ______ ____
ROOT
ATOM      1  O   UNL     1     -34.756  23.748   3.355  0.00  0.00    -0.450 OA
ATOM      2  O   UNL     1     -38.807  24.184   3.425  0.00  0.00    -0.283 OA
ATOM      3  C   UNL     1     -36.954  22.830   2.884  0.00  0.00    +0.110 A 
ATOM      4  C   UNL     1     -35.352  24.892   3.860  0.00  0.00    +0.182 A 
ATOM      5  C   UNL     1     -35.563  22.743   2.886  0.00  0.00    +0.155 A 
ATOM      6  C   UNL     1     -36.679  25.105   3.906  0.00  0.00    +0.208 A 
ATOM      7  C   UNL     1     -37.591  24.049   3.406  0.00  0.00    +0.238 A 
ATOM      8  C   UNL     1     -37.726  21.775   2.392  0.00  0.00    +0.143 C 
ATOM      9  C   UNL     1     -34.935  21.599   2.394  0.00  0.00    +0.074 C 
ATOM     10  C   UNL     1     -35.703  20.543   1.902  0.00  0.00    +0.140 C 
ATOM     11  C   UNL     1     -37.095  20.631   1.900  0.00  0.00    +0.073 C 
ENDROOT
BRANCH   4  12
ATOM     12  C   UNL     1     -34.373  25.890   4.329  0.00  0.00    +0.041 C 
ATOM     13  C   UNL     1     -34.053  25.972   5.684  0.00  0.00    +0.043 C 
ATOM     14  C   UNL     1     -33.764  26.752   3.416  0.00  0.00    +0.006 C 
ATOM     15  C   UNL     1     -33.127  26.916   6.127  0.00  0.00    +0.168 C 
ATOM     16  C   UNL     1     -32.519  27.778   5.214  0.00  0.00    +0.172 C 
ATOM     17  C   UNL     1     -32.837  27.695   3.859  0.00  0.00    +0.040 C 
BRANCH  16  18
ATOM     18  O   UNL     1     -31.612  28.703   5.635  0.00  0.00    -0.468 OA
ATOM     19  C   UNL     1     -31.937  30.074   5.417  0.00  0.00    +0.253 C 
ENDBRANCH  16  18
BRANCH  15  20
ATOM     20  O   UNL     1     -32.825  26.986   7.454  0.00  0.00    -0.503 OA
ATOM     21  H   UNL     1     -33.345  26.521   8.078  0.00  0.00    +0.292 HD
ENDBRANCH  15  20
ENDBRANCH   4  12
BRANCH   6  22
ATOM     22  O   UNL     1     -37.238  26.270   4.385  0.00  0.00    -0.501 OA
ATOM     23  H   UNL     1     -37.441  26.352   5.297  0.00  0.00    +0.292 HD
ENDBRANCH   6  22
BRANCH   8  24
ATOM     24  O   UNL     1     -39.087  21.809   2.367  0.00  0.00    -0.505 OA
ATOM     25  H   UNL     1     -39.552  22.365   2.961  0.00  0.00    +0.292 HD
ENDBRANCH   8  24
BRANCH  10  26
ATOM     26  O   UNL     1     -35.091  19.426   1.421  0.00  0.00    -0.505 OA
ATOM     27  H   UNL     1     -35.530  18.882   0.797  0.00  0.00    +0.292 HD
ENDBRANCH  10  26
TORSDOF 6
ENDMDL
MODEL 2
REMARK VINA RESULT:      -6.1      2.960      5.523
REMARK  Name = 5281699
REMARK  6 active torsions:
REMARK  status: ('A' for Active; 'I' for Inactive)
REMARK    1  A    between atoms: C_4  and  C_12
REMARK    2  A    between atoms: C_6  and  O_22
REMARK    3  A    between atoms: C_8  and  O_24
REMARK    4  A    between atoms: C_10  and  O_26
REMARK    5  A    between atoms: C_15  and  O_20
REMARK    6  A    between atoms: C_16  and  O_18
REMARK                            x       y       z     vdW  Elec       q    Type
REMARK                         _______ _______ _______ _____ _____    ______ ____
ROOT
ATOM      1  O   UNL     1     -33.984  19.849   1.933  0.00  0.00    -0.450 OA
ATOM      2  O   UNL     1     -36.993  18.293  -0.333  0.00  0.00    -0.283 OA
ATOM      3  C   UNL     1     -34.740  18.168   0.353  0.00  0.00    +0.110 A 
ATOM      4  C   UNL     1     -35.256  20.399   1.943  0.00  0.00    +0.182 A 
ATOM      5  C   UNL     1     -33.754  18.748   1.148  0.00  0.00    +0.155 A 
ATOM      6  C   UNL     1     -36.292  19.942   1.216  0.00  0.00    +0.208 A 
ATOM      7  C   UNL     1     -36.089  18.756   0.349  0.00  0.00    +0.238 A 
ATOM      8  C   UNL     1     -34.448  17.047  -0.428  0.00  0.00    +0.143 C 
ATOM      9  C   UNL     1     -32.467  18.211   1.167  0.00  0.00    +0.074 C 
ATOM     10  C   UNL     1     -32.171  17.090   0.389  0.00  0.00    +0.140 C 
ATOM     11  C   UNL     1     -33.159  16.511  -0.407  0.00  0.00    +0.073 C 
ENDROOT
BRANCH   4  12
ATOM     12  C   UNL     1     -35.366  21.574   2.826  0.00  0.00    +0.041 C 
ATOM     13  C   UNL     1     -35.585  21.404   4.193  0.00  0.00    +0.043 C 
ATOM     14  C   UNL     1     -35.249  22.859   2.293  0.00  0.00    +0.006 C 
ATOM     15  C   UNL     1     -35.689  22.517   5.027  0.00  0.00    +0.168 C 
ATOM     16  C   UNL     1     -35.573  23.801   4.494  0.00  0.00    +0.172 C 
ATOM     17  C   UNL     1     -35.353  23.972   3.127  0.00  0.00    +0.040 C 
BRANCH  16  18
ATOM     18  O   UNL     1     -35.672  24.895   5.299  0.00  0.00    -0.468 OA
ATOM     19  C   UNL     1     -34.469  25.613   5.568  0.00  0.00    +0.253 C 
ENDBRANCH  16  18
BRANCH  15  20
ATOM     20  O   UNL     1     -35.904  22.337   6.360  0.00  0.00    -0.503 OA
ATOM     21  H   UNL     1     -36.701  21.946   6.658  0.00  0.00    +0.292 HD
ENDBRANCH  15  20
ENDBRANCH   4  12
BRANCH   6  22
ATOM     22  O   UNL     1     -37.536  20.533   1.224  0.00  0.00    -0.501 OA
ATOM     23  H   UNL     1     -38.054  20.523   2.005  0.00  0.00    +0.292 HD
ENDBRANCH   6  22
BRANCH   8  24
ATOM     24  O   UNL     1     -35.375  16.442  -1.222  0.00  0.00    -0.505 OA
ATOM     25  H   UNL     1     -35.336  15.517  -1.366  0.00  0.00    +0.292 HD
ENDBRANCH   8  24
BRANCH  10  26
ATOM     26  O   UNL     1     -30.916  16.565   0.406  0.00  0.00    -0.505 OA
ATOM     27  H   UNL     1     -30.769  15.690   0.105  0.00  0.00    +0.292 HD
ENDBRANCH  10  26
TORSDOF 6
ENDMDL
MODEL 3
REMARK VINA RESULT:      -6.1      0.848      1.548
REMARK  Name = 5281699
REMARK  6 active torsions:
REMARK  status: ('A' for Active; 'I' for Inactive)
REMARK    1  A    between atoms: C_4  and  C_12
REMARK    2  A    between atoms: C_6  and  O_22
REMARK    3  A    between atoms: C_8  and  O_24
REMARK    4  A    between atoms: C_10  and  O_26
REMARK    5  A    between atoms: C_15  and  O_20
REMARK    6  A    between atoms: C_16  and  O_18
REMARK                            x       y       z     vdW  Elec       q    Type
REMARK                         _______ _______ _______ _____ _____    ______ ____
ROOT
ATOM      1  O   UNL     1     -34.813  23.551   3.155  0.00  0.00    -0.450 OA
ATOM      2  O   UNL     1     -38.883  23.736   3.241  0.00  0.00    -0.283 OA
ATOM      3  C   UNL     1     -36.951  22.489   2.716  0.00  0.00    +0.110 A 
ATOM      4  C   UNL     1     -35.476  24.667   3.640  0.00  0.00    +0.182 A 
ATOM      5  C   UNL     1     -35.558  22.489   2.711  0.00  0.00    +0.155 A 
ATOM      6  C   UNL     1     -36.815  24.798   3.691  0.00  0.00    +0.208 A 
ATOM      7  C   UNL     1     -37.661  23.676   3.217  0.00  0.00    +0.238 A 
ATOM      8  C   UNL     1     -37.658  21.378   2.250  0.00  0.00    +0.143 C 
ATOM      9  C   UNL     1     -34.862  21.377   2.238  0.00  0.00    +0.074 C 
ATOM     10  C   UNL     1     -35.565  20.264   1.772  0.00  0.00    +0.140 C 
ATOM     11  C   UNL     1     -36.960  20.266   1.778  0.00  0.00    +0.073 C 
ENDROOT
BRANCH   4  12
ATOM     12  C   UNL     1     -34.559  25.733   4.083  0.00  0.00    +0.041 C 
ATOM     13  C   UNL     1     -34.071  26.661   3.162  0.00  0.00    +0.043 C 
ATOM     14  C   UNL     1     -34.180  25.815   5.423  0.00  0.00    +0.006 C 
ATOM     15  C   UNL     1     -33.203  27.669   3.581  0.00  0.00    +0.168 C 
ATOM     16  C   UNL     1     -32.824  27.750   4.921  0.00  0.00    +0.172 C 
ATOM     17  C   UNL     1     -33.313  26.823   5.842  0.00  0.00    +0.040 C 
BRANCH  16  18
ATOM     18  O   UNL     1     -31.978  28.731   5.342  0.00  0.00    -0.468 OA
ATOM     19  C   UNL     1     -31.812  28.884   6.750  0.00  0.00    +0.253 C 
ENDBRANCH  16  18
BRANCH  15  20
ATOM     20  O   UNL     1     -32.733  28.568   2.672  0.00  0.00    -0.503 OA
ATOM     21  H   UNL     1     -33.107  29.426   2.625  0.00  0.00    +0.292 HD
ENDBRANCH  15  20
ENDBRANCH   4  12
BRANCH   6  22
ATOM     22  O   UNL     1     -37.443  25.935   4.149  0.00  0.00    -0.501 OA
ATOM     23  H   UNL     1     -37.443  26.713   3.626  0.00  0.00    +0.292 HD
ENDBRANCH   6  22
BRANCH   8  24
ATOM     24  O   UNL     1     -39.020  21.327   2.233  0.00  0.00    -0.505 OA
ATOM     25  H   UNL     1     -39.459  20.511   2.372  0.00  0.00    +0.292 HD
ENDBRANCH   8  24
BRANCH  10  26
ATOM     26  O   UNL     1     -34.887  19.178   1.311  0.00  0.00    -0.505 OA
ATOM     27  H   UNL     1     -34.605  18.513   1.907  0.00  0.00    +0.292 HD
ENDBRANCH  10  26
TORSDOF 6
ENDMDL
MODEL 4
REMARK VINA RESULT:      -6.0      2.054      2.918
REMARK  Name = 5281699
REMARK  6 active torsions:
REMARK  status: ('A' for Active; 'I' for Inactive)
REMARK    1  A    between atoms: C_4  and  C_12
REMARK    2  A    between atoms: C_6  and  O_22
REMARK    3  A    between atoms: C_8  and  O_24
REMARK    4  A    between atoms: C_10  and  O_26
REMARK    5  A    between atoms: C_15  and  O_20
REMARK    6  A    between atoms: C_16  and  O_18
REMARK                            x       y       z     vdW  Elec       q    Type
REMARK                         _______ _______ _______ _____ _____    ______ ____
ROOT
ATOM      1  O   UNL     1     -33.599  25.441   4.997  0.00  0.00    -0.450 OA
ATOM      2  O   UNL     1     -36.848  26.487   2.771  0.00  0.00    -0.283 OA
ATOM      3  C   UNL     1     -35.699  24.804   3.959  0.00  0.00    +0.110 A 
ATOM      4  C   UNL     1     -33.767  26.733   4.525  0.00  0.00    +0.182 A 
ATOM      5  C   UNL     1     -34.565  24.510   4.712  0.00  0.00    +0.155 A 
ATOM      6  C   UNL     1     -34.809  27.144   3.780  0.00  0.00    +0.208 A 
ATOM      7  C   UNL     1     -35.876  26.171   3.443  0.00  0.00    +0.238 A 
ATOM      8  C   UNL     1     -36.649  23.814   3.698  0.00  0.00    +0.143 C 
ATOM      9  C   UNL     1     -34.372  23.221   5.210  0.00  0.00    +0.074 C 
ATOM     10  C   UNL     1     -35.320  22.229   4.952  0.00  0.00    +0.140 C 
ATOM     11  C   UNL     1     -36.456  22.526   4.198  0.00  0.00    +0.073 C 
ENDROOT
BRANCH   4  12
ATOM     12  C   UNL     1     -32.659  27.630   4.901  0.00  0.00    +0.041 C 
ATOM     13  C   UNL     1     -32.530  28.066   6.220  0.00  0.00    +0.043 C 
ATOM     14  C   UNL     1     -31.739  28.044   3.937  0.00  0.00    +0.006 C 
ATOM     15  C   UNL     1     -31.482  28.915   6.576  0.00  0.00    +0.168 C 
ATOM     16  C   UNL     1     -30.562  29.328   5.611  0.00  0.00    +0.172 C 
ATOM     17  C   UNL     1     -30.690  28.892   4.293  0.00  0.00    +0.040 C 
BRANCH  16  18
ATOM     18  O   UNL     1     -29.534  30.156   5.947  0.00  0.00    -0.468 OA
ATOM     19  C   UNL     1     -28.261  29.553   6.166  0.00  0.00    +0.253 C 
ENDBRANCH  16  18
BRANCH  15  20
ATOM     20  O   UNL     1     -31.368  29.333   7.867  0.00  0.00    -0.503 OA
ATOM     21  H   UNL     1     -30.530  29.567   8.211  0.00  0.00    +0.292 HD
ENDBRANCH  15  20
ENDBRANCH   4  12
BRANCH   6  22
ATOM     22  O   UNL     1     -34.929  28.430   3.298  0.00  0.00    -0.501 OA
ATOM     23  H   UNL     1     -34.169  28.970   3.212  0.00  0.00    +0.292 HD
ENDBRANCH   6  22
BRANCH   8  24
ATOM     24  O   UNL     1     -37.775  24.050   2.968  0.00  0.00    -0.505 OA
ATOM     25  H   UNL     1     -38.061  24.929   2.819  0.00  0.00    +0.292 HD
ENDBRANCH   8  24
BRANCH  10  26
ATOM     26  O   UNL     1     -35.135  20.971   5.438  0.00  0.00    -0.505 OA
ATOM     27  H   UNL     1     -35.854  20.373   5.478  0.00  0.00    +0.292 HD
ENDBRANCH  10  26
TORSDOF 6
ENDMDL
MODEL 5
REMARK VINA RESULT:      -6.0      2.932      8.246
REMARK  Name = 5281699
REMARK  6 active torsions:
REMARK  status: ('A' for Active; 'I' for Inactive)
REMARK    1  A    between atoms: C_4  and  C_12
REMARK    2  A    between atoms: C_6  and  O_22
REMARK    3  A    between atoms: C_8  and  O_24
REMARK    4  A    between atoms: C_10  and  O_26
REMARK    5  A    between atoms: C_15  and  O_20
REMARK    6  A    between atoms: C_16  and  O_18
REMARK                            x       y       z     vdW  Elec       q    Type
REMARK                         _______ _______ _______ _____ _____    ______ ____
ROOT
ATOM      1  O   UNL     1     -37.701  23.211   2.245  0.00  0.00    -0.450 OA
ATOM      2  O   UNL     1     -35.173  20.538   3.997  0.00  0.00    -0.283 OA
ATOM      3  C   UNL     1     -36.074  22.718   3.978  0.00  0.00    +0.110 A 
ATOM      4  C   UNL     1     -37.583  21.913   1.776  0.00  0.00    +0.182 A 
ATOM      5  C   UNL     1     -36.954  23.585   3.333  0.00  0.00    +0.155 A 
ATOM      6  C   UNL     1     -36.764  20.983   2.301  0.00  0.00    +0.208 A 
ATOM      7  C   UNL     1     -35.933  21.342   3.476  0.00  0.00    +0.238 A 
ATOM      8  C   UNL     1     -35.337  23.153   5.082  0.00  0.00    +0.143 C 
ATOM      9  C   UNL     1     -37.103  24.894   3.788  0.00  0.00    +0.074 C 
ATOM     10  C   UNL     1     -36.369  25.333   4.892  0.00  0.00    +0.140 C 
ATOM     11  C   UNL     1     -35.488  24.464   5.536  0.00  0.00    +0.073 C 
ENDROOT
BRANCH   4  12
ATOM     12  C   UNL     1     -38.437  21.646   0.605  0.00  0.00    +0.041 C 
ATOM     13  C   UNL     1     -39.763  21.249   0.784  0.00  0.00    +0.043 C 
ATOM     14  C   UNL     1     -37.921  21.790  -0.683  0.00  0.00    +0.006 C 
ATOM     15  C   UNL     1     -40.571  20.996  -0.324  0.00  0.00    +0.168 C 
ATOM     16  C   UNL     1     -40.054  21.141  -1.612  0.00  0.00    +0.172 C 
ATOM     17  C   UNL     1     -38.729  21.538  -1.791  0.00  0.00    +0.040 C 
BRANCH  16  18
ATOM     18  O   UNL     1     -40.834  20.897  -2.702  0.00  0.00    -0.468 OA
ATOM     19  C   UNL     1     -40.612  19.672  -3.397  0.00  0.00    +0.253 C 
ENDBRANCH  16  18
BRANCH  15  20
ATOM     20  O   UNL     1     -41.864  20.609  -0.136  0.00  0.00    -0.503 OA
ATOM     21  H   UNL     1     -42.541  20.955  -0.682  0.00  0.00    +0.292 HD
ENDBRANCH  15  20
ENDBRANCH   4  12
BRANCH   6  22
ATOM     22  O   UNL     1     -36.646  19.709   1.789  0.00  0.00    -0.501 OA
ATOM     23  H   UNL     1     -37.110  19.473   1.010  0.00  0.00    +0.292 HD
ENDBRANCH   6  22
BRANCH   8  24
ATOM     24  O   UNL     1     -34.464  22.347   5.747  0.00  0.00    -0.505 OA
ATOM     25  H   UNL     1     -33.650  22.693   6.058  0.00  0.00    +0.292 HD
ENDBRANCH   8  24
BRANCH  10  26
ATOM     26  O   UNL     1     -36.513  26.611   5.338  0.00  0.00    -0.505 OA
ATOM     27  H   UNL     1     -35.758  27.151   5.467  0.00  0.00    +0.292 HD
ENDBRANCH  10  26
TORSDOF 6
ENDMDL
MODEL 6
REMARK VINA RESULT:      -5.9      1.707      3.172
REMARK  Name = 5281699
REMARK  6 active torsions:
REMARK  status: ('A' for Active; 'I' for Inactive)
REMARK    1  A    between atoms: C_4  and  C_12
REMARK    2  A    between atoms: C_6  and  O_22
REMARK    3  A    between atoms: C_8  and  O_24
REMARK    4  A    between atoms: C_10  and  O_26
REMARK    5  A    between atoms: C_15  and  O_20
REMARK    6  A    between atoms: C_16  and  O_18
REMARK                            x       y       z     vdW  Elec       q    Type
REMARK                         _______ _______ _______ _____ _____    ______ ____
ROOT
ATOM      1  O   UNL     1     -35.219  21.736   2.515  0.00  0.00    -0.450 OA
ATOM      2  O   UNL     1     -39.099  21.231   1.374  0.00  0.00    -0.283 OA
ATOM      3  C   UNL     1     -36.867  20.478   1.252  0.00  0.00    +0.110 A 
ATOM      4  C   UNL     1     -36.222  22.579   2.967  0.00  0.00    +0.182 A 
ATOM      5  C   UNL     1     -35.559  20.705   1.677  0.00  0.00    +0.155 A 
ATOM      6  C   UNL     1     -37.519  22.475   2.625  0.00  0.00    +0.208 A 
ATOM      7  C   UNL     1     -37.933  21.378   1.717  0.00  0.00    +0.238 A 
ATOM      8  C   UNL     1     -37.155  19.412   0.396  0.00  0.00    +0.143 C 
ATOM      9  C   UNL     1     -34.530  19.869   1.247  0.00  0.00    +0.074 C 
ATOM     10  C   UNL     1     -34.814  18.802   0.393  0.00  0.00    +0.140 C 
ATOM     11  C   UNL     1     -36.124  18.575  -0.032  0.00  0.00    +0.073 C 
ENDROOT
BRANCH   4  12
ATOM     12  C   UNL     1     -35.720  23.642   3.857  0.00  0.00    +0.041 C 
ATOM     13  C   UNL     1     -35.869  24.982   3.499  0.00  0.00    +0.043 C 
ATOM     14  C   UNL     1     -35.097  23.307   5.061  0.00  0.00    +0.006 C 
ATOM     15  C   UNL     1     -35.394  25.987   4.341  0.00  0.00    +0.168 C 
ATOM     16  C   UNL     1     -34.771  25.652   5.544  0.00  0.00    +0.172 C 
ATOM     17  C   UNL     1     -34.623  24.312   5.903  0.00  0.00    +0.040 C 
BRANCH  16  18
ATOM     18  O   UNL     1     -34.304  26.625   6.375  0.00  0.00    -0.468 OA
ATOM     19  C   UNL     1     -32.936  27.000   6.230  0.00  0.00    +0.253 C 
ENDBRANCH  16  18
BRANCH  15  20
ATOM     20  O   UNL     1     -35.546  27.291   3.979  0.00  0.00    -0.503 OA
ATOM     21  H   UNL     1     -35.220  27.972   4.532  0.00  0.00    +0.292 HD
ENDBRANCH  15  20
ENDBRANCH   4  12
BRANCH   6  22
ATOM     22  O   UNL     1     -38.486  23.351   3.067  0.00  0.00    -0.501 OA
ATOM     23  H   UNL     1     -38.322  24.274   3.059  0.00  0.00    +0.292 HD
ENDBRANCH   6  22
BRANCH   8  24
ATOM     24  O   UNL     1     -38.415  19.146  -0.048  0.00  0.00    -0.505 OA
ATOM     25  H   UNL     1     -38.964  19.846  -0.345  0.00  0.00    +0.292 HD
ENDBRANCH   8  24
BRANCH  10  26
ATOM     26  O   UNL     1     -33.811  17.983  -0.028  0.00  0.00    -0.505 OA
ATOM     27  H   UNL     1     -33.009  17.938   0.454  0.00  0.00    +0.292 HD
ENDBRANCH  10  26
TORSDOF 6
ENDMDL
MODEL 7
REMARK VINA RESULT:      -5.9      2.714      7.632
REMARK  Name = 5281699
REMARK  6 active torsions:
REMARK  status: ('A' for Active; 'I' for Inactive)
REMARK    1  A    between atoms: C_4  and  C_12
REMARK    2  A    between atoms: C_6  and  O_22
REMARK    3  A    between atoms: C_8  and  O_24
REMARK    4  A    between atoms: C_10  and  O_26
REMARK    5  A    between atoms: C_15  and  O_20
REMARK    6  A    between atoms: C_16  and  O_18
REMARK                            x       y       z     vdW  Elec       q    Type
REMARK                         _______ _______ _______ _____ _____    ______ ____
ROOT
ATOM      1  O   UNL     1     -35.383  23.071   1.935  0.00  0.00    -0.450 OA
ATOM      2  O   UNL     1     -35.695  23.074   5.998  0.00  0.00    -0.283 OA
ATOM      3  C   UNL     1     -35.555  24.327   4.005  0.00  0.00    +0.110 A 
ATOM      4  C   UNL     1     -35.443  21.890   2.656  0.00  0.00    +0.182 A 
ATOM      5  C   UNL     1     -35.446  24.259   2.618  0.00  0.00    +0.155 A 
ATOM      6  C   UNL     1     -35.538  21.818   3.997  0.00  0.00    +0.208 A 
ATOM      7  C   UNL     1     -35.605  23.077   4.778  0.00  0.00    +0.238 A 
ATOM      8  C   UNL     1     -35.614  25.566   4.647  0.00  0.00    +0.143 C 
ATOM      9  C   UNL     1     -35.394  25.430   1.863  0.00  0.00    +0.074 C 
ATOM     10  C   UNL     1     -35.453  26.670   2.501  0.00  0.00    +0.140 C 
ATOM     11  C   UNL     1     -35.562  26.737   3.890  0.00  0.00    +0.073 C 
ENDROOT
BRANCH   4  12
ATOM     12  C   UNL     1     -35.364  20.691   1.803  0.00  0.00    +0.041 C 
ATOM     13  C   UNL     1     -36.530  20.116   1.296  0.00  0.00    +0.043 C 
ATOM     14  C   UNL     1     -34.123  20.130   1.500  0.00  0.00    +0.006 C 
ATOM     15  C   UNL     1     -36.455  18.982   0.488  0.00  0.00    +0.168 C 
ATOM     16  C   UNL     1     -35.214  18.421   0.186  0.00  0.00    +0.172 C 
ATOM     17  C   UNL     1     -34.048  18.996   0.692  0.00  0.00    +0.040 C 
BRANCH  16  18
ATOM     18  O   UNL     1     -35.128  17.314  -0.602  0.00  0.00    -0.468 OA
ATOM     19  C   UNL     1     -34.429  16.191  -0.069  0.00  0.00    +0.253 C 
ENDBRANCH  16  18
BRANCH  15  20
ATOM     20  O   UNL     1     -37.602  18.430  -0.000  0.00  0.00    -0.503 OA
ATOM     21  H   UNL     1     -37.879  17.587   0.297  0.00  0.00    +0.292 HD
ENDBRANCH  15  20
ENDBRANCH   4  12
BRANCH   6  22
ATOM     22  O   UNL     1     -35.562  20.625   4.687  0.00  0.00    -0.501 OA
ATOM     23  H   UNL     1     -35.077  19.889   4.367  0.00  0.00    +0.292 HD
ENDBRANCH   6  22
BRANCH   8  24
ATOM     24  O   UNL     1     -35.721  25.689   6.000  0.00  0.00    -0.505 OA
ATOM     25  H   UNL     1     -35.078  25.296   6.558  0.00  0.00    +0.292 HD
ENDBRANCH   8  24
BRANCH  10  26
ATOM     26  O   UNL     1     -35.403  27.815   1.766  0.00  0.00    -0.505 OA
ATOM     27  H   UNL     1     -35.720  28.619   2.127  0.00  0.00    +0.292 HD
ENDBRANCH  10  26
TORSDOF 6
ENDMDL
MODEL 8
REMARK VINA RESULT:      -5.7      3.751      6.870
REMARK  Name = 5281699
REMARK  6 active torsions:
REMARK  status: ('A' for Active; 'I' for Inactive)
REMARK    1  A    between atoms: C_4  and  C_12
REMARK    2  A    between atoms: C_6  and  O_22
REMARK    3  A    between atoms: C_8  and  O_24
REMARK    4  A    between atoms: C_10  and  O_26
REMARK    5  A    between atoms: C_15  and  O_20
REMARK    6  A    between atoms: C_16  and  O_18
REMARK                            x       y       z     vdW  Elec       q    Type
REMARK                         _______ _______ _______ _____ _____    ______ ____
ROOT
ATOM      1  O   UNL     1     -35.589  22.294   1.920  0.00  0.00    -0.450 OA
ATOM      2  O   UNL     1     -39.101  20.623   0.704  0.00  0.00    -0.283 OA
ATOM      3  C   UNL     1     -38.014  22.370   1.857  0.00  0.00    +0.110 A 
ATOM      4  C   UNL     1     -35.614  21.133   1.165  0.00  0.00    +0.182 A 
ATOM      5  C   UNL     1     -36.781  22.890   2.244  0.00  0.00    +0.155 A 
ATOM      6  C   UNL     1     -36.735  20.524   0.737  0.00  0.00    +0.208 A 
ATOM      7  C   UNL     1     -38.048  21.129   1.068  0.00  0.00    +0.238 A 
ATOM      8  C   UNL     1     -39.198  23.019   2.218  0.00  0.00    +0.143 C 
ATOM      9  C   UNL     1     -36.723  24.063   2.996  0.00  0.00    +0.074 C 
ATOM     10  C   UNL     1     -37.903  24.715   3.357  0.00  0.00    +0.140 C 
ATOM     11  C   UNL     1     -39.137  24.193   2.969  0.00  0.00    +0.073 C 
ENDROOT
BRANCH   4  12
ATOM     12  C   UNL     1     -34.268  20.598   0.890  0.00  0.00    +0.041 C 
ATOM     13  C   UNL     1     -33.868  19.387   1.456  0.00  0.00    +0.043 C 
ATOM     14  C   UNL     1     -33.393  21.303   0.061  0.00  0.00    +0.006 C 
ATOM     15  C   UNL     1     -32.594  18.882   1.195  0.00  0.00    +0.168 C 
ATOM     16  C   UNL     1     -31.720  19.587   0.367  0.00  0.00    +0.172 C 
ATOM     17  C   UNL     1     -32.120  20.797  -0.200  0.00  0.00    +0.040 C 
BRANCH  16  18
ATOM     18  O   UNL     1     -30.474  19.103   0.105  0.00  0.00    -0.468 OA
ATOM     19  C   UNL     1     -30.219  18.658  -1.226  0.00  0.00    +0.253 C 
ENDBRANCH  16  18
BRANCH  15  20
ATOM     20  O   UNL     1     -32.216  17.699   1.755  0.00  0.00    -0.503 OA
ATOM     21  H   UNL     1     -31.573  17.687   2.436  0.00  0.00    +0.292 HD
ENDBRANCH  15  20
ENDBRANCH   4  12
BRANCH   6  22
ATOM     22  O   UNL     1     -36.725  19.350   0.016  0.00  0.00    -0.501 OA
ATOM     23  H   UNL     1     -35.972  18.793   0.038  0.00  0.00    +0.292 HD
ENDBRANCH   6  22
BRANCH   8  24
ATOM     24  O   UNL     1     -40.428  22.553   1.865  0.00  0.00    -0.505 OA
ATOM     25  H   UNL     1     -40.726  22.640   0.981  0.00  0.00    +0.292 HD
ENDBRANCH   8  24
BRANCH  10  26
ATOM     26  O   UNL     1     -37.848  25.860   4.090  0.00  0.00    -0.505 OA
ATOM     27  H   UNL     1     -37.972  26.690   3.675  0.00  0.00    +0.292 HD
ENDBRANCH  10  26
TORSDOF 6
ENDMDL
MODEL 9
REMARK VINA RESULT:      -5.7      4.276      7.560
REMARK  Name = 5281699
REMARK  6 active torsions:
REMARK  status: ('A' for Active; 'I' for Inactive)
REMARK    1  A    between atoms: C_4  and  C_12
REMARK    2  A    between atoms: C_6  and  O_22
REMARK    3  A    between atoms: C_8  and  O_24
REMARK    4  A    between atoms: C_10  and  O_26
REMARK    5  A    between atoms: C_15  and  O_20
REMARK    6  A    between atoms: C_16  and  O_18
REMARK                            x       y       z     vdW  Elec       q    Type
REMARK                         _______ _______ _______ _____ _____    ______ ____
ROOT
ATOM      1  O   UNL     1     -34.633  20.783   1.670  0.00  0.00    -0.450 OA
ATOM      2  O   UNL     1     -37.837  19.019  -0.128  0.00  0.00    -0.283 OA
ATOM      3  C   UNL     1     -37.032  20.714   1.301  0.00  0.00    +0.110 A 
ATOM      4  C   UNL     1     -34.480  19.698   0.822  0.00  0.00    +0.182 A 
ATOM      5  C   UNL     1     -35.897  21.271   1.887  0.00  0.00    +0.155 A 
ATOM      6  C   UNL     1     -35.492  19.064   0.203  0.00  0.00    +0.208 A 
ATOM      7  C   UNL     1     -36.877  19.553   0.411  0.00  0.00    +0.238 A 
ATOM      8  C   UNL     1     -38.295  21.252   1.559  0.00  0.00    +0.143 C 
ATOM      9  C   UNL     1     -36.018  22.369   2.737  0.00  0.00    +0.074 C 
ATOM     10  C   UNL     1     -37.278  22.910   2.997  0.00  0.00    +0.140 C 
ATOM     11  C   UNL     1     -38.414  22.352   2.409  0.00  0.00    +0.073 C 
ENDROOT
BRANCH   4  12
ATOM     12  C   UNL     1     -33.075  19.276   0.679  0.00  0.00    +0.041 C 
ATOM     13  C   UNL     1     -32.168  20.086  -0.006  0.00  0.00    +0.043 C 
ATOM     14  C   UNL     1     -32.650  18.065   1.228  0.00  0.00    +0.006 C 
ATOM     15  C   UNL     1     -30.839  19.686  -0.142  0.00  0.00    +0.168 C 
ATOM     16  C   UNL     1     -30.416  18.476   0.408  0.00  0.00    +0.172 C 
ATOM     17  C   UNL     1     -31.321  17.666   1.093  0.00  0.00    +0.040 C 
BRANCH  16  18
ATOM     18  O   UNL     1     -29.120  18.075   0.282  0.00  0.00    -0.468 OA
ATOM     19  C   UNL     1     -28.499  17.516   1.438  0.00  0.00    +0.253 C 
ENDBRANCH  16  18
BRANCH  15  20
ATOM     20  O   UNL     1     -29.965  20.487  -0.813  0.00  0.00    -0.503 OA
ATOM     21  H   UNL     1     -29.372  21.035  -0.338  0.00  0.00    +0.292 HD
ENDBRANCH  15  20
ENDBRANCH   4  12
BRANCH   6  22
ATOM     22  O   UNL     1     -35.308  17.966  -0.609  0.00  0.00    -0.501 OA
ATOM     23  H   UNL     1     -35.853  17.210  -0.506  0.00  0.00    +0.292 HD
ENDBRANCH   6  22
BRANCH   8  24
ATOM     24  O   UNL     1     -39.435  20.746   1.012  0.00  0.00    -0.505 OA
ATOM     25  H   UNL     1     -40.222  20.711   1.519  0.00  0.00    +0.292 HD
ENDBRANCH   8  24
BRANCH  10  26
ATOM     26  O   UNL     1     -37.398  23.983   3.826  0.00  0.00    -0.505 OA
ATOM     27  H   UNL     1     -37.017  24.805   3.588  0.00  0.00    +0.292 HD
ENDBRANCH  10  26
TORSDOF 6
ENDMDL
