MODEL 1
REMARK VINA RESULT:      -6.4      0.000      0.000
REMARK  Name = 57381727
REMARK  9 active torsions:
REMARK  status: ('A' for Active; 'I' for Inactive)
REMARK    1  A    between atoms: C_5  and  C_12
REMARK    2  A    between atoms: C_7  and  O_28
REMARK    3  A    between atoms: C_10  and  O_26
REMARK    4  A    between atoms: C_11  and  O_30
REMARK    5  A    between atoms: C_13  and  O_18
REMARK    6  A    between atoms: O_18  and  C_19
REMARK    7  A    between atoms: C_19  and  C_20
REMARK    8  A    between atoms: C_20  and  C_21
REMARK    9  A    between atoms: C_20  and  O_24
REMARK                            x       y       z     vdW  Elec       q    Type
REMARK                         _______ _______ _______ _____ _____    ______ ____
ROOT
ATOM      1  O   UNL     1     -35.471  18.731   0.246  0.00  0.00    -0.453 OA
ATOM      2  O   UNL     1     -31.783  17.629   1.583  0.00  0.00    -0.286 OA
ATOM      3  C   UNL     1     -33.666  17.106   0.253  0.00  0.00    +0.110 C 
ATOM      4  C   UNL     1     -34.921  17.544  -0.166  0.00  0.00    +0.154 C 
ATOM      5  C   UNL     1     -34.748  19.525   1.125  0.00  0.00    +0.148 C 
ATOM      6  C   UNL     1     -32.892  17.949   1.176  0.00  0.00    +0.205 C 
ATOM      7  C   UNL     1     -33.155  15.888  -0.201  0.00  0.00    +0.177 C 
ATOM      8  C   UNL     1     -33.529  19.215   1.593  0.00  0.00    +0.080 C 
ATOM      9  C   UNL     1     -35.675  16.764  -1.043  0.00  0.00    +0.078 C 
ATOM     10  C   UNL     1     -33.912  15.110  -1.078  0.00  0.00    +0.206 C 
ATOM     11  C   UNL     1     -35.169  15.546  -1.498  0.00  0.00    +0.174 C 
ENDROOT
BRANCH   5  12
ATOM     12  C   UNL     1     -35.430  20.780   1.499  0.00  0.00    +0.035 C 
ATOM     13  C   UNL     1     -36.719  23.151   2.204  0.00  0.00    +0.139 C 
ATOM     14  C   UNL     1     -36.754  20.750   1.938  0.00  0.00    +0.006 C 
ATOM     15  C   UNL     1     -34.750  21.995   1.414  0.00  0.00    +0.006 C 
ATOM     16  C   UNL     1     -37.399  21.936   2.289  0.00  0.00    +0.037 C 
ATOM     17  C   UNL     1     -35.394  23.180   1.767  0.00  0.00    +0.037 C 
BRANCH  13  18
ATOM     18  O   UNL     1     -37.349  24.307   2.548  0.00  0.00    -0.472 OA
BRANCH  18  19
ATOM     19  C   UNL     1     -36.560  25.311   3.188  0.00  0.00    +0.239 C 
BRANCH  19  20
ATOM     20  C   UNL     1     -36.595  25.116   4.703  0.00  0.00    +0.172 C 
BRANCH  20  21
ATOM     21  C   UNL     1     -35.336  24.479   5.254  0.00  0.00    -0.014 C 
ATOM     22  C   UNL     1     -35.403  23.047   5.707  0.00  0.00    +0.029 C 
ATOM     23  C   UNL     1     -34.185  25.168   5.328  0.00  0.00    -0.007 C 
ENDBRANCH  20  21
BRANCH  20  24
ATOM     24  O   UNL     1     -36.780  26.382   5.335  0.00  0.00    -0.377 OA
ATOM     25  H   UNL     1     -37.580  26.803   4.986  0.00  0.00    +0.211 HD
ENDBRANCH  20  24
ENDBRANCH  19  20
ENDBRANCH  18  19
ENDBRANCH  13  18
ENDBRANCH   5  12
BRANCH  10  26
ATOM     26  O   UNL     1     -33.424  13.918  -1.528  0.00  0.00    -0.465 OA
ATOM     27  C   UNL     1     -32.675  13.942  -2.741  0.00  0.00    +0.253 C 
ENDBRANCH  10  26
BRANCH   7  28
ATOM     28  O   UNL     1     -31.932  15.427   0.187  0.00  0.00    -0.503 OA
ATOM     29  H   UNL     1     -31.157  15.894  -0.057  0.00  0.00    +0.292 HD
ENDBRANCH   7  28
BRANCH  11  30
ATOM     30  O   UNL     1     -35.913  14.791  -2.354  0.00  0.00    -0.503 OA
ATOM     31  H   UNL     1     -36.266  13.971  -2.070  0.00  0.00    +0.292 HD
ENDBRANCH  11  30
TORSDOF 9
ENDMDL
MODEL 2
REMARK VINA RESULT:      -6.4      5.240      7.932
REMARK  Name = 57381727
REMARK  9 active torsions:
REMARK  status: ('A' for Active; 'I' for Inactive)
REMARK    1  A    between atoms: C_5  and  C_12
REMARK    2  A    between atoms: C_7  and  O_28
REMARK    3  A    between atoms: C_10  and  O_26
REMARK    4  A    between atoms: C_11  and  O_30
REMARK    5  A    between atoms: C_13  and  O_18
REMARK    6  A    between atoms: O_18  and  C_19
REMARK    7  A    between atoms: C_19  and  C_20
REMARK    8  A    between atoms: C_20  and  C_21
REMARK    9  A    between atoms: C_20  and  O_24
REMARK                            x       y       z     vdW  Elec       q    Type
REMARK                         _______ _______ _______ _____ _____    ______ ____
ROOT
ATOM      1  O   UNL     1     -36.622  25.016   3.576  0.00  0.00    -0.453 OA
ATOM      2  O   UNL     1     -35.611  21.095   3.126  0.00  0.00    -0.286 OA
ATOM      3  C   UNL     1     -37.253  22.776   2.878  0.00  0.00    +0.110 C 
ATOM      4  C   UNL     1     -37.532  24.130   3.057  0.00  0.00    +0.154 C 
ATOM      5  C   UNL     1     -35.373  24.540   3.944  0.00  0.00    +0.148 C 
ATOM      6  C   UNL     1     -35.925  22.269   3.258  0.00  0.00    +0.205 C 
ATOM      7  C   UNL     1     -38.219  21.920   2.344  0.00  0.00    +0.177 C 
ATOM      8  C   UNL     1     -34.983  23.262   3.814  0.00  0.00    +0.080 C 
ATOM      9  C   UNL     1     -38.783  24.636   2.703  0.00  0.00    +0.078 C 
ATOM     10  C   UNL     1     -39.469  22.430   1.991  0.00  0.00    +0.206 C 
ATOM     11  C   UNL     1     -39.751  23.784   2.170  0.00  0.00    +0.174 C 
ENDROOT
BRANCH   5  12
ATOM     12  C   UNL     1     -34.471  25.577   4.485  0.00  0.00    +0.035 C 
ATOM     13  C   UNL     1     -32.771  27.537   5.507  0.00  0.00    +0.139 C 
ATOM     14  C   UNL     1     -34.240  25.652   5.859  0.00  0.00    +0.006 C 
ATOM     15  C   UNL     1     -33.852  26.481   3.622  0.00  0.00    +0.006 C 
ATOM     16  C   UNL     1     -33.390  26.633   6.369  0.00  0.00    +0.037 C 
ATOM     17  C   UNL     1     -33.001  27.461   4.132  0.00  0.00    +0.037 C 
BRANCH  13  18
ATOM     18  O   UNL     1     -31.941  28.494   6.006  0.00  0.00    -0.472 OA
BRANCH  18  19
ATOM     19  C   UNL     1     -30.797  28.835   5.223  0.00  0.00    +0.239 C 
BRANCH  19  20
ATOM     20  C   UNL     1     -29.522  28.392   5.940  0.00  0.00    +0.172 C 
BRANCH  20  21
ATOM     21  C   UNL     1     -28.746  29.542   6.548  0.00  0.00    -0.014 C 
ATOM     22  C   UNL     1     -28.335  29.438   7.990  0.00  0.00    +0.029 C 
ATOM     23  C   UNL     1     -28.421  30.622   5.818  0.00  0.00    -0.007 C 
ENDBRANCH  20  21
BRANCH  20  24
ATOM     24  O   UNL     1     -29.862  27.472   6.976  0.00  0.00    -0.377 OA
ATOM     25  H   UNL     1     -30.422  26.769   6.613  0.00  0.00    +0.211 HD
ENDBRANCH  20  24
ENDBRANCH  19  20
ENDBRANCH  18  19
ENDBRANCH  13  18
ENDBRANCH   5  12
BRANCH  10  26
ATOM     26  O   UNL     1     -40.421  21.604   1.469  0.00  0.00    -0.465 OA
ATOM     27  C   UNL     1     -40.430  21.442   0.052  0.00  0.00    +0.253 C 
ENDBRANCH  10  26
BRANCH   7  28
ATOM     28  O   UNL     1     -37.981  20.591   2.154  0.00  0.00    -0.503 OA
ATOM     29  H   UNL     1     -38.622  20.057   1.727  0.00  0.00    +0.292 HD
ENDBRANCH   7  28
BRANCH  11  30
ATOM     30  O   UNL     1     -40.970  24.289   1.828  0.00  0.00    -0.503 OA
ATOM     31  H   UNL     1     -41.619  24.433   2.488  0.00  0.00    +0.292 HD
ENDBRANCH  11  30
TORSDOF 9
ENDMDL
MODEL 3
REMARK VINA RESULT:      -6.2      3.880     10.650
REMARK  Name = 57381727
REMARK  9 active torsions:
REMARK  status: ('A' for Active; 'I' for Inactive)
REMARK    1  A    between atoms: C_5  and  C_12
REMARK    2  A    between atoms: C_7  and  O_28
REMARK    3  A    between atoms: C_10  and  O_26
REMARK    4  A    between atoms: C_11  and  O_30
REMARK    5  A    between atoms: C_13  and  O_18
REMARK    6  A    between atoms: O_18  and  C_19
REMARK    7  A    between atoms: C_19  and  C_20
REMARK    8  A    between atoms: C_20  and  C_21
REMARK    9  A    between atoms: C_20  and  O_24
REMARK                            x       y       z     vdW  Elec       q    Type
REMARK                         _______ _______ _______ _____ _____    ______ ____
ROOT
ATOM      1  O   UNL     1     -33.704  26.935   3.763  0.00  0.00    -0.453 OA
ATOM      2  O   UNL     1     -32.691  27.168   7.703  0.00  0.00    -0.286 OA
ATOM      3  C   UNL     1     -32.490  28.077   5.531  0.00  0.00    +0.110 C 
ATOM      4  C   UNL     1     -32.877  27.939   4.199  0.00  0.00    +0.154 C 
ATOM      5  C   UNL     1     -34.168  26.013   4.690  0.00  0.00    +0.148 C 
ATOM      6  C   UNL     1     -32.988  27.107   6.518  0.00  0.00    +0.205 C 
ATOM      7  C   UNL     1     -31.645  29.120   5.917  0.00  0.00    +0.177 C 
ATOM      8  C   UNL     1     -33.872  26.044   5.999  0.00  0.00    +0.080 C 
ATOM      9  C   UNL     1     -32.420  28.847   3.242  0.00  0.00    +0.078 C 
ATOM     10  C   UNL     1     -31.190  30.026   4.958  0.00  0.00    +0.206 C 
ATOM     11  C   UNL     1     -31.576  29.890   3.624  0.00  0.00    +0.174 C 
ENDROOT
BRANCH   5  12
ATOM     12  C   UNL     1     -35.054  24.980   4.116  0.00  0.00    +0.035 C 
ATOM     13  C   UNL     1     -36.729  23.030   3.033  0.00  0.00    +0.139 C 
ATOM     14  C   UNL     1     -35.794  25.257   2.966  0.00  0.00    +0.006 C 
ATOM     15  C   UNL     1     -35.150  23.728   4.724  0.00  0.00    +0.006 C 
ATOM     16  C   UNL     1     -36.632  24.282   2.425  0.00  0.00    +0.037 C 
ATOM     17  C   UNL     1     -35.987  22.753   4.183  0.00  0.00    +0.037 C 
BRANCH  13  18
ATOM     18  O   UNL     1     -37.546  22.080   2.505  0.00  0.00    -0.472 OA
BRANCH  18  19
ATOM     19  C   UNL     1     -37.209  21.578   1.212  0.00  0.00    +0.239 C 
BRANCH  19  20
ATOM     20  C   UNL     1     -36.427  20.272   1.344  0.00  0.00    +0.172 C 
BRANCH  20  21
ATOM     21  C   UNL     1     -34.927  20.458   1.250  0.00  0.00    -0.014 C 
ATOM     22  C   UNL     1     -34.405  21.762   0.715  0.00  0.00    +0.029 C 
ATOM     23  C   UNL     1     -34.083  19.490   1.643  0.00  0.00    -0.007 C 
ENDBRANCH  20  21
BRANCH  20  24
ATOM     24  O   UNL     1     -36.734  19.667   2.600  0.00  0.00    -0.377 OA
ATOM     25  H   UNL     1     -37.216  20.299   3.154  0.00  0.00    +0.211 HD
ENDBRANCH  20  24
ENDBRANCH  19  20
ENDBRANCH  18  19
ENDBRANCH  13  18
ENDBRANCH   5  12
BRANCH  10  26
ATOM     26  O   UNL     1     -30.364  31.049   5.323  0.00  0.00    -0.465 OA
ATOM     27  C   UNL     1     -28.962  30.796   5.277  0.00  0.00    +0.253 C 
ENDBRANCH  10  26
BRANCH   7  28
ATOM     28  O   UNL     1     -31.246  29.286   7.210  0.00  0.00    -0.503 OA
ATOM     29  H   UNL     1     -31.839  29.642   7.841  0.00  0.00    +0.292 HD
ENDBRANCH   7  28
BRANCH  11  30
ATOM     30  O   UNL     1     -31.135  30.771   2.682  0.00  0.00    -0.503 OA
ATOM     31  H   UNL     1     -31.735  31.371   2.284  0.00  0.00    +0.292 HD
ENDBRANCH  11  30
TORSDOF 9
ENDMDL
MODEL 4
REMARK VINA RESULT:      -6.2      1.476      2.685
REMARK  Name = 57381727
REMARK  9 active torsions:
REMARK  status: ('A' for Active; 'I' for Inactive)
REMARK    1  A    between atoms: C_5  and  C_12
REMARK    2  A    between atoms: C_7  and  O_28
REMARK    3  A    between atoms: C_10  and  O_26
REMARK    4  A    between atoms: C_11  and  O_30
REMARK    5  A    between atoms: C_13  and  O_18
REMARK    6  A    between atoms: O_18  and  C_19
REMARK    7  A    between atoms: C_19  and  C_20
REMARK    8  A    between atoms: C_20  and  C_21
REMARK    9  A    between atoms: C_20  and  O_24
REMARK                            x       y       z     vdW  Elec       q    Type
REMARK                         _______ _______ _______ _____ _____    ______ ____
ROOT
ATOM      1  O   UNL     1     -33.874  19.296   1.451  0.00  0.00    -0.453 OA
ATOM      2  O   UNL     1     -35.915  17.023  -1.246  0.00  0.00    -0.286 OA
ATOM      3  C   UNL     1     -33.880  17.444  -0.121  0.00  0.00    +0.110 C 
ATOM      4  C   UNL     1     -33.242  18.259   0.812  0.00  0.00    +0.154 C 
ATOM      5  C   UNL     1     -35.204  19.547   1.146  0.00  0.00    +0.148 C 
ATOM      6  C   UNL     1     -35.293  17.700  -0.439  0.00  0.00    +0.205 C 
ATOM      7  C   UNL     1     -33.185  16.402  -0.740  0.00  0.00    +0.177 C 
ATOM      8  C   UNL     1     -35.927  18.829   0.272  0.00  0.00    +0.080 C 
ATOM      9  C   UNL     1     -31.903  18.037   1.133  0.00  0.00    +0.078 C 
ATOM     10  C   UNL     1     -31.846  16.181  -0.417  0.00  0.00    +0.206 C 
ATOM     11  C   UNL     1     -31.206  16.997   0.517  0.00  0.00    +0.174 C 
ENDROOT
BRANCH   5  12
ATOM     12  C   UNL     1     -35.787  20.680   1.893  0.00  0.00    +0.035 C 
ATOM     13  C   UNL     1     -36.887  22.821   3.301  0.00  0.00    +0.139 C 
ATOM     14  C   UNL     1     -36.897  21.353   1.382  0.00  0.00    +0.006 C 
ATOM     15  C   UNL     1     -35.228  21.075   3.108  0.00  0.00    +0.006 C 
ATOM     16  C   UNL     1     -37.446  22.425   2.087  0.00  0.00    +0.037 C 
ATOM     17  C   UNL     1     -35.778  22.146   3.812  0.00  0.00    +0.037 C 
BRANCH  13  18
ATOM     18  O   UNL     1     -37.424  23.866   3.988  0.00  0.00    -0.472 OA
BRANCH  18  19
ATOM     19  C   UNL     1     -36.773  25.130   3.860  0.00  0.00    +0.239 C 
BRANCH  19  20
ATOM     20  C   UNL     1     -36.119  25.519   5.184  0.00  0.00    +0.172 C 
BRANCH  20  21
ATOM     21  C   UNL     1     -34.614  25.670   5.089  0.00  0.00    -0.014 C 
ATOM     22  C   UNL     1     -33.933  25.212   3.830  0.00  0.00    +0.029 C 
ATOM     23  C   UNL     1     -33.907  26.207   6.096  0.00  0.00    -0.007 C 
ENDBRANCH  20  21
BRANCH  20  24
ATOM     24  O   UNL     1     -36.673  26.753   5.637  0.00  0.00    -0.377 OA
ATOM     25  H   UNL     1     -37.163  27.173   4.913  0.00  0.00    +0.211 HD
ENDBRANCH  20  24
ENDBRANCH  19  20
ENDBRANCH  18  19
ENDBRANCH  13  18
ENDBRANCH   5  12
BRANCH  10  26
ATOM     26  O   UNL     1     -31.157  15.167  -1.014  0.00  0.00    -0.465 OA
ATOM     27  C   UNL     1     -31.084  13.931  -0.307  0.00  0.00    +0.253 C 
ENDBRANCH  10  26
BRANCH   7  28
ATOM     28  O   UNL     1     -33.776  15.584  -1.657  0.00  0.00    -0.503 OA
ATOM     29  H   UNL     1     -33.272  15.234  -2.366  0.00  0.00    +0.292 HD
ENDBRANCH   7  28
BRANCH  11  30
ATOM     30  O   UNL     1     -29.897  16.788   0.837  0.00  0.00    -0.503 OA
ATOM     31  H   UNL     1     -29.671  16.440   1.677  0.00  0.00    +0.292 HD
ENDBRANCH  11  30
TORSDOF 9
ENDMDL
MODEL 5
REMARK VINA RESULT:      -6.1      3.855      6.798
REMARK  Name = 57381727
REMARK  9 active torsions:
REMARK  status: ('A' for Active; 'I' for Inactive)
REMARK    1  A    between atoms: C_5  and  C_12
REMARK    2  A    between atoms: C_7  and  O_28
REMARK    3  A    between atoms: C_10  and  O_26
REMARK    4  A    between atoms: C_11  and  O_30
REMARK    5  A    between atoms: C_13  and  O_18
REMARK    6  A    between atoms: O_18  and  C_19
REMARK    7  A    between atoms: C_19  and  C_20
REMARK    8  A    between atoms: C_20  and  C_21
REMARK    9  A    between atoms: C_20  and  O_24
REMARK                            x       y       z     vdW  Elec       q    Type
REMARK                         _______ _______ _______ _____ _____    ______ ____
ROOT
ATOM      1  O   UNL     1     -35.266  24.261   2.454  0.00  0.00    -0.453 OA
ATOM      2  O   UNL     1     -35.468  20.829   4.641  0.00  0.00    -0.286 OA
ATOM      3  C   UNL     1     -35.997  21.951   2.630  0.00  0.00    +0.110 C 
ATOM      4  C   UNL     1     -35.891  23.155   1.936  0.00  0.00    +0.154 C 
ATOM      5  C   UNL     1     -34.724  24.176   3.728  0.00  0.00    +0.148 C 
ATOM      6  C   UNL     1     -35.415  21.854   3.977  0.00  0.00    +0.205 C 
ATOM      7  C   UNL     1     -36.644  20.857   2.051  0.00  0.00    +0.177 C 
ATOM      8  C   UNL     1     -34.756  23.072   4.491  0.00  0.00    +0.080 C 
ATOM      9  C   UNL     1     -36.434  23.273   0.656  0.00  0.00    +0.078 C 
ATOM     10  C   UNL     1     -37.186  20.977   0.770  0.00  0.00    +0.206 C 
ATOM     11  C   UNL     1     -37.082  22.182   0.075  0.00  0.00    +0.174 C 
ENDROOT
BRANCH   5  12
ATOM     12  C   UNL     1     -34.072  25.420   4.186  0.00  0.00    +0.035 C 
ATOM     13  C   UNL     1     -32.843  27.769   5.051  0.00  0.00    +0.139 C 
ATOM     14  C   UNL     1     -33.984  25.699   5.550  0.00  0.00    +0.006 C 
ATOM     15  C   UNL     1     -33.545  26.314   3.254  0.00  0.00    +0.006 C 
ATOM     16  C   UNL     1     -33.370  26.875   5.982  0.00  0.00    +0.037 C 
ATOM     17  C   UNL     1     -32.930  27.489   3.687  0.00  0.00    +0.037 C 
BRANCH  13  18
ATOM     18  O   UNL     1     -32.244  28.916   5.473  0.00  0.00    -0.472 OA
BRANCH  18  19
ATOM     19  C   UNL     1     -31.433  28.832   6.645  0.00  0.00    +0.239 C 
BRANCH  19  20
ATOM     20  C   UNL     1     -29.993  28.490   6.263  0.00  0.00    +0.172 C 
BRANCH  20  21
ATOM     21  C   UNL     1     -29.000  29.570   6.639  0.00  0.00    -0.014 C 
ATOM     22  C   UNL     1     -28.389  29.527   8.011  0.00  0.00    +0.029 C 
ATOM     23  C   UNL     1     -28.664  30.536   5.768  0.00  0.00    -0.007 C 
ENDBRANCH  20  21
BRANCH  20  24
ATOM     24  O   UNL     1     -29.612  27.276   6.907  0.00  0.00    -0.377 OA
ATOM     25  H   UNL     1     -29.436  27.448   7.844  0.00  0.00    +0.211 HD
ENDBRANCH  20  24
ENDBRANCH  19  20
ENDBRANCH  18  19
ENDBRANCH  13  18
ENDBRANCH   5  12
BRANCH  10  26
ATOM     26  O   UNL     1     -37.821  19.916   0.194  0.00  0.00    -0.465 OA
ATOM     27  C   UNL     1     -37.015  19.010  -0.556  0.00  0.00    +0.253 C 
ENDBRANCH  10  26
BRANCH   7  28
ATOM     28  O   UNL     1     -36.768  19.663   2.699  0.00  0.00    -0.503 OA
ATOM     29  H   UNL     1     -36.520  19.592   3.600  0.00  0.00    +0.292 HD
ENDBRANCH   7  28
BRANCH  11  30
ATOM     30  O   UNL     1     -37.609  22.307  -1.176  0.00  0.00    -0.503 OA
ATOM     31  H   UNL     1     -37.277  21.783  -1.879  0.00  0.00    +0.292 HD
ENDBRANCH  11  30
TORSDOF 9
ENDMDL
MODEL 6
REMARK VINA RESULT:      -6.1      5.032      7.613
REMARK  Name = 57381727
REMARK  9 active torsions:
REMARK  status: ('A' for Active; 'I' for Inactive)
REMARK    1  A    between atoms: C_5  and  C_12
REMARK    2  A    between atoms: C_7  and  O_28
REMARK    3  A    between atoms: C_10  and  O_26
REMARK    4  A    between atoms: C_11  and  O_30
REMARK    5  A    between atoms: C_13  and  O_18
REMARK    6  A    between atoms: O_18  and  C_19
REMARK    7  A    between atoms: C_19  and  C_20
REMARK    8  A    between atoms: C_20  and  C_21
REMARK    9  A    between atoms: C_20  and  O_24
REMARK                            x       y       z     vdW  Elec       q    Type
REMARK                         _______ _______ _______ _____ _____    ______ ____
ROOT
ATOM      1  O   UNL     1     -36.836  24.743   3.342  0.00  0.00    -0.453 OA
ATOM      2  O   UNL     1     -35.662  20.872   2.851  0.00  0.00    -0.286 OA
ATOM      3  C   UNL     1     -37.367  22.490   2.606  0.00  0.00    +0.110 C 
ATOM      4  C   UNL     1     -37.703  23.829   2.800  0.00  0.00    +0.154 C 
ATOM      5  C   UNL     1     -35.572  24.312   3.719  0.00  0.00    +0.148 C 
ATOM      6  C   UNL     1     -36.025  22.032   2.996  0.00  0.00    +0.205 C 
ATOM      7  C   UNL     1     -38.292  21.604   2.049  0.00  0.00    +0.177 C 
ATOM      8  C   UNL     1     -35.130  23.053   3.576  0.00  0.00    +0.080 C 
ATOM      9  C   UNL     1     -38.969  24.290   2.438  0.00  0.00    +0.078 C 
ATOM     10  C   UNL     1     -39.557  22.068   1.687  0.00  0.00    +0.206 C 
ATOM     11  C   UNL     1     -39.895  23.408   1.881  0.00  0.00    +0.174 C 
ENDROOT
BRANCH   5  12
ATOM     12  C   UNL     1     -34.720  25.377   4.285  0.00  0.00    +0.035 C 
ATOM     13  C   UNL     1     -33.111  27.389   5.355  0.00  0.00    +0.139 C 
ATOM     14  C   UNL     1     -34.479  25.421   5.659  0.00  0.00    +0.006 C 
ATOM     15  C   UNL     1     -34.156  26.338   3.446  0.00  0.00    +0.006 C 
ATOM     16  C   UNL     1     -33.675  26.428   6.193  0.00  0.00    +0.037 C 
ATOM     17  C   UNL     1     -33.351  27.344   3.981  0.00  0.00    +0.037 C 
BRANCH  13  18
ATOM     18  O   UNL     1     -32.327  28.371   5.877  0.00  0.00    -0.472 OA
BRANCH  18  19
ATOM     19  C   UNL     1     -31.382  28.983   5.000  0.00  0.00    +0.239 C 
BRANCH  19  20
ATOM     20  C   UNL     1     -31.309  30.484   5.274  0.00  0.00    +0.172 C 
BRANCH  20  21
ATOM     21  C   UNL     1     -31.821  31.330   4.126  0.00  0.00    -0.014 C 
ATOM     22  C   UNL     1     -30.982  32.489   3.667  0.00  0.00    +0.029 C 
ATOM     23  C   UNL     1     -32.988  31.046   3.524  0.00  0.00    -0.007 C 
ENDBRANCH  20  21
BRANCH  20  24
ATOM     24  O   UNL     1     -32.074  30.786   6.440  0.00  0.00    -0.377 OA
ATOM     25  H   UNL     1     -31.480  30.880   7.201  0.00  0.00    +0.211 HD
ENDBRANCH  20  24
ENDBRANCH  19  20
ENDBRANCH  18  19
ENDBRANCH  13  18
ENDBRANCH   5  12
BRANCH  10  26
ATOM     26  O   UNL     1     -40.469  21.212   1.142  0.00  0.00    -0.465 OA
ATOM     27  C   UNL     1     -40.478  21.096  -0.279  0.00  0.00    +0.253 C 
ENDBRANCH  10  26
BRANCH   7  28
ATOM     28  O   UNL     1     -37.999  20.288   1.844  0.00  0.00    -0.503 OA
ATOM     29  H   UNL     1     -37.952  19.700   2.572  0.00  0.00    +0.292 HD
ENDBRANCH   7  28
BRANCH  11  30
ATOM     30  O   UNL     1     -41.129  23.868   1.531  0.00  0.00    -0.503 OA
ATOM     31  H   UNL     1     -41.329  24.780   1.609  0.00  0.00    +0.292 HD
ENDBRANCH  11  30
TORSDOF 9
ENDMDL
MODEL 7
REMARK VINA RESULT:      -6.1      1.703      3.176
REMARK  Name = 57381727
REMARK  9 active torsions:
REMARK  status: ('A' for Active; 'I' for Inactive)
REMARK    1  A    between atoms: C_5  and  C_12
REMARK    2  A    between atoms: C_7  and  O_28
REMARK    3  A    between atoms: C_10  and  O_26
REMARK    4  A    between atoms: C_11  and  O_30
REMARK    5  A    between atoms: C_13  and  O_18
REMARK    6  A    between atoms: O_18  and  C_19
REMARK    7  A    between atoms: C_19  and  C_20
REMARK    8  A    between atoms: C_20  and  C_21
REMARK    9  A    between atoms: C_20  and  O_24
REMARK                            x       y       z     vdW  Elec       q    Type
REMARK                         _______ _______ _______ _____ _____    ______ ____
ROOT
ATOM      1  O   UNL     1     -34.154  19.791   2.038  0.00  0.00    -0.453 OA
ATOM      2  O   UNL     1     -36.884  18.579  -0.734  0.00  0.00    -0.286 OA
ATOM      3  C   UNL     1     -34.734  18.302   0.208  0.00  0.00    +0.110 C 
ATOM      4  C   UNL     1     -33.848  18.765   1.179  0.00  0.00    +0.154 C 
ATOM      5  C   UNL     1     -35.396  20.397   1.926  0.00  0.00    +0.148 C 
ATOM      6  C   UNL     1     -36.056  18.935   0.093  0.00  0.00    +0.205 C 
ATOM      7  C   UNL     1     -34.368  17.252  -0.638  0.00  0.00    +0.177 C 
ATOM      8  C   UNL     1     -36.335  20.036   1.038  0.00  0.00    +0.080 C 
ATOM      9  C   UNL     1     -32.588  18.180   1.310  0.00  0.00    +0.078 C 
ATOM     10  C   UNL     1     -33.108  16.669  -0.506  0.00  0.00    +0.206 C 
ATOM     11  C   UNL     1     -32.219  17.132   0.466  0.00  0.00    +0.174 C 
ENDROOT
BRANCH   5  12
ATOM     12  C   UNL     1     -35.622  21.484   2.900  0.00  0.00    +0.035 C 
ATOM     13  C   UNL     1     -36.051  23.535   4.740  0.00  0.00    +0.139 C 
ATOM     14  C   UNL     1     -35.178  21.345   4.215  0.00  0.00    +0.006 C 
ATOM     15  C   UNL     1     -36.280  22.649   2.504  0.00  0.00    +0.006 C 
ATOM     16  C   UNL     1     -35.393  22.371   5.135  0.00  0.00    +0.037 C 
ATOM     17  C   UNL     1     -36.495  23.674   3.424  0.00  0.00    +0.037 C 
BRANCH  13  18
ATOM     18  O   UNL     1     -36.261  24.536   5.639  0.00  0.00    -0.472 OA
BRANCH  18  19
ATOM     19  C   UNL     1     -35.769  25.831   5.295  0.00  0.00    +0.239 C 
BRANCH  19  20
ATOM     20  C   UNL     1     -34.241  25.822   5.275  0.00  0.00    +0.172 C 
BRANCH  20  21
ATOM     21  C   UNL     1     -33.655  26.323   3.971  0.00  0.00    -0.014 C 
ATOM     22  C   UNL     1     -33.385  27.795   3.832  0.00  0.00    +0.029 C 
ATOM     23  C   UNL     1     -33.372  25.475   2.968  0.00  0.00    -0.007 C 
ENDBRANCH  20  21
BRANCH  20  24
ATOM     24  O   UNL     1     -33.752  26.638   6.338  0.00  0.00    -0.377 OA
ATOM     25  H   UNL     1     -34.296  26.499   7.129  0.00  0.00    +0.211 HD
ENDBRANCH  20  24
ENDBRANCH  19  20
ENDBRANCH  18  19
ENDBRANCH  13  18
ENDBRANCH   5  12
BRANCH  10  26
ATOM     26  O   UNL     1     -32.739  15.644  -1.326  0.00  0.00    -0.465 OA
ATOM     27  C   UNL     1     -32.068  15.993  -2.535  0.00  0.00    +0.253 C 
ENDBRANCH  10  26
BRANCH   7  28
ATOM     28  O   UNL     1     -35.208  16.773  -1.600  0.00  0.00    -0.503 OA
ATOM     29  H   UNL     1     -35.917  17.303  -1.909  0.00  0.00    +0.292 HD
ENDBRANCH   7  28
BRANCH  11  30
ATOM     30  O   UNL     1     -30.986  16.568   0.601  0.00  0.00    -0.503 OA
ATOM     31  H   UNL     1     -30.779  15.778   0.141  0.00  0.00    +0.292 HD
ENDBRANCH  11  30
TORSDOF 9
ENDMDL
MODEL 8
REMARK VINA RESULT:      -6.0      5.207     10.527
REMARK  Name = 57381727
REMARK  9 active torsions:
REMARK  status: ('A' for Active; 'I' for Inactive)
REMARK    1  A    between atoms: C_5  and  C_12
REMARK    2  A    between atoms: C_7  and  O_28
REMARK    3  A    between atoms: C_10  and  O_26
REMARK    4  A    between atoms: C_11  and  O_30
REMARK    5  A    between atoms: C_13  and  O_18
REMARK    6  A    between atoms: O_18  and  C_19
REMARK    7  A    between atoms: C_19  and  C_20
REMARK    8  A    between atoms: C_20  and  C_21
REMARK    9  A    between atoms: C_20  and  O_24
REMARK                            x       y       z     vdW  Elec       q    Type
REMARK                         _______ _______ _______ _____ _____    ______ ____
ROOT
ATOM      1  O   UNL     1     -33.472  26.562   3.707  0.00  0.00    -0.453 OA
ATOM      2  O   UNL     1     -32.895  27.178   7.693  0.00  0.00    -0.286 OA
ATOM      3  C   UNL     1     -32.534  27.930   5.482  0.00  0.00    +0.110 C 
ATOM      4  C   UNL     1     -32.769  27.660   4.135  0.00  0.00    +0.154 C 
ATOM      5  C   UNL     1     -33.962  25.680   4.658  0.00  0.00    +0.148 C 
ATOM      6  C   UNL     1     -33.061  27.002   6.494  0.00  0.00    +0.205 C 
ATOM      7  C   UNL     1     -31.812  29.064   5.859  0.00  0.00    +0.177 C 
ATOM      8  C   UNL     1     -33.808  25.835   5.982  0.00  0.00    +0.080 C 
ATOM      9  C   UNL     1     -32.281  28.524   3.155  0.00  0.00    +0.078 C 
ATOM     10  C   UNL     1     -31.325  29.928   4.877  0.00  0.00    +0.206 C 
ATOM     11  C   UNL     1     -31.559  29.658   3.528  0.00  0.00    +0.174 C 
ENDROOT
BRANCH   5  12
ATOM     12  C   UNL     1     -34.706  24.538   4.090  0.00  0.00    +0.035 C 
ATOM     13  C   UNL     1     -36.110  22.380   3.016  0.00  0.00    +0.139 C 
ATOM     14  C   UNL     1     -35.225  23.555   4.932  0.00  0.00    +0.006 C 
ATOM     15  C   UNL     1     -34.890  24.443   2.710  0.00  0.00    +0.006 C 
ATOM     16  C   UNL     1     -35.926  22.475   4.395  0.00  0.00    +0.037 C 
ATOM     17  C   UNL     1     -35.592  23.364   2.173  0.00  0.00    +0.037 C 
BRANCH  13  18
ATOM     18  O   UNL     1     -36.794  21.327   2.493  0.00  0.00    -0.472 OA
BRANCH  18  19
ATOM     19  C   UNL     1     -37.812  21.623   1.537  0.00  0.00    +0.239 C 
BRANCH  19  20
ATOM     20  C   UNL     1     -39.132  21.913   2.250  0.00  0.00    +0.172 C 
BRANCH  20  21
ATOM     21  C   UNL     1     -39.634  23.326   2.034  0.00  0.00    -0.014 C 
ATOM     22  C   UNL     1     -39.196  24.391   3.000  0.00  0.00    +0.029 C 
ATOM     23  C   UNL     1     -40.439  23.625   1.001  0.00  0.00    -0.007 C 
ENDBRANCH  20  21
BRANCH  20  24
ATOM     24  O   UNL     1     -40.126  21.000   1.786  0.00  0.00    -0.377 OA
ATOM     25  H   UNL     1     -41.002  21.305   2.068  0.00  0.00    +0.211 HD
ENDBRANCH  20  24
ENDBRANCH  19  20
ENDBRANCH  18  19
ENDBRANCH  13  18
ENDBRANCH   5  12
BRANCH  10  26
ATOM     26  O   UNL     1     -30.618  31.038   5.233  0.00  0.00    -0.465 OA
ATOM     27  C   UNL     1     -29.198  30.916   5.270  0.00  0.00    +0.253 C 
ENDBRANCH  10  26
BRANCH   7  28
ATOM     28  O   UNL     1     -31.562  29.361   7.167  0.00  0.00    -0.503 OA
ATOM     29  H   UNL     1     -30.680  29.474   7.461  0.00  0.00    +0.292 HD
ENDBRANCH   7  28
BRANCH  11  30
ATOM     30  O   UNL     1     -31.086  30.497   2.563  0.00  0.00    -0.503 OA
ATOM     31  H   UNL     1     -31.094  30.229   1.665  0.00  0.00    +0.292 HD
ENDBRANCH  11  30
TORSDOF 9
ENDMDL
MODEL 9
REMARK VINA RESULT:      -6.0      3.714      6.469
REMARK  Name = 57381727
REMARK  9 active torsions:
REMARK  status: ('A' for Active; 'I' for Inactive)
REMARK    1  A    between atoms: C_5  and  C_12
REMARK    2  A    between atoms: C_7  and  O_28
REMARK    3  A    between atoms: C_10  and  O_26
REMARK    4  A    between atoms: C_11  and  O_30
REMARK    5  A    between atoms: C_13  and  O_18
REMARK    6  A    between atoms: O_18  and  C_19
REMARK    7  A    between atoms: C_19  and  C_20
REMARK    8  A    between atoms: C_20  and  C_21
REMARK    9  A    between atoms: C_20  and  O_24
REMARK                            x       y       z     vdW  Elec       q    Type
REMARK                         _______ _______ _______ _____ _____    ______ ____
ROOT
ATOM      1  O   UNL     1     -36.314  22.520   2.309  0.00  0.00    -0.453 OA
ATOM      2  O   UNL     1     -40.335  23.142   2.098  0.00  0.00    -0.286 OA
ATOM      3  C   UNL     1     -38.476  21.843   1.433  0.00  0.00    +0.110 C 
ATOM      4  C   UNL     1     -37.096  21.687   1.550  0.00  0.00    +0.154 C 
ATOM      5  C   UNL     1     -36.925  23.568   2.982  0.00  0.00    +0.148 C 
ATOM      6  C   UNL     1     -39.129  22.947   2.153  0.00  0.00    +0.205 C 
ATOM      7  C   UNL     1     -39.222  20.963   0.646  0.00  0.00    +0.177 C 
ATOM      8  C   UNL     1     -38.243  23.817   2.953  0.00  0.00    +0.080 C 
ATOM      9  C   UNL     1     -36.452  20.647   0.878  0.00  0.00    +0.078 C 
ATOM     10  C   UNL     1     -38.576  19.924  -0.024  0.00  0.00    +0.206 C 
ATOM     11  C   UNL     1     -37.194  19.766   0.091  0.00  0.00    +0.174 C 
ENDROOT
BRANCH   5  12
ATOM     12  C   UNL     1     -35.992  24.398   3.771  0.00  0.00    +0.035 C 
ATOM     13  C   UNL     1     -34.231  25.964   5.263  0.00  0.00    +0.139 C 
ATOM     14  C   UNL     1     -34.643  24.457   3.420  0.00  0.00    +0.006 C 
ATOM     15  C   UNL     1     -36.462  25.124   4.867  0.00  0.00    +0.006 C 
ATOM     16  C   UNL     1     -33.763  25.240   4.167  0.00  0.00    +0.037 C 
ATOM     17  C   UNL     1     -35.581  25.907   5.612  0.00  0.00    +0.037 C 
BRANCH  13  18
ATOM     18  O   UNL     1     -33.371  26.728   5.991  0.00  0.00    -0.472 OA
BRANCH  18  19
ATOM     19  C   UNL     1     -32.563  27.660   5.273  0.00  0.00    +0.239 C 
BRANCH  19  20
ATOM     20  C   UNL     1     -31.565  28.325   6.220  0.00  0.00    +0.172 C 
BRANCH  20  21
ATOM     21  C   UNL     1     -31.183  29.729   5.799  0.00  0.00    -0.014 C 
ATOM     22  C   UNL     1     -29.768  29.977   5.354  0.00  0.00    +0.029 C 
ATOM     23  C   UNL     1     -32.084  30.725   5.811  0.00  0.00    -0.007 C 
ENDBRANCH  20  21
BRANCH  20  24
ATOM     24  O   UNL     1     -32.126  28.378   7.530  0.00  0.00    -0.377 OA
ATOM     25  H   UNL     1     -32.296  29.302   7.772  0.00  0.00    +0.211 HD
ENDBRANCH  20  24
ENDBRANCH  19  20
ENDBRANCH  18  19
ENDBRANCH  13  18
ENDBRANCH   5  12
BRANCH  10  26
ATOM     26  O   UNL     1     -39.294  19.058  -0.796  0.00  0.00    -0.465 OA
ATOM     27  C   UNL     1     -39.457  19.399  -2.171  0.00  0.00    +0.253 C 
ENDBRANCH  10  26
BRANCH   7  28
ATOM     28  O   UNL     1     -40.574  21.085   0.508  0.00  0.00    -0.503 OA
ATOM     29  H   UNL     1     -41.028  20.564  -0.125  0.00  0.00    +0.292 HD
ENDBRANCH   7  28
BRANCH  11  30
ATOM     30  O   UNL     1     -36.557  18.754  -0.561  0.00  0.00    -0.503 OA
ATOM     31  H   UNL     1     -37.031  18.210  -1.159  0.00  0.00    +0.292 HD
ENDBRANCH  11  30
TORSDOF 9
ENDMDL
