MODEL 1
REMARK VINA RESULT:      -6.7      0.000      0.000
REMARK  Name = 5281454
REMARK  7 active torsions:
REMARK  status: ('A' for Active; 'I' for Inactive)
REMARK    1  A    between atoms: C_4  and  C_27
REMARK    2  A    between atoms: C_9  and  O_18
REMARK    3  A    between atoms: O_18  and  C_20
REMARK    4  A    between atoms: C_20  and  C_21
REMARK    5  A    between atoms: C_23  and  C_24
REMARK    6  A    between atoms: C_24  and  O_25
REMARK    7  A    between atoms: C_27  and  O_28
REMARK                            x       y       z     vdW  Elec       q    Type
REMARK                         _______ _______ _______ _____ _____    ______ ____
ROOT
ATOM      1  O   UNL     1     -36.129  21.922   0.402  0.00  0.00    -0.350 OA
ATOM      2  O   UNL     1     -34.834  24.503   0.842  0.00  0.00    -0.446 OA
ATOM      3  O   UNL     1     -33.418  26.310   0.865  0.00  0.00    -0.245 OA
ATOM      4  C   UNL     1     -37.230  21.830   1.307  0.00  0.00    +0.148 C 
ATOM      5  C   UNL     1     -36.786  23.157   0.739  0.00  0.00    +0.182 C 
ATOM      6  C   UNL     1     -36.012  24.117   1.580  0.00  0.00    +0.206 C 
ATOM      7  C   UNL     1     -36.764  25.431   1.867  0.00  0.00    +0.112 C 
ATOM      8  C   UNL     1     -38.502  21.232   0.788  0.00  0.00    +0.037 C 
ATOM      9  C   UNL     1     -37.736  25.456   3.077  0.00  0.00    +0.181 C 
ATOM     10  C   UNL     1     -39.704  21.524   1.707  0.00  0.00    +0.028 C 
ATOM     11  C   UNL     1     -35.569  26.341   1.971  0.00  0.00    +0.060 C 
ATOM     12  C   UNL     1     -39.247  25.258   2.774  0.00  0.00    +0.066 C 
ATOM     13  C   UNL     1     -34.459  25.766   1.183  0.00  0.00    +0.337 C 
ATOM     14  C   UNL     1     -39.589  22.826   2.451  0.00  0.00    -0.034 C 
ATOM     15  C   UNL     1     -39.641  24.066   1.932  0.00  0.00    -0.045 C 
ATOM     16  C   UNL     1     -35.391  27.496   2.621  0.00  0.00    +0.002 C 
ATOM     17  C   UNL     1     -40.071  24.375   0.524  0.00  0.00    +0.026 C 
ENDROOT
BRANCH   9  18
ATOM     18  O   UNL     1     -37.316  24.574   4.114  0.00  0.00    -0.449 OA
BRANCH  18  20
ATOM     19  O   UNL     1     -36.471  26.177   5.534  0.00  0.00    -0.245 OA
ATOM     20  C   UNL     1     -36.407  25.080   4.998  0.00  0.00    +0.337 C 
BRANCH  20  21
ATOM     21  C   UNL     1     -35.307  24.091   5.211  0.00  0.00    +0.052 C 
ATOM     22  C   UNL     1     -33.933  24.438   4.718  0.00  0.00    +0.038 C 
ATOM     23  C   UNL     1     -35.661  22.941   5.815  0.00  0.00    +0.007 C 
BRANCH  23  24
ATOM     24  C   UNL     1     -34.769  21.790   6.160  0.00  0.00    +0.163 C 
BRANCH  24  25
ATOM     25  O   UNL     1     -35.251  20.629   5.493  0.00  0.00    -0.377 OA
ATOM     26  H   UNL     1     -35.593  19.999   6.147  0.00  0.00    +0.211 HD
ENDBRANCH  24  25
ENDBRANCH  23  24
ENDBRANCH  20  21
ENDBRANCH  18  20
ENDBRANCH   9  18
BRANCH   4  27
ATOM     27  C   UNL     1     -36.757  21.315   2.627  0.00  0.00    +0.167 C 
BRANCH  27  28
ATOM     28  O   UNL     1     -36.680  19.890   2.596  0.00  0.00    -0.379 OA
ATOM     29  H   UNL     1     -37.535  19.515   2.855  0.00  0.00    +0.211 HD
ENDBRANCH  27  28
ENDBRANCH   4  27
TORSDOF 7
ENDMDL
MODEL 2
REMARK VINA RESULT:      -6.3      1.937      2.596
REMARK  Name = 5281454
REMARK  7 active torsions:
REMARK  status: ('A' for Active; 'I' for Inactive)
REMARK    1  A    between atoms: C_4  and  C_27
REMARK    2  A    between atoms: C_9  and  O_18
REMARK    3  A    between atoms: O_18  and  C_20
REMARK    4  A    between atoms: C_20  and  C_21
REMARK    5  A    between atoms: C_23  and  C_24
REMARK    6  A    between atoms: C_24  and  O_25
REMARK    7  A    between atoms: C_27  and  O_28
REMARK                            x       y       z     vdW  Elec       q    Type
REMARK                         _______ _______ _______ _____ _____    ______ ____
ROOT
ATOM      1  O   UNL     1     -35.789  20.815   0.077  0.00  0.00    -0.350 OA
ATOM      2  O   UNL     1     -33.420  22.371  -0.630  0.00  0.00    -0.446 OA
ATOM      3  O   UNL     1     -31.449  23.153  -1.509  0.00  0.00    -0.245 OA
ATOM      4  C   UNL     1     -36.404  21.448   1.201  0.00  0.00    +0.148 C 
ATOM      5  C   UNL     1     -35.655  22.245   0.158  0.00  0.00    +0.182 C 
ATOM      6  C   UNL     1     -34.290  22.772   0.449  0.00  0.00    +0.206 C 
ATOM      7  C   UNL     1     -34.217  24.312   0.481  0.00  0.00    +0.112 C 
ATOM      8  C   UNL     1     -37.900  21.532   1.211  0.00  0.00    +0.037 C 
ATOM      9  C   UNL     1     -34.564  25.022   1.818  0.00  0.00    +0.181 C 
ATOM     10  C   UNL     1     -38.422  22.543   2.250  0.00  0.00    +0.028 C 
ATOM     11  C   UNL     1     -32.796  24.468   0.010  0.00  0.00    +0.060 C 
ATOM     12  C   UNL     1     -35.999  25.599   1.959  0.00  0.00    +0.066 C 
ATOM     13  C   UNL     1     -32.428  23.286  -0.800  0.00  0.00    +0.337 C 
ATOM     14  C   UNL     1     -37.479  23.687   2.502  0.00  0.00    -0.034 C 
ATOM     15  C   UNL     1     -37.157  24.678   1.650  0.00  0.00    -0.045 C 
ATOM     16  C   UNL     1     -31.902  25.442   0.205  0.00  0.00    +0.002 C 
ATOM     17  C   UNL     1     -37.883  24.951   0.360  0.00  0.00    +0.026 C 
ENDROOT
BRANCH   9  18
ATOM     18  O   UNL     1     -34.237  24.217   2.947  0.00  0.00    -0.449 OA
BRANCH  18  20
ATOM     19  O   UNL     1     -33.312  25.819   4.319  0.00  0.00    -0.245 OA
ATOM     20  C   UNL     1     -34.075  24.881   4.128  0.00  0.00    +0.337 C 
BRANCH  20  21
ATOM     21  C   UNL     1     -34.969  24.287   5.167  0.00  0.00    +0.052 C 
ATOM     22  C   UNL     1     -35.938  25.191   5.872  0.00  0.00    +0.038 C 
ATOM     23  C   UNL     1     -34.802  22.973   5.403  0.00  0.00    +0.007 C 
BRANCH  23  24
ATOM     24  C   UNL     1     -35.562  22.125   6.375  0.00  0.00    +0.163 C 
BRANCH  24  25
ATOM     25  O   UNL     1     -35.511  20.774   5.932  0.00  0.00    -0.377 OA
ATOM     26  H   UNL     1     -34.785  20.313   6.381  0.00  0.00    +0.211 HD
ENDBRANCH  24  25
ENDBRANCH  23  24
ENDBRANCH  20  21
ENDBRANCH  18  20
ENDBRANCH   9  18
BRANCH   4  27
ATOM     27  C   UNL     1     -35.767  20.966   2.462  0.00  0.00    +0.167 C 
BRANCH  27  28
ATOM     28  O   UNL     1     -36.513  19.875   3.000  0.00  0.00    -0.379 OA
ATOM     29  H   UNL     1     -36.009  19.054   2.893  0.00  0.00    +0.211 HD
ENDBRANCH  27  28
ENDBRANCH   4  27
TORSDOF 7
ENDMDL
MODEL 3
REMARK VINA RESULT:      -6.2      1.936      5.046
REMARK  Name = 5281454
REMARK  7 active torsions:
REMARK  status: ('A' for Active; 'I' for Inactive)
REMARK    1  A    between atoms: C_4  and  C_27
REMARK    2  A    between atoms: C_9  and  O_18
REMARK    3  A    between atoms: O_18  and  C_20
REMARK    4  A    between atoms: C_20  and  C_21
REMARK    5  A    between atoms: C_23  and  C_24
REMARK    6  A    between atoms: C_24  and  O_25
REMARK    7  A    between atoms: C_27  and  O_28
REMARK                            x       y       z     vdW  Elec       q    Type
REMARK                         _______ _______ _______ _____ _____    ______ ____
ROOT
ATOM      1  O   UNL     1     -39.669  24.964   0.555  0.00  0.00    -0.350 OA
ATOM      2  O   UNL     1     -39.405  22.089   0.113  0.00  0.00    -0.446 OA
ATOM      3  O   UNL     1     -39.724  19.877  -0.413  0.00  0.00    -0.245 OA
ATOM      4  C   UNL     1     -38.541  25.390   1.322  0.00  0.00    +0.148 C 
ATOM      5  C   UNL     1     -38.440  24.245   0.342  0.00  0.00    +0.182 C 
ATOM      6  C   UNL     1     -38.399  22.835   0.829  0.00  0.00    +0.206 C 
ATOM      7  C   UNL     1     -37.068  22.118   0.530  0.00  0.00    +0.112 C 
ATOM      8  C   UNL     1     -37.907  26.695   0.949  0.00  0.00    +0.037 C 
ATOM      9  C   UNL     1     -35.907  22.299   1.547  0.00  0.00    +0.181 C 
ATOM     10  C   UNL     1     -36.509  26.865   1.575  0.00  0.00    +0.028 C 
ATOM     11  C   UNL     1     -37.605  20.719   0.396  0.00  0.00    +0.060 C 
ATOM     12  C   UNL     1     -34.823  23.356   1.200  0.00  0.00    +0.066 C 
ATOM     13  C   UNL     1     -39.025  20.788  -0.012  0.00  0.00    +0.337 C 
ATOM     14  C   UNL     1     -35.781  25.566   1.783  0.00  0.00    -0.034 C 
ATOM     15  C   UNL     1     -35.293  24.746   0.835  0.00  0.00    -0.045 C 
ATOM     16  C   UNL     1     -37.026  19.528   0.578  0.00  0.00    +0.002 C 
ATOM     17  C   UNL     1     -35.178  25.113  -0.620  0.00  0.00    +0.026 C 
ENDROOT
BRANCH   9  18
ATOM     18  O   UNL     1     -36.390  22.495   2.873  0.00  0.00    -0.449 OA
BRANCH  18  20
ATOM     19  O   UNL     1     -35.200  20.764   3.816  0.00  0.00    -0.245 OA
ATOM     20  C   UNL     1     -35.673  21.891   3.865  0.00  0.00    +0.337 C 
BRANCH  20  21
ATOM     21  C   UNL     1     -35.554  22.814   5.034  0.00  0.00    +0.052 C 
ATOM     22  C   UNL     1     -35.196  22.228   6.368  0.00  0.00    +0.038 C 
ATOM     23  C   UNL     1     -35.812  24.111   4.786  0.00  0.00    +0.007 C 
BRANCH  23  24
ATOM     24  C   UNL     1     -35.759  25.246   5.761  0.00  0.00    +0.163 C 
BRANCH  24  25
ATOM     25  O   UNL     1     -36.640  26.269   5.312  0.00  0.00    -0.377 OA
ATOM     26  H   UNL     1     -36.149  27.101   5.220  0.00  0.00    +0.211 HD
ENDBRANCH  24  25
ENDBRANCH  23  24
ENDBRANCH  20  21
ENDBRANCH  18  20
ENDBRANCH   9  18
BRANCH   4  27
ATOM     27  C   UNL     1     -38.815  25.188   2.776  0.00  0.00    +0.167 C 
BRANCH  27  28
ATOM     28  O   UNL     1     -39.165  26.430   3.384  0.00  0.00    -0.379 OA
ATOM     29  H   UNL     1     -40.089  26.642   3.180  0.00  0.00    +0.211 HD
ENDBRANCH  27  28
ENDBRANCH   4  27
TORSDOF 7
ENDMDL
MODEL 4
REMARK VINA RESULT:      -6.1      2.038      5.148
REMARK  Name = 5281454
REMARK  7 active torsions:
REMARK  status: ('A' for Active; 'I' for Inactive)
REMARK    1  A    between atoms: C_4  and  C_27
REMARK    2  A    between atoms: C_9  and  O_18
REMARK    3  A    between atoms: O_18  and  C_20
REMARK    4  A    between atoms: C_20  and  C_21
REMARK    5  A    between atoms: C_23  and  C_24
REMARK    6  A    between atoms: C_24  and  O_25
REMARK    7  A    between atoms: C_27  and  O_28
REMARK                            x       y       z     vdW  Elec       q    Type
REMARK                         _______ _______ _______ _____ _____    ______ ____
ROOT
ATOM      1  O   UNL     1     -37.823  24.407   4.160  0.00  0.00    -0.350 OA
ATOM      2  O   UNL     1     -38.242  24.237   1.275  0.00  0.00    -0.446 OA
ATOM      3  O   UNL     1     -39.104  24.026  -0.843  0.00  0.00    -0.245 OA
ATOM      4  C   UNL     1     -36.414  24.369   4.397  0.00  0.00    +0.148 C 
ATOM      5  C   UNL     1     -36.987  24.989   3.144  0.00  0.00    +0.182 C 
ATOM      6  C   UNL     1     -36.916  24.263   1.842  0.00  0.00    +0.206 C 
ATOM      7  C   UNL     1     -36.035  24.966   0.790  0.00  0.00    +0.112 C 
ATOM      8  C   UNL     1     -35.867  25.285   5.448  0.00  0.00    +0.037 C 
ATOM      9  C   UNL     1     -34.510  24.674   0.815  0.00  0.00    +0.181 C 
ATOM     10  C   UNL     1     -34.336  25.434   5.355  0.00  0.00    +0.028 C 
ATOM     11  C   UNL     1     -36.767  24.507  -0.442  0.00  0.00    +0.060 C 
ATOM     12  C   UNL     1     -33.602  25.716   1.524  0.00  0.00    +0.066 C 
ATOM     13  C   UNL     1     -38.172  24.217  -0.084  0.00  0.00    +0.337 C 
ATOM     14  C   UNL     1     -33.802  25.289   3.956  0.00  0.00    -0.034 C 
ATOM     15  C   UNL     1     -33.981  26.136   2.926  0.00  0.00    -0.045 C 
ATOM     16  C   UNL     1     -36.358  24.341  -1.703  0.00  0.00    +0.002 C 
ATOM     17  C   UNL     1     -34.556  27.520   3.061  0.00  0.00    +0.026 C 
ENDROOT
BRANCH   9  18
ATOM     18  O   UNL     1     -34.230  23.361   1.294  0.00  0.00    -0.449 OA
BRANCH  18  20
ATOM     19  O   UNL     1     -33.095  22.728  -0.607  0.00  0.00    -0.245 OA
ATOM     20  C   UNL     1     -33.795  22.465   0.360  0.00  0.00    +0.337 C 
BRANCH  20  21
ATOM     21  C   UNL     1     -34.310  21.102   0.692  0.00  0.00    +0.052 C 
ATOM     22  C   UNL     1     -33.327  19.971   0.771  0.00  0.00    +0.038 C 
ATOM     23  C   UNL     1     -35.641  21.003   0.866  0.00  0.00    +0.007 C 
BRANCH  23  24
ATOM     24  C   UNL     1     -36.418  19.772   1.213  0.00  0.00    +0.163 C 
BRANCH  24  25
ATOM     25  O   UNL     1     -36.718  19.805   2.603  0.00  0.00    -0.377 OA
ATOM     26  H   UNL     1     -37.146  18.973   2.862  0.00  0.00    +0.211 HD
ENDBRANCH  24  25
ENDBRANCH  23  24
ENDBRANCH  20  21
ENDBRANCH  18  20
ENDBRANCH   9  18
BRANCH   4  27
ATOM     27  C   UNL     1     -35.950  22.951   4.459  0.00  0.00    +0.167 C 
BRANCH  27  28
ATOM     28  O   UNL     1     -36.230  22.402   5.745  0.00  0.00    -0.379 OA
ATOM     29  H   UNL     1     -36.712  23.053   6.278  0.00  0.00    +0.211 HD
ENDBRANCH  27  28
ENDBRANCH   4  27
TORSDOF 7
ENDMDL
MODEL 5
REMARK VINA RESULT:      -5.9      2.390      5.539
REMARK  Name = 5281454
REMARK  7 active torsions:
REMARK  status: ('A' for Active; 'I' for Inactive)
REMARK    1  A    between atoms: C_4  and  C_27
REMARK    2  A    between atoms: C_9  and  O_18
REMARK    3  A    between atoms: O_18  and  C_20
REMARK    4  A    between atoms: C_20  and  C_21
REMARK    5  A    between atoms: C_23  and  C_24
REMARK    6  A    between atoms: C_24  and  O_25
REMARK    7  A    between atoms: C_27  and  O_28
REMARK                            x       y       z     vdW  Elec       q    Type
REMARK                         _______ _______ _______ _____ _____    ______ ____
ROOT
ATOM      1  O   UNL     1     -36.867  24.497   5.228  0.00  0.00    -0.350 OA
ATOM      2  O   UNL     1     -38.367  23.083   3.159  0.00  0.00    -0.446 OA
ATOM      3  O   UNL     1     -39.915  21.899   1.946  0.00  0.00    -0.245 OA
ATOM      4  C   UNL     1     -35.552  24.736   4.723  0.00  0.00    +0.148 C 
ATOM      5  C   UNL     1     -36.753  24.698   3.808  0.00  0.00    +0.182 C 
ATOM      6  C   UNL     1     -37.005  23.508   2.944  0.00  0.00    +0.206 C 
ATOM      7  C   UNL     1     -36.905  23.809   1.435  0.00  0.00    +0.112 C 
ATOM      8  C   UNL     1     -34.933  26.069   5.017  0.00  0.00    +0.037 C 
ATOM      9  C   UNL     1     -35.499  23.745   0.779  0.00  0.00    +0.181 C 
ATOM     10  C   UNL     1     -33.708  26.353   4.126  0.00  0.00    +0.028 C 
ATOM     11  C   UNL     1     -37.899  22.789   0.948  0.00  0.00    +0.060 C 
ATOM     12  C   UNL     1     -34.753  25.092   0.575  0.00  0.00    +0.066 C 
ATOM     13  C   UNL     1     -38.863  22.504   2.032  0.00  0.00    +0.337 C 
ATOM     14  C   UNL     1     -33.784  25.703   2.772  0.00  0.00    -0.034 C 
ATOM     15  C   UNL     1     -34.627  26.010   1.769  0.00  0.00    -0.045 C 
ATOM     16  C   UNL     1     -38.019  22.162  -0.227  0.00  0.00    +0.002 C 
ATOM     17  C   UNL     1     -35.493  27.240   1.742  0.00  0.00    +0.026 C 
ENDROOT
BRANCH   9  18
ATOM     18  O   UNL     1     -34.653  22.800   1.428  0.00  0.00    -0.449 OA
BRANCH  18  20
ATOM     19  O   UNL     1     -33.492  22.120  -0.440  0.00  0.00    -0.245 OA
ATOM     20  C   UNL     1     -34.055  21.878   0.618  0.00  0.00    +0.337 C 
BRANCH  20  21
ATOM     21  C   UNL     1     -34.194  20.516   1.216  0.00  0.00    +0.052 C 
ATOM     22  C   UNL     1     -35.286  20.288   2.219  0.00  0.00    +0.038 C 
ATOM     23  C   UNL     1     -33.289  19.604   0.815  0.00  0.00    +0.007 C 
BRANCH  23  24
ATOM     24  C   UNL     1     -33.199  18.172   1.240  0.00  0.00    +0.163 C 
BRANCH  24  25
ATOM     25  O   UNL     1     -31.870  17.912   1.676  0.00  0.00    -0.377 OA
ATOM     26  H   UNL     1     -31.242  18.247   1.017  0.00  0.00    +0.211 HD
ENDBRANCH  24  25
ENDBRANCH  23  24
ENDBRANCH  20  21
ENDBRANCH  18  20
ENDBRANCH   9  18
BRANCH   4  27
ATOM     27  C   UNL     1     -34.689  23.544   4.976  0.00  0.00    +0.167 C 
BRANCH  27  28
ATOM     28  O   UNL     1     -35.148  22.846   6.133  0.00  0.00    -0.379 OA
ATOM     29  H   UNL     1     -35.111  21.891   5.970  0.00  0.00    +0.211 HD
ENDBRANCH  27  28
ENDBRANCH   4  27
TORSDOF 7
ENDMDL
MODEL 6
REMARK VINA RESULT:      -5.8      1.868      4.007
REMARK  Name = 5281454
REMARK  7 active torsions:
REMARK  status: ('A' for Active; 'I' for Inactive)
REMARK    1  A    between atoms: C_4  and  C_27
REMARK    2  A    between atoms: C_9  and  O_18
REMARK    3  A    between atoms: O_18  and  C_20
REMARK    4  A    between atoms: C_20  and  C_21
REMARK    5  A    between atoms: C_23  and  C_24
REMARK    6  A    between atoms: C_24  and  O_25
REMARK    7  A    between atoms: C_27  and  O_28
REMARK                            x       y       z     vdW  Elec       q    Type
REMARK                         _______ _______ _______ _____ _____    ______ ____
ROOT
ATOM      1  O   UNL     1     -40.381  23.153   2.048  0.00  0.00    -0.350 OA
ATOM      2  O   UNL     1     -38.019  21.452   1.806  0.00  0.00    -0.446 OA
ATOM      3  O   UNL     1     -36.522  19.711   1.756  0.00  0.00    -0.245 OA
ATOM      4  C   UNL     1     -39.941  24.512   2.018  0.00  0.00    +0.148 C 
ATOM      5  C   UNL     1     -39.210  23.430   1.258  0.00  0.00    +0.182 C 
ATOM      6  C   UNL     1     -37.917  22.890   1.771  0.00  0.00    +0.206 C 
ATOM      7  C   UNL     1     -36.715  23.192   0.853  0.00  0.00    +0.112 C 
ATOM      8  C   UNL     1     -40.767  25.486   1.235  0.00  0.00    +0.037 C 
ATOM      9  C   UNL     1     -35.995  24.556   1.033  0.00  0.00    +0.181 C 
ATOM     10  C   UNL     1     -40.015  26.803   0.961  0.00  0.00    +0.028 C 
ATOM     11  C   UNL     1     -35.893  21.973   1.171  0.00  0.00    +0.060 C 
ATOM     12  C   UNL     1     -36.379  25.693   0.047  0.00  0.00    +0.066 C 
ATOM     13  C   UNL     1     -36.795  20.889   1.614  0.00  0.00    +0.337 C 
ATOM     14  C   UNL     1     -38.525  26.633   0.852  0.00  0.00    -0.034 C 
ATOM     15  C   UNL     1     -37.848  26.004  -0.126  0.00  0.00    -0.045 C 
ATOM     16  C   UNL     1     -34.575  21.755   1.113  0.00  0.00    +0.002 C 
ATOM     17  C   UNL     1     -38.461  25.563  -1.427  0.00  0.00    +0.026 C 
ENDROOT
BRANCH   9  18
ATOM     18  O   UNL     1     -36.065  25.018   2.379  0.00  0.00    -0.449 OA
BRANCH  18  20
ATOM     19  O   UNL     1     -33.801  24.933   2.790  0.00  0.00    -0.245 OA
ATOM     20  C   UNL     1     -34.961  24.787   3.148  0.00  0.00    +0.337 C 
BRANCH  20  21
ATOM     21  C   UNL     1     -35.381  24.319   4.504  0.00  0.00    +0.052 C 
ATOM     22  C   UNL     1     -36.004  25.314   5.438  0.00  0.00    +0.038 C 
ATOM     23  C   UNL     1     -35.130  23.026   4.782  0.00  0.00    +0.007 C 
BRANCH  23  24
ATOM     24  C   UNL     1     -35.451  22.295   6.048  0.00  0.00    +0.163 C 
BRANCH  24  25
ATOM     25  O   UNL     1     -35.349  20.898   5.801  0.00  0.00    -0.377 OA
ATOM     26  H   UNL     1     -34.423  20.620   5.887  0.00  0.00    +0.211 HD
ENDBRANCH  24  25
ENDBRANCH  23  24
ENDBRANCH  20  21
ENDBRANCH  18  20
ENDBRANCH   9  18
BRANCH   4  27
ATOM     27  C   UNL     1     -39.546  24.945   3.391  0.00  0.00    +0.167 C 
BRANCH  27  28
ATOM     28  O   UNL     1     -40.670  25.504   4.070  0.00  0.00    -0.379 OA
ATOM     29  H   UNL     1     -41.397  25.631   3.441  0.00  0.00    +0.211 HD
ENDBRANCH  27  28
ENDBRANCH   4  27
TORSDOF 7
ENDMDL
MODEL 7
REMARK VINA RESULT:      -5.8      1.523      2.284
REMARK  Name = 5281454
REMARK  7 active torsions:
REMARK  status: ('A' for Active; 'I' for Inactive)
REMARK    1  A    between atoms: C_4  and  C_27
REMARK    2  A    between atoms: C_9  and  O_18
REMARK    3  A    between atoms: O_18  and  C_20
REMARK    4  A    between atoms: C_20  and  C_21
REMARK    5  A    between atoms: C_23  and  C_24
REMARK    6  A    between atoms: C_24  and  O_25
REMARK    7  A    between atoms: C_27  and  O_28
REMARK                            x       y       z     vdW  Elec       q    Type
REMARK                         _______ _______ _______ _____ _____    ______ ____
ROOT
ATOM      1  O   UNL     1     -38.295  22.309  -0.373  0.00  0.00    -0.350 OA
ATOM      2  O   UNL     1     -35.524  23.105   0.095  0.00  0.00    -0.446 OA
ATOM      3  O   UNL     1     -33.244  23.370   0.050  0.00  0.00    -0.245 OA
ATOM      4  C   UNL     1     -39.082  22.823   0.704  0.00  0.00    +0.148 C 
ATOM      5  C   UNL     1     -37.853  23.549   0.208  0.00  0.00    +0.182 C 
ATOM      6  C   UNL     1     -36.583  23.504   0.990  0.00  0.00    +0.206 C 
ATOM      7  C   UNL     1     -36.152  24.876   1.547  0.00  0.00    +0.112 C 
ATOM      8  C   UNL     1     -40.423  23.397   0.364  0.00  0.00    +0.037 C 
ATOM      9  C   UNL     1     -36.749  25.320   2.910  0.00  0.00    +0.181 C 
ATOM     10  C   UNL     1     -41.004  24.244   1.513  0.00  0.00    +0.028 C 
ATOM     11  C   UNL     1     -34.664  24.656   1.528  0.00  0.00    +0.060 C 
ATOM     12  C   UNL     1     -37.960  26.292   2.868  0.00  0.00    +0.066 C 
ATOM     13  C   UNL     1     -34.342  23.649   0.493  0.00  0.00    +0.337 C 
ATOM     14  C   UNL     1     -39.954  24.913   2.357  0.00  0.00    -0.034 C 
ATOM     15  C   UNL     1     -39.131  25.912   1.991  0.00  0.00    -0.045 C 
ATOM     16  C   UNL     1     -33.680  25.198   2.252  0.00  0.00    +0.002 C 
ATOM     17  C   UNL     1     -39.285  26.711   0.725  0.00  0.00    +0.026 C 
ENDROOT
BRANCH   9  18
ATOM     18  O   UNL     1     -37.032  24.206   3.753  0.00  0.00    -0.449 OA
BRANCH  18  20
ATOM     19  O   UNL     1     -35.803  24.842   5.594  0.00  0.00    -0.245 OA
ATOM     20  C   UNL     1     -36.159  23.999   4.782  0.00  0.00    +0.337 C 
BRANCH  20  21
ATOM     21  C   UNL     1     -35.693  22.580   4.770  0.00  0.00    +0.052 C 
ATOM     22  C   UNL     1     -35.206  21.980   6.056  0.00  0.00    +0.038 C 
ATOM     23  C   UNL     1     -35.725  21.962   3.574  0.00  0.00    +0.007 C 
BRANCH  23  24
ATOM     24  C   UNL     1     -35.329  20.550   3.275  0.00  0.00    +0.163 C 
BRANCH  24  25
ATOM     25  O   UNL     1     -36.460  19.866   2.748  0.00  0.00    -0.377 OA
ATOM     26  H   UNL     1     -36.849  20.389   2.029  0.00  0.00    +0.211 HD
ENDBRANCH  24  25
ENDBRANCH  23  24
ENDBRANCH  20  21
ENDBRANCH  18  20
ENDBRANCH   9  18
BRANCH   4  27
ATOM     27  C   UNL     1     -39.049  21.870   1.852  0.00  0.00    +0.167 C 
BRANCH  27  28
ATOM     28  O   UNL     1     -40.184  21.006   1.802  0.00  0.00    -0.379 OA
ATOM     29  H   UNL     1     -40.145  20.378   2.539  0.00  0.00    +0.211 HD
ENDBRANCH  27  28
ENDBRANCH   4  27
TORSDOF 7
ENDMDL
MODEL 8
REMARK VINA RESULT:      -5.8      2.279      4.401
REMARK  Name = 5281454
REMARK  7 active torsions:
REMARK  status: ('A' for Active; 'I' for Inactive)
REMARK    1  A    between atoms: C_4  and  C_27
REMARK    2  A    between atoms: C_9  and  O_18
REMARK    3  A    between atoms: O_18  and  C_20
REMARK    4  A    between atoms: C_20  and  C_21
REMARK    5  A    between atoms: C_23  and  C_24
REMARK    6  A    between atoms: C_24  and  O_25
REMARK    7  A    between atoms: C_27  and  O_28
REMARK                            x       y       z     vdW  Elec       q    Type
REMARK                         _______ _______ _______ _____ _____    ______ ____
ROOT
ATOM      1  O   UNL     1     -31.916  25.921   1.247  0.00  0.00    -0.350 OA
ATOM      2  O   UNL     1     -32.979  26.127   3.959  0.00  0.00    -0.446 OA
ATOM      3  O   UNL     1     -33.274  26.315   6.228  0.00  0.00    -0.245 OA
ATOM      4  C   UNL     1     -32.995  25.555   0.384  0.00  0.00    +0.148 C 
ATOM      5  C   UNL     1     -33.221  26.404   1.614  0.00  0.00    +0.182 C 
ATOM      6  C   UNL     1     -33.831  25.809   2.839  0.00  0.00    +0.206 C 
ATOM      7  C   UNL     1     -35.209  26.403   3.193  0.00  0.00    +0.112 C 
ATOM      8  C   UNL     1     -33.065  26.224  -0.954  0.00  0.00    +0.037 C 
ATOM      9  C   UNL     1     -36.458  25.785   2.506  0.00  0.00    +0.181 C 
ATOM     10  C   UNL     1     -34.441  26.046  -1.626  0.00  0.00    +0.028 C 
ATOM     11  C   UNL     1     -35.136  26.236   4.686  0.00  0.00    +0.060 C 
ATOM     12  C   UNL     1     -37.025  26.532   1.268  0.00  0.00    +0.066 C 
ATOM     13  C   UNL     1     -33.716  26.225   5.098  0.00  0.00    +0.337 C 
ATOM     14  C   UNL     1     -35.577  25.925  -0.648  0.00  0.00    -0.034 C 
ATOM     15  C   UNL     1     -36.059  26.886   0.161  0.00  0.00    -0.045 C 
ATOM     16  C   UNL     1     -36.095  26.108   5.610  0.00  0.00    +0.002 C 
ATOM     17  C   UNL     1     -35.695  28.342   0.052  0.00  0.00    +0.026 C 
ENDROOT
BRANCH   9  18
ATOM     18  O   UNL     1     -36.272  24.403   2.214  0.00  0.00    -0.449 OA
BRANCH  18  20
ATOM     19  O   UNL     1     -38.134  23.548   3.265  0.00  0.00    -0.245 OA
ATOM     20  C   UNL     1     -36.936  23.527   3.024  0.00  0.00    +0.337 C 
BRANCH  20  21
ATOM     21  C   UNL     1     -35.973  22.530   3.583  0.00  0.00    +0.052 C 
ATOM     22  C   UNL     1     -35.377  21.517   2.651  0.00  0.00    +0.038 C 
ATOM     23  C   UNL     1     -35.744  22.614   4.907  0.00  0.00    +0.007 C 
BRANCH  23  24
ATOM     24  C   UNL     1     -34.827  21.757   5.722  0.00  0.00    +0.163 C 
BRANCH  24  25
ATOM     25  O   UNL     1     -35.471  20.513   5.967  0.00  0.00    -0.377 OA
ATOM     26  H   UNL     1     -34.913  19.967   6.544  0.00  0.00    +0.211 HD
ENDBRANCH  24  25
ENDBRANCH  23  24
ENDBRANCH  20  21
ENDBRANCH  18  20
ENDBRANCH   9  18
BRANCH   4  27
ATOM     27  C   UNL     1     -33.160  24.071   0.384  0.00  0.00    +0.167 C 
BRANCH  27  28
ATOM     28  O   UNL     1     -32.032  23.455  -0.236  0.00  0.00    -0.379 OA
ATOM     29  H   UNL     1     -32.267  22.556  -0.514  0.00  0.00    +0.211 HD
ENDBRANCH  27  28
ENDBRANCH   4  27
TORSDOF 7
ENDMDL
MODEL 9
REMARK VINA RESULT:      -5.7      2.217      5.628
REMARK  Name = 5281454
REMARK  7 active torsions:
REMARK  status: ('A' for Active; 'I' for Inactive)
REMARK    1  A    between atoms: C_4  and  C_27
REMARK    2  A    between atoms: C_9  and  O_18
REMARK    3  A    between atoms: O_18  and  C_20
REMARK    4  A    between atoms: C_20  and  C_21
REMARK    5  A    between atoms: C_23  and  C_24
REMARK    6  A    between atoms: C_24  and  O_25
REMARK    7  A    between atoms: C_27  and  O_28
REMARK                            x       y       z     vdW  Elec       q    Type
REMARK                         _______ _______ _______ _____ _____    ______ ____
ROOT
ATOM      1  O   UNL     1     -32.883  26.398   3.265  0.00  0.00    -0.350 OA
ATOM      2  O   UNL     1     -32.866  24.637   0.935  0.00  0.00    -0.446 OA
ATOM      3  O   UNL     1     -32.366  23.506  -0.999  0.00  0.00    -0.245 OA
ATOM      4  C   UNL     1     -34.186  26.331   3.849  0.00  0.00    +0.148 C 
ATOM      5  C   UNL     1     -33.577  25.143   3.142  0.00  0.00    +0.182 C 
ATOM      6  C   UNL     1     -34.033  24.764   1.772  0.00  0.00    +0.206 C 
ATOM      7  C   UNL     1     -34.732  23.392   1.713  0.00  0.00    +0.112 C 
ATOM      8  C   UNL     1     -34.269  26.294   5.344  0.00  0.00    +0.037 C 
ATOM      9  C   UNL     1     -36.253  23.342   2.023  0.00  0.00    +0.181 C 
ATOM     10  C   UNL     1     -35.659  25.849   5.841  0.00  0.00    +0.028 C 
ATOM     11  C   UNL     1     -34.340  23.014   0.310  0.00  0.00    +0.060 C 
ATOM     12  C   UNL     1     -36.668  22.917   3.458  0.00  0.00    +0.066 C 
ATOM     13  C   UNL     1     -33.087  23.716  -0.043  0.00  0.00    +0.337 C 
ATOM     14  C   UNL     1     -36.360  24.907   4.901  0.00  0.00    -0.034 C 
ATOM     15  C   UNL     1     -36.017  23.637   4.617  0.00  0.00    -0.045 C 
ATOM     16  C   UNL     1     -34.917  22.202  -0.582  0.00  0.00    +0.002 C 
ATOM     17  C   UNL     1     -34.994  22.847   5.386  0.00  0.00    +0.026 C 
ENDROOT
BRANCH   9  18
ATOM     18  O   UNL     1     -36.909  24.551   1.651  0.00  0.00    -0.449 OA
BRANCH  18  20
ATOM     19  O   UNL     1     -37.806  24.326  -0.458  0.00  0.00    -0.245 OA
ATOM     20  C   UNL     1     -37.931  24.425   0.755  0.00  0.00    +0.337 C 
BRANCH  20  21
ATOM     21  C   UNL     1     -39.239  24.432   1.478  0.00  0.00    +0.052 C 
ATOM     22  C   UNL     1     -39.974  23.133   1.629  0.00  0.00    +0.038 C 
ATOM     23  C   UNL     1     -39.663  25.634   1.912  0.00  0.00    +0.007 C 
BRANCH  23  24
ATOM     24  C   UNL     1     -40.921  25.929   2.667  0.00  0.00    +0.163 C 
BRANCH  24  25
ATOM     25  O   UNL     1     -40.604  26.797   3.750  0.00  0.00    -0.377 OA
ATOM     26  H   UNL     1     -39.718  27.169   3.618  0.00  0.00    +0.211 HD
ENDBRANCH  24  25
ENDBRANCH  23  24
ENDBRANCH  20  21
ENDBRANCH  18  20
ENDBRANCH   9  18
BRANCH   4  27
ATOM     27  C   UNL     1     -35.095  27.300   3.167  0.00  0.00    +0.167 C 
BRANCH  27  28
ATOM     28  O   UNL     1     -34.882  28.614   3.680  0.00  0.00    -0.379 OA
ATOM     29  H   UNL     1     -35.569  29.209   3.343  0.00  0.00    +0.211 HD
ENDBRANCH  27  28
ENDBRANCH   4  27
TORSDOF 7
ENDMDL
