MODEL 1
REMARK VINA RESULT:      -6.2      0.000      0.000
REMARK  Name = 5281678
REMARK  7 active torsions:
REMARK  status: ('A' for Active; 'I' for Inactive)
REMARK    1  A    between atoms: C_5  and  C_12
REMARK    2  A    between atoms: C_7  and  O_24
REMARK    3  A    between atoms: C_8  and  O_26
REMARK    4  A    between atoms: C_10  and  O_22
REMARK    5  A    between atoms: C_11  and  O_28
REMARK    6  A    between atoms: C_15  and  O_18
REMARK    7  A    between atoms: C_17  and  O_20
REMARK                            x       y       z     vdW  Elec       q    Type
REMARK                         _______ _______ _______ _____ _____    ______ ____
ROOT
ATOM      1  O   UNL     1     -36.412  22.692   2.291  0.00  0.00    -0.450 OA
ATOM      2  O   UNL     1     -40.471  23.047   2.218  0.00  0.00    -0.283 OA
ATOM      3  C   UNL     1     -38.554  21.895   1.469  0.00  0.00    +0.113 A 
ATOM      4  C   UNL     1     -37.163  21.828   1.535  0.00  0.00    +0.155 A 
ATOM      5  C   UNL     1     -37.066  23.665   3.029  0.00  0.00    +0.182 A 
ATOM      6  C   UNL     1     -39.252  22.935   2.242  0.00  0.00    +0.238 A 
ATOM      7  C   UNL     1     -39.268  20.990   0.682  0.00  0.00    +0.177 C 
ATOM      8  C   UNL     1     -38.400  23.842   3.046  0.00  0.00    +0.208 A 
ATOM      9  C   UNL     1     -36.477  20.853   0.811  0.00  0.00    +0.078 C 
ATOM     10  C   UNL     1     -38.578  20.014  -0.041  0.00  0.00    +0.206 C 
ATOM     11  C   UNL     1     -37.187  19.946   0.023  0.00  0.00    +0.174 C 
ENDROOT
BRANCH   5  12
ATOM     12  C   UNL     1     -36.143  24.523   3.793  0.00  0.00    +0.041 C 
ATOM     13  C   UNL     1     -35.986  25.865   3.442  0.00  0.00    +0.043 C 
ATOM     14  C   UNL     1     -35.426  23.995   4.867  0.00  0.00    +0.006 C 
ATOM     15  C   UNL     1     -35.113  26.677   4.165  0.00  0.00    +0.168 C 
ATOM     16  C   UNL     1     -34.552  24.808   5.589  0.00  0.00    +0.040 C 
ATOM     17  C   UNL     1     -34.396  26.149   5.238  0.00  0.00    +0.167 C 
BRANCH  15  18
ATOM     18  O   UNL     1     -34.969  27.986   3.814  0.00  0.00    -0.503 OA
ATOM     19  H   UNL     1     -35.480  28.644   4.242  0.00  0.00    +0.292 HD
ENDBRANCH  15  18
BRANCH  17  20
ATOM     20  O   UNL     1     -33.540  26.932   5.952  0.00  0.00    -0.503 OA
ATOM     21  H   UNL     1     -33.870  27.658   6.445  0.00  0.00    +0.292 HD
ENDBRANCH  17  20
ENDBRANCH   5  12
BRANCH  10  22
ATOM     22  O   UNL     1     -39.265  19.123  -0.813  0.00  0.00    -0.465 OA
ATOM     23  C   UNL     1     -39.508  19.494  -2.167  0.00  0.00    +0.253 C 
ENDBRANCH  10  22
BRANCH   7  24
ATOM     24  O   UNL     1     -40.627  21.022   0.592  0.00  0.00    -0.503 OA
ATOM     25  H   UNL     1     -41.141  20.357   1.007  0.00  0.00    +0.292 HD
ENDBRANCH   7  24
BRANCH   8  26
ATOM     26  O   UNL     1     -39.017  24.842   3.767  0.00  0.00    -0.501 OA
ATOM     27  H   UNL     1     -39.911  24.748   4.027  0.00  0.00    +0.292 HD
ENDBRANCH   8  26
BRANCH  11  28
ATOM     28  O   UNL     1     -36.506  18.996  -0.679  0.00  0.00    -0.503 OA
ATOM     29  H   UNL     1     -35.652  19.184  -1.014  0.00  0.00    +0.292 HD
ENDBRANCH  11  28
TORSDOF 7
ENDMDL
MODEL 2
REMARK VINA RESULT:      -6.2      3.442      6.695
REMARK  Name = 5281678
REMARK  7 active torsions:
REMARK  status: ('A' for Active; 'I' for Inactive)
REMARK    1  A    between atoms: C_5  and  C_12
REMARK    2  A    between atoms: C_7  and  O_24
REMARK    3  A    between atoms: C_8  and  O_26
REMARK    4  A    between atoms: C_10  and  O_22
REMARK    5  A    between atoms: C_11  and  O_28
REMARK    6  A    between atoms: C_15  and  O_18
REMARK    7  A    between atoms: C_17  and  O_20
REMARK                            x       y       z     vdW  Elec       q    Type
REMARK                         _______ _______ _______ _____ _____    ______ ____
ROOT
ATOM      1  O   UNL     1     -32.981  26.583   5.006  0.00  0.00    -0.450 OA
ATOM      2  O   UNL     1     -35.455  28.522   2.412  0.00  0.00    -0.283 OA
ATOM      3  C   UNL     1     -35.104  26.671   3.832  0.00  0.00    +0.113 A 
ATOM      4  C   UNL     1     -34.212  26.056   4.708  0.00  0.00    +0.155 A 
ATOM      5  C   UNL     1     -32.615  27.783   4.418  0.00  0.00    +0.182 A 
ATOM      6  C   UNL     1     -34.716  27.939   3.195  0.00  0.00    +0.238 A 
ATOM      7  C   UNL     1     -36.345  26.088   3.565  0.00  0.00    +0.177 C 
ATOM      8  C   UNL     1     -33.379  28.472   3.550  0.00  0.00    +0.208 A 
ATOM      9  C   UNL     1     -34.555  24.853   5.323  0.00  0.00    +0.078 C 
ATOM     10  C   UNL     1     -36.686  24.884   4.183  0.00  0.00    +0.206 C 
ATOM     11  C   UNL     1     -35.794  24.267   5.059  0.00  0.00    +0.174 C 
ENDROOT
BRANCH   5  12
ATOM     12  C   UNL     1     -31.272  28.235   4.822  0.00  0.00    +0.041 C 
ATOM     13  C   UNL     1     -31.030  28.609   6.145  0.00  0.00    +0.043 C 
ATOM     14  C   UNL     1     -30.241  28.288   3.884  0.00  0.00    +0.006 C 
ATOM     15  C   UNL     1     -29.759  29.036   6.528  0.00  0.00    +0.168 C 
ATOM     16  C   UNL     1     -28.970  28.716   4.267  0.00  0.00    +0.040 C 
ATOM     17  C   UNL     1     -28.729  29.089   5.589  0.00  0.00    +0.167 C 
BRANCH  15  18
ATOM     18  O   UNL     1     -29.536  29.399   7.823  0.00  0.00    -0.503 OA
ATOM     19  H   UNL     1     -30.243  29.397   8.437  0.00  0.00    +0.292 HD
ENDBRANCH  15  18
BRANCH  17  20
ATOM     20  O   UNL     1     -27.483  29.504   5.951  0.00  0.00    -0.503 OA
ATOM     21  H   UNL     1     -27.347  30.387   6.234  0.00  0.00    +0.292 HD
ENDBRANCH  17  20
ENDBRANCH   5  12
BRANCH  10  22
ATOM     22  O   UNL     1     -37.896  24.306   3.930  0.00  0.00    -0.465 OA
ATOM     23  C   UNL     1     -37.964  23.402   2.830  0.00  0.00    +0.253 C 
ENDBRANCH  10  22
BRANCH   7  24
ATOM     24  O   UNL     1     -37.245  26.658   2.715  0.00  0.00    -0.503 OA
ATOM     25  H   UNL     1     -37.140  26.564   1.788  0.00  0.00    +0.292 HD
ENDBRANCH   7  24
BRANCH   8  26
ATOM     26  O   UNL     1     -32.971  29.648   2.958  0.00  0.00    -0.501 OA
ATOM     27  H   UNL     1     -32.614  30.337   3.482  0.00  0.00    +0.292 HD
ENDBRANCH   8  26
BRANCH  11  28
ATOM     28  O   UNL     1     -36.120  23.091   5.667  0.00  0.00    -0.503 OA
ATOM     29  H   UNL     1     -36.761  23.079   6.350  0.00  0.00    +0.292 HD
ENDBRANCH  11  28
TORSDOF 7
ENDMDL
MODEL 3
REMARK VINA RESULT:      -6.1      1.812      2.875
REMARK  Name = 5281678
REMARK  7 active torsions:
REMARK  status: ('A' for Active; 'I' for Inactive)
REMARK    1  A    between atoms: C_5  and  C_12
REMARK    2  A    between atoms: C_7  and  O_24
REMARK    3  A    between atoms: C_8  and  O_26
REMARK    4  A    between atoms: C_10  and  O_22
REMARK    5  A    between atoms: C_11  and  O_28
REMARK    6  A    between atoms: C_15  and  O_18
REMARK    7  A    between atoms: C_17  and  O_20
REMARK                            x       y       z     vdW  Elec       q    Type
REMARK                         _______ _______ _______ _____ _____    ______ ____
ROOT
ATOM      1  O   UNL     1     -34.651  24.231   3.154  0.00  0.00    -0.450 OA
ATOM      2  O   UNL     1     -38.666  24.484   3.806  0.00  0.00    -0.283 OA
ATOM      3  C   UNL     1     -36.876  23.329   2.792  0.00  0.00    +0.113 A 
ATOM      4  C   UNL     1     -35.496  23.299   2.606  0.00  0.00    +0.155 A 
ATOM      5  C   UNL     1     -35.195  25.237   3.937  0.00  0.00    +0.182 A 
ATOM      6  C   UNL     1     -37.460  24.403   3.612  0.00  0.00    +0.238 A 
ATOM      7  C   UNL     1     -37.689  22.355   2.209  0.00  0.00    +0.177 C 
ATOM      8  C   UNL     1     -36.509  25.383   4.187  0.00  0.00    +0.208 A 
ATOM      9  C   UNL     1     -34.918  22.293   1.832  0.00  0.00    +0.078 C 
ATOM     10  C   UNL     1     -37.108  21.348   1.435  0.00  0.00    +0.206 C 
ATOM     11  C   UNL     1     -35.726  21.317   1.247  0.00  0.00    +0.174 C 
ENDROOT
BRANCH   5  12
ATOM     12  C   UNL     1     -34.180  26.167   4.462  0.00  0.00    +0.041 C 
ATOM     13  C   UNL     1     -33.891  26.187   5.827  0.00  0.00    +0.043 C 
ATOM     14  C   UNL     1     -33.506  27.029   3.595  0.00  0.00    +0.006 C 
ATOM     15  C   UNL     1     -32.930  27.066   6.325  0.00  0.00    +0.168 C 
ATOM     16  C   UNL     1     -32.546  27.909   4.093  0.00  0.00    +0.040 C 
ATOM     17  C   UNL     1     -32.258  27.927   5.458  0.00  0.00    +0.167 C 
BRANCH  15  18
ATOM     18  O   UNL     1     -32.657  27.076   7.660  0.00  0.00    -0.503 OA
ATOM     19  H   UNL     1     -32.966  26.379   8.205  0.00  0.00    +0.292 HD
ENDBRANCH  15  18
BRANCH  17  20
ATOM     20  O   UNL     1     -31.317  28.792   5.931  0.00  0.00    -0.503 OA
ATOM     21  H   UNL     1     -30.419  28.687   5.686  0.00  0.00    +0.292 HD
ENDBRANCH  17  20
ENDBRANCH   5  12
BRANCH  10  22
ATOM     22  O   UNL     1     -37.891  20.390   0.860  0.00  0.00    -0.465 OA
ATOM     23  C   UNL     1     -38.387  20.660  -0.448  0.00  0.00    +0.253 C 
ENDBRANCH  10  22
BRANCH   7  24
ATOM     24  O   UNL     1     -39.042  22.349   2.368  0.00  0.00    -0.503 OA
ATOM     25  H   UNL     1     -39.438  21.781   2.999  0.00  0.00    +0.292 HD
ENDBRANCH   7  24
BRANCH   8  26
ATOM     26  O   UNL     1     -37.020  26.416   4.944  0.00  0.00    -0.501 OA
ATOM     27  H   UNL     1     -36.488  26.825   5.598  0.00  0.00    +0.292 HD
ENDBRANCH   8  26
BRANCH  11  28
ATOM     28  O   UNL     1     -35.151  20.338   0.494  0.00  0.00    -0.503 OA
ATOM     29  H   UNL     1     -35.488  19.464   0.525  0.00  0.00    +0.292 HD
ENDBRANCH  11  28
TORSDOF 7
ENDMDL
MODEL 4
REMARK VINA RESULT:      -6.1      3.431      7.237
REMARK  Name = 5281678
REMARK  7 active torsions:
REMARK  status: ('A' for Active; 'I' for Inactive)
REMARK    1  A    between atoms: C_5  and  C_12
REMARK    2  A    between atoms: C_7  and  O_24
REMARK    3  A    between atoms: C_8  and  O_26
REMARK    4  A    between atoms: C_10  and  O_22
REMARK    5  A    between atoms: C_11  and  O_28
REMARK    6  A    between atoms: C_15  and  O_18
REMARK    7  A    between atoms: C_17  and  O_20
REMARK                            x       y       z     vdW  Elec       q    Type
REMARK                         _______ _______ _______ _____ _____    ______ ____
ROOT
ATOM      1  O   UNL     1     -34.904  26.178   3.228  0.00  0.00    -0.450 OA
ATOM      2  O   UNL     1     -38.346  27.313   1.363  0.00  0.00    -0.283 OA
ATOM      3  C   UNL     1     -36.120  27.839   1.940  0.00  0.00    +0.113 A 
ATOM      4  C   UNL     1     -34.975  27.394   2.597  0.00  0.00    +0.155 A 
ATOM      5  C   UNL     1     -36.018  25.353   3.201  0.00  0.00    +0.182 A 
ATOM      6  C   UNL     1     -37.309  26.973   1.919  0.00  0.00    +0.238 A 
ATOM      7  C   UNL     1     -36.135  29.087   1.315  0.00  0.00    +0.177 C 
ATOM      8  C   UNL     1     -37.186  25.667   2.610  0.00  0.00    +0.208 A 
ATOM      9  C   UNL     1     -33.835  28.197   2.633  0.00  0.00    +0.078 C 
ATOM     10  C   UNL     1     -34.993  29.889   1.352  0.00  0.00    +0.206 C 
ATOM     11  C   UNL     1     -33.845  29.445   2.010  0.00  0.00    +0.174 C 
ENDROOT
BRANCH   5  12
ATOM     12  C   UNL     1     -35.808  24.082   3.915  0.00  0.00    +0.041 C 
ATOM     13  C   UNL     1     -35.834  22.875   3.214  0.00  0.00    +0.043 C 
ATOM     14  C   UNL     1     -35.583  24.082   5.292  0.00  0.00    +0.006 C 
ATOM     15  C   UNL     1     -35.635  21.672   3.889  0.00  0.00    +0.168 C 
ATOM     16  C   UNL     1     -35.384  22.878   5.967  0.00  0.00    +0.040 C 
ATOM     17  C   UNL     1     -35.410  21.673   5.266  0.00  0.00    +0.167 C 
BRANCH  15  18
ATOM     18  O   UNL     1     -35.662  20.500   3.193  0.00  0.00    -0.503 OA
ATOM     19  H   UNL     1     -34.877  20.170   2.802  0.00  0.00    +0.292 HD
ENDBRANCH  15  18
BRANCH  17  20
ATOM     20  O   UNL     1     -35.214  20.504   5.937  0.00  0.00    -0.503 OA
ATOM     21  H   UNL     1     -35.926  20.100   6.392  0.00  0.00    +0.292 HD
ENDBRANCH  17  20
ENDBRANCH   5  12
BRANCH  10  22
ATOM     22  O   UNL     1     -34.995  31.110   0.744  0.00  0.00    -0.465 OA
ATOM     23  C   UNL     1     -35.366  32.230   1.544  0.00  0.00    +0.253 C 
ENDBRANCH  10  22
BRANCH   7  24
ATOM     24  O   UNL     1     -37.235  29.558   0.663  0.00  0.00    -0.503 OA
ATOM     25  H   UNL     1     -37.173  29.817  -0.236  0.00  0.00    +0.292 HD
ENDBRANCH   7  24
BRANCH   8  26
ATOM     26  O   UNL     1     -38.285  24.836   2.629  0.00  0.00    -0.501 OA
ATOM     27  H   UNL     1     -38.303  24.096   3.202  0.00  0.00    +0.292 HD
ENDBRANCH   8  26
BRANCH  11  28
ATOM     28  O   UNL     1     -32.726  30.221   2.050  0.00  0.00    -0.503 OA
ATOM     29  H   UNL     1     -31.891  29.852   1.838  0.00  0.00    +0.292 HD
ENDBRANCH  11  28
TORSDOF 7
ENDMDL
MODEL 5
REMARK VINA RESULT:      -6.1      2.830      6.302
REMARK  Name = 5281678
REMARK  7 active torsions:
REMARK  status: ('A' for Active; 'I' for Inactive)
REMARK    1  A    between atoms: C_5  and  C_12
REMARK    2  A    between atoms: C_7  and  O_24
REMARK    3  A    between atoms: C_8  and  O_26
REMARK    4  A    between atoms: C_10  and  O_22
REMARK    5  A    between atoms: C_11  and  O_28
REMARK    6  A    between atoms: C_15  and  O_18
REMARK    7  A    between atoms: C_17  and  O_20
REMARK                            x       y       z     vdW  Elec       q    Type
REMARK                         _______ _______ _______ _____ _____    ______ ____
ROOT
ATOM      1  O   UNL     1     -35.246  22.222   2.045  0.00  0.00    -0.450 OA
ATOM      2  O   UNL     1     -38.840  20.775   0.778  0.00  0.00    -0.283 OA
ATOM      3  C   UNL     1     -37.668  22.402   2.021  0.00  0.00    +0.113 A 
ATOM      4  C   UNL     1     -36.409  22.845   2.421  0.00  0.00    +0.155 A 
ATOM      5  C   UNL     1     -35.329  21.110   1.221  0.00  0.00    +0.182 A 
ATOM      6  C   UNL     1     -37.762  21.214   1.156  0.00  0.00    +0.238 A 
ATOM      7  C   UNL     1     -38.818  23.076   2.435  0.00  0.00    +0.177 C 
ATOM      8  C   UNL     1     -36.480  20.577   0.772  0.00  0.00    +0.208 A 
ATOM      9  C   UNL     1     -36.293  23.967   3.242  0.00  0.00    +0.078 C 
ATOM     10  C   UNL     1     -38.699  24.199   3.256  0.00  0.00    +0.206 C 
ATOM     11  C   UNL     1     -37.440  24.643   3.659  0.00  0.00    +0.174 C 
ENDROOT
BRANCH   5  12
ATOM     12  C   UNL     1     -34.011  20.539   0.894  0.00  0.00    +0.041 C 
ATOM     13  C   UNL     1     -33.618  19.323   1.456  0.00  0.00    +0.043 C 
ATOM     14  C   UNL     1     -33.153  21.213   0.024  0.00  0.00    +0.006 C 
ATOM     15  C   UNL     1     -32.371  18.781   1.146  0.00  0.00    +0.168 C 
ATOM     16  C   UNL     1     -31.905  20.672  -0.285  0.00  0.00    +0.040 C 
ATOM     17  C   UNL     1     -31.515  19.456   0.276  0.00  0.00    +0.167 C 
BRANCH  15  18
ATOM     18  O   UNL     1     -32.000  17.593   1.700  0.00  0.00    -0.503 OA
ATOM     19  H   UNL     1     -31.250  17.138   1.371  0.00  0.00    +0.292 HD
ENDBRANCH  15  18
BRANCH  17  20
ATOM     20  O   UNL     1     -30.293  18.938  -0.034  0.00  0.00    -0.503 OA
ATOM     21  H   UNL     1     -29.696  19.430  -0.561  0.00  0.00    +0.292 HD
ENDBRANCH  17  20
ENDBRANCH   5  12
BRANCH  10  22
ATOM     22  O   UNL     1     -39.816  24.866   3.667  0.00  0.00    -0.465 OA
ATOM     23  C   UNL     1     -40.280  25.925   2.834  0.00  0.00    +0.253 C 
ENDBRANCH  10  22
BRANCH   7  24
ATOM     24  O   UNL     1     -40.067  22.674   2.065  0.00  0.00    -0.503 OA
ATOM     25  H   UNL     1     -40.620  22.235   2.681  0.00  0.00    +0.292 HD
ENDBRANCH   7  24
BRANCH   8  26
ATOM     26  O   UNL     1     -36.528  19.450  -0.020  0.00  0.00    -0.501 OA
ATOM     27  H   UNL     1     -37.353  19.121  -0.317  0.00  0.00    +0.292 HD
ENDBRANCH   8  26
BRANCH  11  28
ATOM     28  O   UNL     1     -37.315  25.739   4.459  0.00  0.00    -0.503 OA
ATOM     29  H   UNL     1     -37.387  25.651   5.389  0.00  0.00    +0.292 HD
ENDBRANCH  11  28
TORSDOF 7
ENDMDL
MODEL 6
REMARK VINA RESULT:      -6.0      2.254      3.874
REMARK  Name = 5281678
REMARK  7 active torsions:
REMARK  status: ('A' for Active; 'I' for Inactive)
REMARK    1  A    between atoms: C_5  and  C_12
REMARK    2  A    between atoms: C_7  and  O_24
REMARK    3  A    between atoms: C_8  and  O_26
REMARK    4  A    between atoms: C_10  and  O_22
REMARK    5  A    between atoms: C_11  and  O_28
REMARK    6  A    between atoms: C_15  and  O_18
REMARK    7  A    between atoms: C_17  and  O_20
REMARK                            x       y       z     vdW  Elec       q    Type
REMARK                         _______ _______ _______ _____ _____    ______ ____
ROOT
ATOM      1  O   UNL     1     -34.487  24.773   4.299  0.00  0.00    -0.450 OA
ATOM      2  O   UNL     1     -37.446  26.522   2.109  0.00  0.00    -0.283 OA
ATOM      3  C   UNL     1     -36.452  24.531   2.893  0.00  0.00    +0.113 A 
ATOM      4  C   UNL     1     -35.416  23.995   3.654  0.00  0.00    +0.155 A 
ATOM      5  C   UNL     1     -34.593  26.151   4.196  0.00  0.00    +0.182 A 
ATOM      6  C   UNL     1     -36.561  25.994   2.770  0.00  0.00    +0.238 A 
ATOM      7  C   UNL     1     -37.369  23.691   2.257  0.00  0.00    +0.177 C 
ATOM      8  C   UNL     1     -35.539  26.793   3.487  0.00  0.00    +0.208 A 
ATOM      9  C   UNL     1     -35.289  22.612   3.784  0.00  0.00    +0.078 C 
ATOM     10  C   UNL     1     -37.240  22.307   2.390  0.00  0.00    +0.206 C 
ATOM     11  C   UNL     1     -36.203  21.769   3.151  0.00  0.00    +0.174 C 
ENDROOT
BRANCH   5  12
ATOM     12  C   UNL     1     -33.535  26.864   4.933  0.00  0.00    +0.041 C 
ATOM     13  C   UNL     1     -32.646  27.694   4.250  0.00  0.00    +0.043 C 
ATOM     14  C   UNL     1     -33.422  26.710   6.316  0.00  0.00    +0.006 C 
ATOM     15  C   UNL     1     -31.645  28.369   4.947  0.00  0.00    +0.168 C 
ATOM     16  C   UNL     1     -32.420  27.385   7.013  0.00  0.00    +0.040 C 
ATOM     17  C   UNL     1     -31.532  28.215   6.329  0.00  0.00    +0.167 C 
BRANCH  15  18
ATOM     18  O   UNL     1     -30.783  29.177   4.268  0.00  0.00    -0.503 OA
ATOM     19  H   UNL     1     -29.939  29.367   4.628  0.00  0.00    +0.292 HD
ENDBRANCH  15  18
BRANCH  17  20
ATOM     20  O   UNL     1     -30.559  28.870   7.022  0.00  0.00    -0.503 OA
ATOM     21  H   UNL     1     -30.792  29.509   7.666  0.00  0.00    +0.292 HD
ENDBRANCH  17  20
ENDBRANCH   5  12
BRANCH  10  22
ATOM     22  O   UNL     1     -38.130  21.476   1.775  0.00  0.00    -0.465 OA
ATOM     23  C   UNL     1     -37.787  21.011   0.472  0.00  0.00    +0.253 C 
ENDBRANCH  10  22
BRANCH   7  24
ATOM     24  O   UNL     1     -38.396  24.176   1.504  0.00  0.00    -0.503 OA
ATOM     25  H   UNL     1     -39.194  23.691   1.432  0.00  0.00    +0.292 HD
ENDBRANCH   7  24
BRANCH   8  26
ATOM     26  O   UNL     1     -35.596  28.166   3.379  0.00  0.00    -0.501 OA
ATOM     27  H   UNL     1     -34.815  28.655   3.212  0.00  0.00    +0.292 HD
ENDBRANCH   8  26
BRANCH  11  28
ATOM     28  O   UNL     1     -36.071  20.419   3.287  0.00  0.00    -0.503 OA
ATOM     29  H   UNL     1     -36.500  19.974   3.991  0.00  0.00    +0.292 HD
ENDBRANCH  11  28
TORSDOF 7
ENDMDL
MODEL 7
REMARK VINA RESULT:      -6.0      2.287      7.692
REMARK  Name = 5281678
REMARK  7 active torsions:
REMARK  status: ('A' for Active; 'I' for Inactive)
REMARK    1  A    between atoms: C_5  and  C_12
REMARK    2  A    between atoms: C_7  and  O_24
REMARK    3  A    between atoms: C_8  and  O_26
REMARK    4  A    between atoms: C_10  and  O_22
REMARK    5  A    between atoms: C_11  and  O_28
REMARK    6  A    between atoms: C_15  and  O_18
REMARK    7  A    between atoms: C_17  and  O_20
REMARK                            x       y       z     vdW  Elec       q    Type
REMARK                         _______ _______ _______ _____ _____    ______ ____
ROOT
ATOM      1  O   UNL     1     -34.882  23.351   1.960  0.00  0.00    -0.450 OA
ATOM      2  O   UNL     1     -35.056  23.386   6.032  0.00  0.00    -0.283 OA
ATOM      3  C   UNL     1     -34.598  24.567   4.042  0.00  0.00    +0.113 A 
ATOM      4  C   UNL     1     -34.557  24.490   2.651  0.00  0.00    +0.155 A 
ATOM      5  C   UNL     1     -35.279  22.233   2.677  0.00  0.00    +0.182 A 
ATOM      6  C   UNL     1     -35.007  23.380   4.808  0.00  0.00    +0.238 A 
ATOM      7  C   UNL     1     -34.255  25.754   4.693  0.00  0.00    +0.177 C 
ATOM      8  C   UNL     1     -35.353  22.174   4.019  0.00  0.00    +0.208 A 
ATOM      9  C   UNL     1     -34.170  25.601   1.902  0.00  0.00    +0.078 C 
ATOM     10  C   UNL     1     -33.869  26.864   3.940  0.00  0.00    +0.206 C 
ATOM     11  C   UNL     1     -33.827  26.789   2.548  0.00  0.00    +0.174 C 
ENDROOT
BRANCH   5  12
ATOM     12  C   UNL     1     -35.599  21.082   1.814  0.00  0.00    +0.041 C 
ATOM     13  C   UNL     1     -36.914  20.863   1.400  0.00  0.00    +0.043 C 
ATOM     14  C   UNL     1     -34.587  20.209   1.410  0.00  0.00    +0.006 C 
ATOM     15  C   UNL     1     -37.216  19.775   0.583  0.00  0.00    +0.168 C 
ATOM     16  C   UNL     1     -34.890  19.120   0.594  0.00  0.00    +0.040 C 
ATOM     17  C   UNL     1     -36.205  18.903   0.180  0.00  0.00    +0.167 C 
BRANCH  15  18
ATOM     18  O   UNL     1     -38.504  19.572   0.186  0.00  0.00    -0.503 OA
ATOM     19  H   UNL     1     -38.928  18.758   0.372  0.00  0.00    +0.292 HD
ENDBRANCH  15  18
BRANCH  17  20
ATOM     20  O   UNL     1     -36.488  17.835  -0.618  0.00  0.00    -0.503 OA
ATOM     21  H   UNL     1     -36.790  17.034  -0.238  0.00  0.00    +0.292 HD
ENDBRANCH  17  20
ENDBRANCH   5  12
BRANCH  10  22
ATOM     22  O   UNL     1     -33.532  28.030   4.565  0.00  0.00    -0.465 OA
ATOM     23  C   UNL     1     -32.161  28.206   4.909  0.00  0.00    +0.253 C 
ENDBRANCH  10  22
BRANCH   7  24
ATOM     24  O   UNL     1     -34.282  25.870   6.051  0.00  0.00    -0.503 OA
ATOM     25  H   UNL     1     -34.647  26.636   6.449  0.00  0.00    +0.292 HD
ENDBRANCH   7  24
BRANCH   8  26
ATOM     26  O   UNL     1     -35.722  21.034   4.702  0.00  0.00    -0.501 OA
ATOM     27  H   UNL     1     -35.957  20.261   4.230  0.00  0.00    +0.292 HD
ENDBRANCH   8  26
BRANCH  11  28
ATOM     28  O   UNL     1     -33.452  27.869   1.806  0.00  0.00    -0.503 OA
ATOM     29  H   UNL     1     -32.889  27.757   1.066  0.00  0.00    +0.292 HD
ENDBRANCH  11  28
TORSDOF 7
ENDMDL
MODEL 8
REMARK VINA RESULT:      -6.0      3.664      7.694
REMARK  Name = 5281678
REMARK  7 active torsions:
REMARK  status: ('A' for Active; 'I' for Inactive)
REMARK    1  A    between atoms: C_5  and  C_12
REMARK    2  A    between atoms: C_7  and  O_24
REMARK    3  A    between atoms: C_8  and  O_26
REMARK    4  A    between atoms: C_10  and  O_22
REMARK    5  A    between atoms: C_11  and  O_28
REMARK    6  A    between atoms: C_15  and  O_18
REMARK    7  A    between atoms: C_17  and  O_20
REMARK                            x       y       z     vdW  Elec       q    Type
REMARK                         _______ _______ _______ _____ _____    ______ ____
ROOT
ATOM      1  O   UNL     1     -34.127  26.170   3.624  0.00  0.00    -0.450 OA
ATOM      2  O   UNL     1     -37.230  27.838   1.576  0.00  0.00    -0.283 OA
ATOM      3  C   UNL     1     -35.007  28.032   2.339  0.00  0.00    +0.113 A 
ATOM      4  C   UNL     1     -33.985  27.409   3.053  0.00  0.00    +0.155 A 
ATOM      5  C   UNL     1     -35.334  25.506   3.474  0.00  0.00    +0.182 A 
ATOM      6  C   UNL     1     -36.295  27.338   2.187  0.00  0.00    +0.238 A 
ATOM      7  C   UNL     1     -34.807  29.296   1.779  0.00  0.00    +0.177 C 
ATOM      8  C   UNL     1     -36.400  26.000   2.817  0.00  0.00    +0.208 A 
ATOM      9  C   UNL     1     -32.756  28.048   3.213  0.00  0.00    +0.078 C 
ATOM     10  C   UNL     1     -33.575  29.932   1.940  0.00  0.00    +0.206 C 
ATOM     11  C   UNL     1     -32.552  29.310   2.656  0.00  0.00    +0.174 C 
ENDROOT
BRANCH   5  12
ATOM     12  C   UNL     1     -35.351  24.189   4.135  0.00  0.00    +0.041 C 
ATOM     13  C   UNL     1     -35.488  23.028   3.373  0.00  0.00    +0.043 C 
ATOM     14  C   UNL     1     -35.231  24.102   5.522  0.00  0.00    +0.006 C 
ATOM     15  C   UNL     1     -35.503  21.782   3.998  0.00  0.00    +0.168 C 
ATOM     16  C   UNL     1     -35.248  22.856   6.147  0.00  0.00    +0.040 C 
ATOM     17  C   UNL     1     -35.383  21.695   5.385  0.00  0.00    +0.167 C 
BRANCH  15  18
ATOM     18  O   UNL     1     -35.636  20.655   3.243  0.00  0.00    -0.503 OA
ATOM     19  H   UNL     1     -36.375  20.093   3.369  0.00  0.00    +0.292 HD
ENDBRANCH  15  18
BRANCH  17  20
ATOM     20  O   UNL     1     -35.397  20.483   6.007  0.00  0.00    -0.503 OA
ATOM     21  H   UNL     1     -34.889  20.350   6.783  0.00  0.00    +0.292 HD
ENDBRANCH  17  20
ENDBRANCH   5  12
BRANCH  10  22
ATOM     22  O   UNL     1     -33.367  31.167   1.397  0.00  0.00    -0.465 OA
ATOM     23  C   UNL     1     -33.700  32.293   2.205  0.00  0.00    +0.253 C 
ENDBRANCH  10  22
BRANCH   7  24
ATOM     24  O   UNL     1     -35.780  29.939   1.074  0.00  0.00    -0.503 OA
ATOM     25  H   UNL     1     -36.336  29.456   0.495  0.00  0.00    +0.292 HD
ENDBRANCH   7  24
BRANCH   8  26
ATOM     26  O   UNL     1     -37.598  25.326   2.713  0.00  0.00    -0.501 OA
ATOM     27  H   UNL     1     -37.609  24.390   2.699  0.00  0.00    +0.292 HD
ENDBRANCH   8  26
BRANCH  11  28
ATOM     28  O   UNL     1     -31.346  29.925   2.817  0.00  0.00    -0.503 OA
ATOM     29  H   UNL     1     -30.571  29.412   2.937  0.00  0.00    +0.292 HD
ENDBRANCH  11  28
TORSDOF 7
ENDMDL
MODEL 9
REMARK VINA RESULT:      -6.0      3.720      9.088
REMARK  Name = 5281678
REMARK  7 active torsions:
REMARK  status: ('A' for Active; 'I' for Inactive)
REMARK    1  A    between atoms: C_5  and  C_12
REMARK    2  A    between atoms: C_7  and  O_24
REMARK    3  A    between atoms: C_8  and  O_26
REMARK    4  A    between atoms: C_10  and  O_22
REMARK    5  A    between atoms: C_11  and  O_28
REMARK    6  A    between atoms: C_15  and  O_18
REMARK    7  A    between atoms: C_17  and  O_20
REMARK                            x       y       z     vdW  Elec       q    Type
REMARK                         _______ _______ _______ _____ _____    ______ ____
ROOT
ATOM      1  O   UNL     1     -33.381  26.248   4.838  0.00  0.00    -0.450 OA
ATOM      2  O   UNL     1     -34.417  29.146   2.166  0.00  0.00    -0.283 OA
ATOM      3  C   UNL     1     -33.191  28.551   4.091  0.00  0.00    +0.113 A 
ATOM      4  C   UNL     1     -32.877  27.517   4.972  0.00  0.00    +0.155 A 
ATOM      5  C   UNL     1     -34.229  25.982   3.775  0.00  0.00    +0.182 A 
ATOM      6  C   UNL     1     -34.100  28.276   2.968  0.00  0.00    +0.238 A 
ATOM      7  C   UNL     1     -32.649  29.824   4.276  0.00  0.00    +0.177 C 
ATOM      8  C   UNL     1     -34.616  26.890   2.861  0.00  0.00    +0.208 A 
ATOM      9  C   UNL     1     -32.019  27.752   6.046  0.00  0.00    +0.078 C 
ATOM     10  C   UNL     1     -31.789  30.056   5.352  0.00  0.00    +0.206 C 
ATOM     11  C   UNL     1     -31.475  29.023   6.235  0.00  0.00    +0.174 C 
ENDROOT
BRANCH   5  12
ATOM     12  C   UNL     1     -34.696  24.584   3.750  0.00  0.00    +0.041 C 
ATOM     13  C   UNL     1     -35.159  23.982   4.921  0.00  0.00    +0.043 C 
ATOM     14  C   UNL     1     -34.676  23.862   2.556  0.00  0.00    +0.006 C 
ATOM     15  C   UNL     1     -35.602  22.660   4.897  0.00  0.00    +0.168 C 
ATOM     16  C   UNL     1     -35.118  22.539   2.533  0.00  0.00    +0.040 C 
ATOM     17  C   UNL     1     -35.581  21.939   3.704  0.00  0.00    +0.167 C 
BRANCH  15  18
ATOM     18  O   UNL     1     -36.053  22.084   6.047  0.00  0.00    -0.503 OA
ATOM     19  H   UNL     1     -36.647  21.361   6.005  0.00  0.00    +0.292 HD
ENDBRANCH  15  18
BRANCH  17  20
ATOM     20  O   UNL     1     -36.011  20.646   3.668  0.00  0.00    -0.503 OA
ATOM     21  H   UNL     1     -35.403  19.955   3.498  0.00  0.00    +0.292 HD
ENDBRANCH  17  20
ENDBRANCH   5  12
BRANCH  10  22
ATOM     22  O   UNL     1     -31.253  31.296   5.543  0.00  0.00    -0.465 OA
ATOM     23  C   UNL     1     -29.990  31.555   4.936  0.00  0.00    +0.253 C 
ENDBRANCH  10  22
BRANCH   7  24
ATOM     24  O   UNL     1     -32.931  30.861   3.438  0.00  0.00    -0.503 OA
ATOM     25  H   UNL     1     -32.472  30.944   2.625  0.00  0.00    +0.292 HD
ENDBRANCH   7  24
BRANCH   8  26
ATOM     26  O   UNL     1     -35.488  26.599   1.834  0.00  0.00    -0.501 OA
ATOM     27  H   UNL     1     -35.167  26.519   0.958  0.00  0.00    +0.292 HD
ENDBRANCH   8  26
BRANCH  11  28
ATOM     28  O   UNL     1     -30.636  29.241   7.286  0.00  0.00    -0.503 OA
ATOM     29  H   UNL     1     -29.729  29.016   7.217  0.00  0.00    +0.292 HD
ENDBRANCH  11  28
TORSDOF 7
ENDMDL
