MODEL 1
REMARK VINA RESULT:      -7.9      0.000      0.000
REMARK  Name = 57524959
REMARK  6 active torsions:
REMARK  status: ('A' for Active; 'I' for Inactive)
REMARK    1  A    between atoms: N_5  and  C_13
REMARK    2  A    between atoms: N_6  and  C_35
REMARK    3  A    between atoms: C_7  and  C_31
REMARK    4  A    between atoms: C_11  and  C_21
REMARK    5  A    between atoms: C_24  and  C_25
REMARK    6  A    between atoms: C_25  and  O_28
REMARK                            x       y       z     vdW  Elec       q    Type
REMARK                         _______ _______ _______ _____ _____    ______ ____
ROOT
ATOM      1  F   UNL     1     -36.681  26.836   4.374  0.00  0.00    -0.204 F 
ATOM      2  N   UNL     1     -35.333  21.728   3.100  0.00  0.00    -0.302 N 
ATOM      3  N   UNL     1     -37.446  22.309   2.727  0.00  0.00    -0.302 N 
ATOM      4  C   UNL     1     -37.195  24.679   3.549  0.00  0.00    +0.046 C 
ATOM      5  C   UNL     1     -36.756  23.378   3.251  0.00  0.00    +0.061 C 
ATOM      6  C   UNL     1     -36.275  25.589   4.083  0.00  0.00    +0.139 C 
ATOM      7  C   UNL     1     -35.428  23.039   3.493  0.00  0.00    +0.060 C 
ATOM      8  C   UNL     1     -34.949  25.219   4.316  0.00  0.00    +0.028 C 
ATOM      9  C   UNL     1     -34.494  23.929   4.024  0.00  0.00    +0.018 C 
ATOM     10  C   UNL     1     -36.564  21.338   2.650  0.00  0.00    +0.228 C 
ATOM     11  H   UNL     1     -34.524  21.169   3.136  0.00  0.00    +0.150 HD
ATOM     12  H   UNL     1     -38.395  22.279   2.466  0.00  0.00    +0.150 HD
ENDROOT
BRANCH  10  14
ATOM     13  O   UNL     1     -36.642  20.272  -0.154  0.00  0.00    -0.253 OA
ATOM     14  N   UNL     1     -36.762  20.062   2.191  0.00  0.00    -0.259 N 
ATOM     15  N   UNL     1     -37.024  18.202   0.801  0.00  0.00    -0.289 N 
ATOM     16  C   UNL     1     -36.794  19.581   0.850  0.00  0.00    +0.303 C 
ATOM     17  H   UNL     1     -36.901  19.381   2.887  0.00  0.00    +0.154 HD
ATOM     18  H   UNL     1     -37.136  17.715   1.650  0.00  0.00    +0.151 HD
BRANCH  15  19
ATOM     19  C   UNL     1     -37.104  17.460  -0.435  0.00  0.00    +0.091 C 
ATOM     20  C   UNL     1     -37.982  16.234  -0.290  0.00  0.00    +0.023 C 
ENDBRANCH  15  19
ENDBRANCH  10  14
BRANCH   8  23
ATOM     21  N   UNL     1     -32.499  28.023   4.568  0.00  0.00    -0.195 NA
ATOM     22  N   UNL     1     -32.874  27.117   6.770  0.00  0.00    -0.217 NA
ATOM     23  C   UNL     1     -34.021  26.183   4.870  0.00  0.00    +0.025 C 
ATOM     24  C   UNL     1     -33.368  27.112   4.086  0.00  0.00    +0.107 C 
ATOM     25  C   UNL     1     -33.732  26.234   6.219  0.00  0.00    +0.164 C 
ATOM     26  C   UNL     1     -32.301  27.970   5.899  0.00  0.00    +0.031 C 
BRANCH  26  27
ATOM     27  C   UNL     1     -31.347  28.964   6.471  0.00  0.00    +0.160 C 
ATOM     28  C   UNL     1     -29.881  28.470   6.409  0.00  0.00    +0.045 C 
ATOM     29  C   UNL     1     -31.451  30.342   5.773  0.00  0.00    +0.045 C 
BRANCH  27  30
ATOM     30  O   UNL     1     -31.613  29.216   7.870  0.00  0.00    -0.374 OA
ATOM     31  H   UNL     1     -31.589  28.379   8.359  0.00  0.00    +0.212 HD
ENDBRANCH  27  30
ENDBRANCH  26  27
ENDBRANCH   8  23
BRANCH   4  33
ATOM     32  O   UNL     1     -39.514  23.996   3.245  0.00  0.00    -0.352 OA
ATOM     33  C   UNL     1     -38.617  25.123   3.315  0.00  0.00    +0.141 C 
ATOM     34  C   UNL     1     -38.800  25.902   2.019  0.00  0.00    +0.037 C 
ATOM     35  C   UNL     1     -40.244  25.617   1.687  0.00  0.00    +0.035 C 
ATOM     36  C   UNL     1     -40.382  24.174   2.117  0.00  0.00    +0.143 C 
ENDBRANCH   4  33
TORSDOF 6
ENDMDL
MODEL 2
REMARK VINA RESULT:      -7.0      3.412      8.443
REMARK  Name = 57524959
REMARK  6 active torsions:
REMARK  status: ('A' for Active; 'I' for Inactive)
REMARK    1  A    between atoms: N_5  and  C_13
REMARK    2  A    between atoms: N_6  and  C_35
REMARK    3  A    between atoms: C_7  and  C_31
REMARK    4  A    between atoms: C_11  and  C_21
REMARK    5  A    between atoms: C_24  and  C_25
REMARK    6  A    between atoms: C_25  and  O_28
REMARK                            x       y       z     vdW  Elec       q    Type
REMARK                         _______ _______ _______ _____ _____    ______ ____
ROOT
ATOM      1  F   UNL     1     -34.862  23.615   3.391  0.00  0.00    -0.204 F 
ATOM      2  N   UNL     1     -40.144  24.219   2.262  0.00  0.00    -0.302 N 
ATOM      3  N   UNL     1     -39.222  25.799   3.525  0.00  0.00    -0.302 N 
ATOM      4  C   UNL     1     -36.916  24.782   3.541  0.00  0.00    +0.046 C 
ATOM      5  C   UNL     1     -38.276  24.854   3.198  0.00  0.00    +0.061 C 
ATOM      6  C   UNL     1     -36.164  23.698   3.071  0.00  0.00    +0.139 C 
ATOM      7  C   UNL     1     -38.830  23.853   2.405  0.00  0.00    +0.060 C 
ATOM      8  C   UNL     1     -36.749  22.708   2.277  0.00  0.00    +0.028 C 
ATOM      9  C   UNL     1     -38.101  22.764   1.926  0.00  0.00    +0.018 C 
ATOM     10  C   UNL     1     -40.328  25.388   2.948  0.00  0.00    +0.228 C 
ATOM     11  H   UNL     1     -40.830  23.729   1.755  0.00  0.00    +0.150 HD
ATOM     12  H   UNL     1     -39.097  26.608   4.072  0.00  0.00    +0.150 HD
ENDROOT
BRANCH  10  14
ATOM     13  O   UNL     1     -41.282  27.799   4.459  0.00  0.00    -0.253 OA
ATOM     14  N   UNL     1     -41.561  25.988   2.975  0.00  0.00    -0.259 N 
ATOM     15  N   UNL     1     -43.333  27.430   3.458  0.00  0.00    -0.289 N 
ATOM     16  C   UNL     1     -41.989  27.135   3.703  0.00  0.00    +0.303 C 
ATOM     17  H   UNL     1     -42.248  25.565   2.412  0.00  0.00    +0.154 HD
ATOM     18  H   UNL     1     -43.835  26.851   2.840  0.00  0.00    +0.151 HD
BRANCH  15  19
ATOM     19  C   UNL     1     -44.020  28.544   4.070  0.00  0.00    +0.091 C 
ATOM     20  C   UNL     1     -44.971  28.081   5.156  0.00  0.00    +0.023 C 
ENDBRANCH  15  19
ENDBRANCH  10  14
BRANCH   8  23
ATOM     21  N   UNL     1     -34.614  19.646   2.266  0.00  0.00    -0.195 NA
ATOM     22  N   UNL     1     -34.967  20.357  -0.009  0.00  0.00    -0.217 NA
ATOM     23  C   UNL     1     -35.946  21.598   1.807  0.00  0.00    +0.025 C 
ATOM     24  C   UNL     1     -35.367  20.690   2.670  0.00  0.00    +0.107 C 
ATOM     25  C   UNL     1     -35.709  21.379   0.465  0.00  0.00    +0.164 C 
ATOM     26  C   UNL     1     -34.457  19.541   0.933  0.00  0.00    +0.031 C 
BRANCH  26  27
ATOM     27  C   UNL     1     -33.632  18.397   0.448  0.00  0.00    +0.160 C 
ATOM     28  C   UNL     1     -33.244  18.548  -1.043  0.00  0.00    +0.045 C 
ATOM     29  C   UNL     1     -32.350  18.202   1.293  0.00  0.00    +0.045 C 
BRANCH  27  30
ATOM     30  O   UNL     1     -34.349  17.145   0.538  0.00  0.00    -0.374 OA
ATOM     31  H   UNL     1     -35.146  17.189  -0.014  0.00  0.00    +0.212 HD
ENDBRANCH  27  30
ENDBRANCH  26  27
ENDBRANCH   8  23
BRANCH   4  33
ATOM     32  O   UNL     1     -35.235  26.542   3.653  0.00  0.00    -0.352 OA
ATOM     33  C   UNL     1     -36.243  25.826   4.396  0.00  0.00    +0.141 C 
ATOM     34  C   UNL     1     -35.547  25.246   5.621  0.00  0.00    +0.037 C 
ATOM     35  C   UNL     1     -34.458  26.261   5.868  0.00  0.00    +0.035 C 
ATOM     36  C   UNL     1     -34.051  26.630   4.459  0.00  0.00    +0.143 C 
ENDBRANCH   4  33
TORSDOF 6
ENDMDL
MODEL 3
REMARK VINA RESULT:      -6.9      4.041      9.609
REMARK  Name = 57524959
REMARK  6 active torsions:
REMARK  status: ('A' for Active; 'I' for Inactive)
REMARK    1  A    between atoms: N_5  and  C_13
REMARK    2  A    between atoms: N_6  and  C_35
REMARK    3  A    between atoms: C_7  and  C_31
REMARK    4  A    between atoms: C_11  and  C_21
REMARK    5  A    between atoms: C_24  and  C_25
REMARK    6  A    between atoms: C_25  and  O_28
REMARK                            x       y       z     vdW  Elec       q    Type
REMARK                         _______ _______ _______ _____ _____    ______ ____
ROOT
ATOM      1  F   UNL     1     -33.125  25.409   3.932  0.00  0.00    -0.204 F 
ATOM      2  N   UNL     1     -36.171  29.346   1.751  0.00  0.00    -0.302 N 
ATOM      3  N   UNL     1     -34.503  30.007   3.064  0.00  0.00    -0.302 N 
ATOM      4  C   UNL     1     -33.681  27.685   3.600  0.00  0.00    +0.046 C 
ATOM      5  C   UNL     1     -34.521  28.633   2.992  0.00  0.00    +0.061 C 
ATOM      6  C   UNL     1     -33.920  26.327   3.358  0.00  0.00    +0.139 C 
ATOM      7  C   UNL     1     -35.558  28.194   2.174  0.00  0.00    +0.060 C 
ATOM      8  C   UNL     1     -34.970  25.917   2.532  0.00  0.00    +0.028 C 
ATOM      9  C   UNL     1     -35.816  26.846   1.919  0.00  0.00    +0.018 C 
ATOM     10  C   UNL     1     -35.504  30.401   2.309  0.00  0.00    +0.228 C 
ATOM     11  H   UNL     1     -36.950  29.403   1.153  0.00  0.00    +0.150 HD
ATOM     12  H   UNL     1     -33.876  30.572   3.570  0.00  0.00    +0.150 HD
ENDROOT
BRANCH  10  14
ATOM     13  O   UNL     1     -38.174  31.470   1.454  0.00  0.00    -0.253 OA
ATOM     14  N   UNL     1     -35.905  31.687   2.055  0.00  0.00    -0.259 N 
ATOM     15  N   UNL     1     -37.185  33.559   1.492  0.00  0.00    -0.289 N 
ATOM     16  C   UNL     1     -37.182  32.170   1.648  0.00  0.00    +0.303 C 
ATOM     17  H   UNL     1     -35.211  32.376   2.168  0.00  0.00    +0.154 HD
ATOM     18  H   UNL     1     -36.350  34.052   1.667  0.00  0.00    +0.151 HD
BRANCH  15  19
ATOM     19  C   UNL     1     -38.353  34.305   1.087  0.00  0.00    +0.091 C 
ATOM     20  C   UNL     1     -38.766  35.308   2.144  0.00  0.00    +0.023 C 
ENDBRANCH  15  19
ENDBRANCH  10  14
BRANCH   8  23
ATOM     21  N   UNL     1     -36.246  22.432   2.926  0.00  0.00    -0.195 NA
ATOM     22  N   UNL     1     -34.780  22.513   1.015  0.00  0.00    -0.217 NA
ATOM     23  C   UNL     1     -35.193  24.505   2.302  0.00  0.00    +0.025 C 
ATOM     24  C   UNL     1     -36.016  23.748   3.111  0.00  0.00    +0.107 C 
ATOM     25  C   UNL     1     -34.596  23.826   1.259  0.00  0.00    +0.164 C 
ATOM     26  C   UNL     1     -35.605  21.886   1.876  0.00  0.00    +0.031 C 
BRANCH  26  27
ATOM     27  C   UNL     1     -35.836  20.432   1.638  0.00  0.00    +0.160 C 
ATOM     28  C   UNL     1     -36.647  20.173   0.344  0.00  0.00    +0.045 C 
ATOM     29  C   UNL     1     -34.513  19.631   1.580  0.00  0.00    +0.045 C 
BRANCH  27  30
ATOM     30  O   UNL     1     -36.607  19.831   2.704  0.00  0.00    -0.374 OA
ATOM     31  H   UNL     1     -37.352  20.411   2.930  0.00  0.00    +0.212 HD
ENDBRANCH  27  30
ENDBRANCH  26  27
ENDBRANCH   8  23
BRANCH   4  33
ATOM     32  O   UNL     1     -32.816  29.315   5.192  0.00  0.00    -0.352 OA
ATOM     33  C   UNL     1     -32.537  28.081   4.499  0.00  0.00    +0.141 C 
ATOM     34  C   UNL     1     -31.227  28.294   3.749  0.00  0.00    +0.037 C 
ATOM     35  C   UNL     1     -30.517  29.284   4.640  0.00  0.00    +0.035 C 
ATOM     36  C   UNL     1     -31.660  30.160   5.103  0.00  0.00    +0.143 C 
ENDBRANCH   4  33
TORSDOF 6
ENDMDL
MODEL 4
REMARK VINA RESULT:      -6.9      2.210      4.775
REMARK  Name = 57524959
REMARK  6 active torsions:
REMARK  status: ('A' for Active; 'I' for Inactive)
REMARK    1  A    between atoms: N_5  and  C_13
REMARK    2  A    between atoms: N_6  and  C_35
REMARK    3  A    between atoms: C_7  and  C_31
REMARK    4  A    between atoms: C_11  and  C_21
REMARK    5  A    between atoms: C_24  and  C_25
REMARK    6  A    between atoms: C_25  and  O_28
REMARK                            x       y       z     vdW  Elec       q    Type
REMARK                         _______ _______ _______ _____ _____    ______ ____
ROOT
ATOM      1  F   UNL     1     -33.608  24.110   3.310  0.00  0.00    -0.204 F 
ATOM      2  N   UNL     1     -38.886  25.313   2.838  0.00  0.00    -0.302 N 
ATOM      3  N   UNL     1     -38.232  23.391   1.933  0.00  0.00    -0.302 N 
ATOM      4  C   UNL     1     -35.807  23.631   2.581  0.00  0.00    +0.046 C 
ATOM      5  C   UNL     1     -37.154  24.025   2.508  0.00  0.00    +0.061 C 
ATOM      6  C   UNL     1     -34.899  24.473   3.233  0.00  0.00    +0.139 C 
ATOM      7  C   UNL     1     -37.539  25.232   3.083  0.00  0.00    +0.060 C 
ATOM      8  C   UNL     1     -35.315  25.680   3.800  0.00  0.00    +0.028 C 
ATOM      9  C   UNL     1     -36.652  26.088   3.737  0.00  0.00    +0.018 C 
ATOM     10  C   UNL     1     -39.252  24.189   2.150  0.00  0.00    +0.228 C 
ATOM     11  H   UNL     1     -39.482  26.047   3.110  0.00  0.00    +0.150 HD
ATOM     12  H   UNL     1     -38.237  22.526   1.462  0.00  0.00    +0.150 HD
ENDROOT
BRANCH  10  14
ATOM     13  O   UNL     1     -41.393  26.192   1.507  0.00  0.00    -0.253 OA
ATOM     14  N   UNL     1     -40.556  24.004   1.770  0.00  0.00    -0.259 N 
ATOM     15  N   UNL     1     -42.769  24.376   1.120  0.00  0.00    -0.289 N 
ATOM     16  C   UNL     1     -41.555  24.974   1.470  0.00  0.00    +0.303 C 
ATOM     17  H   UNL     1     -40.844  23.066   1.694  0.00  0.00    +0.154 HD
ATOM     18  H   UNL     1     -42.822  23.392   1.113  0.00  0.00    +0.151 HD
BRANCH  15  19
ATOM     19  C   UNL     1     -43.949  25.131   0.769  0.00  0.00    +0.091 C 
ATOM     20  C   UNL     1     -44.931  25.194   1.921  0.00  0.00    +0.023 C 
ENDBRANCH  15  19
ENDBRANCH  10  14
BRANCH   8  23
ATOM     21  N   UNL     1     -32.951  28.488   4.472  0.00  0.00    -0.195 NA
ATOM     22  N   UNL     1     -32.978  27.020   6.383  0.00  0.00    -0.217 NA
ATOM     23  C   UNL     1     -34.351  26.530   4.467  0.00  0.00    +0.025 C 
ATOM     24  C   UNL     1     -33.848  27.674   3.880  0.00  0.00    +0.107 C 
ATOM     25  C   UNL     1     -33.876  26.251   5.732  0.00  0.00    +0.164 C 
ATOM     26  C   UNL     1     -32.564  28.107   5.704  0.00  0.00    +0.031 C 
BRANCH  26  27
ATOM     27  C   UNL     1     -31.573  28.984   6.392  0.00  0.00    +0.160 C 
ATOM     28  C   UNL     1     -30.124  28.463   6.235  0.00  0.00    +0.045 C 
ATOM     29  C   UNL     1     -31.646  30.448   5.897  0.00  0.00    +0.045 C 
BRANCH  27  30
ATOM     30  O   UNL     1     -31.811  29.044   7.818  0.00  0.00    -0.374 OA
ATOM     31  H   UNL     1     -30.998  29.321   8.269  0.00  0.00    +0.212 HD
ENDBRANCH  27  30
ENDBRANCH  26  27
ENDBRANCH   8  23
BRANCH   4  33
ATOM     32  O   UNL     1     -35.958  22.061   0.723  0.00  0.00    -0.352 OA
ATOM     33  C   UNL     1     -35.312  22.338   1.983  0.00  0.00    +0.141 C 
ATOM     34  C   UNL     1     -35.563  21.127   2.873  0.00  0.00    +0.037 C 
ATOM     35  C   UNL     1     -35.650  20.011   1.861  0.00  0.00    +0.035 C 
ATOM     36  C   UNL     1     -36.370  20.687   0.715  0.00  0.00    +0.143 C 
ENDBRANCH   4  33
TORSDOF 6
ENDMDL
MODEL 5
REMARK VINA RESULT:      -6.8      3.315      6.591
REMARK  Name = 57524959
REMARK  6 active torsions:
REMARK  status: ('A' for Active; 'I' for Inactive)
REMARK    1  A    between atoms: N_5  and  C_13
REMARK    2  A    between atoms: N_6  and  C_35
REMARK    3  A    between atoms: C_7  and  C_31
REMARK    4  A    between atoms: C_11  and  C_21
REMARK    5  A    between atoms: C_24  and  C_25
REMARK    6  A    between atoms: C_25  and  O_28
REMARK                            x       y       z     vdW  Elec       q    Type
REMARK                         _______ _______ _______ _____ _____    ______ ____
ROOT
ATOM      1  F   UNL     1     -37.679  25.620   3.994  0.00  0.00    -0.204 F 
ATOM      2  N   UNL     1     -38.365  20.889   1.410  0.00  0.00    -0.302 N 
ATOM      3  N   UNL     1     -36.452  21.137   2.514  0.00  0.00    -0.302 N 
ATOM      4  C   UNL     1     -36.954  23.461   3.351  0.00  0.00    +0.046 C 
ATOM      5  C   UNL     1     -37.219  22.271   2.653  0.00  0.00    +0.061 C 
ATOM      6  C   UNL     1     -37.918  24.477   3.331  0.00  0.00    +0.139 C 
ATOM      7  C   UNL     1     -38.425  22.140   1.970  0.00  0.00    +0.060 C 
ATOM      8  C   UNL     1     -39.119  24.315   2.636  0.00  0.00    +0.028 C 
ATOM      9  C   UNL     1     -39.400  23.138   1.936  0.00  0.00    +0.018 C 
ATOM     10  C   UNL     1     -37.169  20.330   1.764  0.00  0.00    +0.228 C 
ATOM     11  H   UNL     1     -39.060  20.469   0.854  0.00  0.00    +0.150 HD
ATOM     12  H   UNL     1     -35.560  20.967   2.895  0.00  0.00    +0.150 HD
ENDROOT
BRANCH  10  14
ATOM     13  O   UNL     1     -37.570  19.012  -0.902  0.00  0.00    -0.253 OA
ATOM     14  N   UNL     1     -36.840  19.069   1.339  0.00  0.00    -0.259 N 
ATOM     15  N   UNL     1     -36.562  17.153   0.032  0.00  0.00    -0.289 N 
ATOM     16  C   UNL     1     -37.042  18.466   0.064  0.00  0.00    +0.303 C 
ATOM     17  H   UNL     1     -36.402  18.499   2.011  0.00  0.00    +0.154 HD
ATOM     18  H   UNL     1     -36.151  16.784   0.847  0.00  0.00    +0.151 HD
BRANCH  15  19
ATOM     19  C   UNL     1     -36.642  16.313  -1.141  0.00  0.00    +0.091 C 
ATOM     20  C   UNL     1     -37.866  15.421  -1.102  0.00  0.00    +0.023 C 
ENDBRANCH  15  19
ENDBRANCH  10  14
BRANCH   8  23
ATOM     21  N   UNL     1     -41.161  27.233   1.519  0.00  0.00    -0.195 NA
ATOM     22  N   UNL     1     -41.845  26.610   3.744  0.00  0.00    -0.217 NA
ATOM     23  C   UNL     1     -40.096  25.384   2.634  0.00  0.00    +0.025 C 
ATOM     24  C   UNL     1     -40.261  26.228   1.555  0.00  0.00    +0.107 C 
ATOM     25  C   UNL     1     -40.925  25.625   3.711  0.00  0.00    +0.164 C 
ATOM     26  C   UNL     1     -41.908  27.366   2.631  0.00  0.00    +0.031 C 
BRANCH  26  27
ATOM     27  C   UNL     1     -42.917  28.465   2.628  0.00  0.00    +0.160 C 
ATOM     28  C   UNL     1     -44.146  28.128   1.750  0.00  0.00    +0.045 C 
ATOM     29  C   UNL     1     -43.392  28.826   4.056  0.00  0.00    +0.045 C 
BRANCH  27  30
ATOM     30  O   UNL     1     -42.372  29.688   2.080  0.00  0.00    -0.374 OA
ATOM     31  H   UNL     1     -42.818  30.449   2.484  0.00  0.00    +0.212 HD
ENDBRANCH  27  30
ENDBRANCH  26  27
ENDBRANCH   8  23
BRANCH   4  33
ATOM     32  O   UNL     1     -35.934  24.079   5.475  0.00  0.00    -0.352 OA
ATOM     33  C   UNL     1     -35.672  23.680   4.114  0.00  0.00    +0.141 C 
ATOM     34  C   UNL     1     -34.787  24.762   3.508  0.00  0.00    +0.037 C 
ATOM     35  C   UNL     1     -34.026  25.252   4.716  0.00  0.00    +0.035 C 
ATOM     36  C   UNL     1     -35.083  25.190   5.796  0.00  0.00    +0.143 C 
ENDBRANCH   4  33
TORSDOF 6
ENDMDL
MODEL 6
REMARK VINA RESULT:      -6.8      3.621      6.060
REMARK  Name = 57524959
REMARK  6 active torsions:
REMARK  status: ('A' for Active; 'I' for Inactive)
REMARK    1  A    between atoms: N_5  and  C_13
REMARK    2  A    between atoms: N_6  and  C_35
REMARK    3  A    between atoms: C_7  and  C_31
REMARK    4  A    between atoms: C_11  and  C_21
REMARK    5  A    between atoms: C_24  and  C_25
REMARK    6  A    between atoms: C_25  and  O_28
REMARK                            x       y       z     vdW  Elec       q    Type
REMARK                         _______ _______ _______ _____ _____    ______ ____
ROOT
ATOM      1  F   UNL     1     -37.707  21.667   1.002  0.00  0.00    -0.204 F 
ATOM      2  N   UNL     1     -33.686  18.011   1.010  0.00  0.00    -0.302 N 
ATOM      3  N   UNL     1     -35.470  17.507  -0.217  0.00  0.00    -0.302 N 
ATOM      4  C   UNL     1     -36.742  19.614   0.327  0.00  0.00    +0.046 C 
ATOM      5  C   UNL     1     -35.653  18.728   0.390  0.00  0.00    +0.061 C 
ATOM      6  C   UNL     1     -36.674  20.810   1.051  0.00  0.00    +0.139 C 
ATOM      7  C   UNL     1     -34.547  19.067   1.164  0.00  0.00    +0.060 C 
ATOM      8  C   UNL     1     -35.550  21.122   1.821  0.00  0.00    +0.028 C 
ATOM      9  C   UNL     1     -34.457  20.253   1.894  0.00  0.00    +0.018 C 
ATOM     10  C   UNL     1     -34.282  17.106   0.176  0.00  0.00    +0.228 C 
ATOM     11  H   UNL     1     -32.798  17.922   1.424  0.00  0.00    +0.150 HD
ATOM     12  H   UNL     1     -36.094  17.036  -0.815  0.00  0.00    +0.150 HD
ENDROOT
BRANCH  10  14
ATOM     13  O   UNL     1     -31.381  16.364   0.375  0.00  0.00    -0.253 OA
ATOM     14  N   UNL     1     -33.639  15.941  -0.156  0.00  0.00    -0.259 N 
ATOM     15  N   UNL     1     -31.998  14.314  -0.497  0.00  0.00    -0.289 N 
ATOM     16  C   UNL     1     -32.256  15.614  -0.052  0.00  0.00    +0.303 C 
ATOM     17  H   UNL     1     -34.215  15.231  -0.518  0.00  0.00    +0.154 HD
ATOM     18  H   UNL     1     -32.753  13.772  -0.825  0.00  0.00    +0.151 HD
BRANCH  15  19
ATOM     19  C   UNL     1     -30.678  13.729  -0.500  0.00  0.00    +0.091 C 
ATOM     20  C   UNL     1     -30.539  12.667   0.572  0.00  0.00    +0.023 C 
ENDBRANCH  15  19
ENDBRANCH  10  14
BRANCH   8  23
ATOM     21  N   UNL     1     -36.137  23.671   4.483  0.00  0.00    -0.195 NA
ATOM     22  N   UNL     1     -34.762  24.647   2.762  0.00  0.00    -0.217 NA
ATOM     23  C   UNL     1     -35.509  22.367   2.560  0.00  0.00    +0.025 C 
ATOM     24  C   UNL     1     -36.154  22.527   3.769  0.00  0.00    +0.107 C 
ATOM     25  C   UNL     1     -34.822  23.472   2.101  0.00  0.00    +0.164 C 
ATOM     26  C   UNL     1     -35.433  24.676   3.929  0.00  0.00    +0.031 C 
BRANCH  26  27
ATOM     27  C   UNL     1     -35.389  25.957   4.691  0.00  0.00    +0.160 C 
ATOM     28  C   UNL     1     -34.448  25.875   5.917  0.00  0.00    +0.045 C 
ATOM     29  C   UNL     1     -34.967  27.151   3.802  0.00  0.00    +0.045 C 
BRANCH  27  30
ATOM     30  O   UNL     1     -36.688  26.308   5.222  0.00  0.00    -0.374 OA
ATOM     31  H   UNL     1     -36.692  26.171   6.182  0.00  0.00    +0.212 HD
ENDBRANCH  27  30
ENDBRANCH  26  27
ENDBRANCH   8  23
BRANCH   4  33
ATOM     32  O   UNL     1     -38.361  17.933  -0.376  0.00  0.00    -0.352 OA
ATOM     33  C   UNL     1     -37.975  19.319  -0.489  0.00  0.00    +0.141 C 
ATOM     34  C   UNL     1     -37.795  19.598  -1.976  0.00  0.00    +0.037 C 
ATOM     35  C   UNL     1     -38.782  18.638  -2.594  0.00  0.00    +0.035 C 
ATOM     36  C   UNL     1     -38.650  17.433  -1.690  0.00  0.00    +0.143 C 
ENDBRANCH   4  33
TORSDOF 6
ENDMDL
MODEL 7
REMARK VINA RESULT:      -6.6      3.411      5.671
REMARK  Name = 57524959
REMARK  6 active torsions:
REMARK  status: ('A' for Active; 'I' for Inactive)
REMARK    1  A    between atoms: N_5  and  C_13
REMARK    2  A    between atoms: N_6  and  C_35
REMARK    3  A    between atoms: C_7  and  C_31
REMARK    4  A    between atoms: C_11  and  C_21
REMARK    5  A    between atoms: C_24  and  C_25
REMARK    6  A    between atoms: C_25  and  O_28
REMARK                            x       y       z     vdW  Elec       q    Type
REMARK                         _______ _______ _______ _____ _____    ______ ____
ROOT
ATOM      1  F   UNL     1     -38.015  22.001   0.963  0.00  0.00    -0.204 F 
ATOM      2  N   UNL     1     -34.211  18.130   0.686  0.00  0.00    -0.302 N 
ATOM      3  N   UNL     1     -36.071  17.764  -0.474  0.00  0.00    -0.302 N 
ATOM      4  C   UNL     1     -37.197  19.920   0.187  0.00  0.00    +0.046 C 
ATOM      5  C   UNL     1     -36.159  18.974   0.176  0.00  0.00    +0.061 C 
ATOM      6  C   UNL     1     -37.030  21.087   0.942  0.00  0.00    +0.139 C 
ATOM      7  C   UNL     1     -35.003  19.226   0.909  0.00  0.00    +0.060 C 
ATOM      8  C   UNL     1     -35.858  21.312   1.669  0.00  0.00    +0.028 C 
ATOM      9  C   UNL     1     -34.814  20.382   1.669  0.00  0.00    +0.018 C 
ATOM     10  C   UNL     1     -34.892  17.285  -0.146  0.00  0.00    +0.228 C 
ATOM     11  H   UNL     1     -33.312  17.978   1.058  0.00  0.00    +0.150 HD
ATOM     12  H   UNL     1     -36.746  17.347  -1.057  0.00  0.00    +0.150 HD
ENDROOT
BRANCH  10  14
ATOM     13  O   UNL     1     -36.174  14.648  -0.784  0.00  0.00    -0.253 OA
ATOM     14  N   UNL     1     -34.331  16.098  -0.540  0.00  0.00    -0.259 N 
ATOM     15  N   UNL     1     -34.035  13.878  -1.205  0.00  0.00    -0.289 N 
ATOM     16  C   UNL     1     -34.964  14.856  -0.837  0.00  0.00    +0.303 C 
ATOM     17  H   UNL     1     -33.351  16.104  -0.629  0.00  0.00    +0.154 HD
ATOM     18  H   UNL     1     -33.081  14.121  -1.224  0.00  0.00    +0.151 HD
BRANCH  15  19
ATOM     19  C   UNL     1     -34.409  12.529  -1.557  0.00  0.00    +0.091 C 
ATOM     20  C   UNL     1     -34.562  12.369  -3.056  0.00  0.00    +0.023 C 
ENDBRANCH  15  19
ENDBRANCH  10  14
BRANCH   8  23
ATOM     21  N   UNL     1     -36.150  23.789   4.445  0.00  0.00    -0.195 NA
ATOM     22  N   UNL     1     -34.866  24.771   2.658  0.00  0.00    -0.217 NA
ATOM     23  C   UNL     1     -35.715  22.529   2.441  0.00  0.00    +0.025 C 
ATOM     24  C   UNL     1     -36.264  22.671   3.699  0.00  0.00    +0.107 C 
ATOM     25  C   UNL     1     -35.020  23.623   1.967  0.00  0.00    +0.164 C 
ATOM     26  C   UNL     1     -35.449  24.786   3.872  0.00  0.00    +0.031 C 
BRANCH  26  27
ATOM     27  C   UNL     1     -35.300  26.038   4.668  0.00  0.00    +0.160 C 
ATOM     28  C   UNL     1     -34.368  25.847   5.889  0.00  0.00    +0.045 C 
ATOM     29  C   UNL     1     -34.782  27.218   3.810  0.00  0.00    +0.045 C 
BRANCH  27  30
ATOM     30  O   UNL     1     -36.565  26.480   5.212  0.00  0.00    -0.374 OA
ATOM     31  H   UNL     1     -37.115  25.708   5.418  0.00  0.00    +0.212 HD
ENDBRANCH  27  30
ENDBRANCH  26  27
ENDBRANCH   8  23
BRANCH   4  33
ATOM     32  O   UNL     1     -38.878  18.333  -0.585  0.00  0.00    -0.352 OA
ATOM     33  C   UNL     1     -38.479  19.719  -0.581  0.00  0.00    +0.141 C 
ATOM     34  C   UNL     1     -38.380  20.145  -2.041  0.00  0.00    +0.037 C 
ATOM     35  C   UNL     1     -39.414  19.261  -2.693  0.00  0.00    +0.035 C 
ATOM     36  C   UNL     1     -39.249  17.970  -1.923  0.00  0.00    +0.143 C 
ENDBRANCH   4  33
TORSDOF 6
ENDMDL
MODEL 8
REMARK VINA RESULT:      -6.6      3.776      6.883
REMARK  Name = 57524959
REMARK  6 active torsions:
REMARK  status: ('A' for Active; 'I' for Inactive)
REMARK    1  A    between atoms: N_5  and  C_13
REMARK    2  A    between atoms: N_6  and  C_35
REMARK    3  A    between atoms: C_7  and  C_31
REMARK    4  A    between atoms: C_11  and  C_21
REMARK    5  A    between atoms: C_24  and  C_25
REMARK    6  A    between atoms: C_25  and  O_28
REMARK                            x       y       z     vdW  Elec       q    Type
REMARK                         _______ _______ _______ _____ _____    ______ ____
ROOT
ATOM      1  F   UNL     1     -33.375  21.217   1.121  0.00  0.00    -0.204 F 
ATOM      2  N   UNL     1     -37.461  17.714   0.369  0.00  0.00    -0.302 N 
ATOM      3  N   UNL     1     -35.457  17.050  -0.325  0.00  0.00    -0.302 N 
ATOM      4  C   UNL     1     -34.250  19.150   0.372  0.00  0.00    +0.046 C 
ATOM      5  C   UNL     1     -35.365  18.310   0.219  0.00  0.00    +0.061 C 
ATOM      6  C   UNL     1     -34.433  20.404   0.968  0.00  0.00    +0.139 C 
ATOM      7  C   UNL     1     -36.610  18.749   0.662  0.00  0.00    +0.060 C 
ATOM      8  C   UNL     1     -35.695  20.816   1.402  0.00  0.00    +0.028 C 
ATOM      9  C   UNL     1     -36.816  19.994   1.258  0.00  0.00    +0.018 C 
ATOM     10  C   UNL     1     -36.725  16.723  -0.219  0.00  0.00    +0.228 C 
ATOM     11  H   UNL     1     -38.428  17.690   0.550  0.00  0.00    +0.150 HD
ATOM     12  H   UNL     1     -34.729  16.510  -0.710  0.00  0.00    +0.150 HD
ENDROOT
BRANCH  10  14
ATOM     13  O   UNL     1     -39.627  16.073  -0.622  0.00  0.00    -0.253 OA
ATOM     14  N   UNL     1     -37.326  15.558  -0.620  0.00  0.00    -0.259 N 
ATOM     15  N   UNL     1     -38.917  13.957  -1.224  0.00  0.00    -0.289 N 
ATOM     16  C   UNL     1     -38.710  15.275  -0.804  0.00  0.00    +0.303 C 
ATOM     17  H   UNL     1     -36.714  14.811  -0.807  0.00  0.00    +0.154 HD
ATOM     18  H   UNL     1     -38.132  13.376  -1.348  0.00  0.00    +0.151 HD
BRANCH  15  19
ATOM     19  C   UNL     1     -40.227  13.409  -1.484  0.00  0.00    +0.091 C 
ATOM     20  C   UNL     1     -40.813  12.760  -0.247  0.00  0.00    +0.023 C 
ENDBRANCH  15  19
ENDBRANCH  10  14
BRANCH   8  23
ATOM     21  N   UNL     1     -36.070  24.508   1.805  0.00  0.00    -0.195 NA
ATOM     22  N   UNL     1     -36.091  23.481   3.985  0.00  0.00    -0.217 NA
ATOM     23  C   UNL     1     -35.853  22.120   2.014  0.00  0.00    +0.025 C 
ATOM     24  C   UNL     1     -35.923  23.279   1.269  0.00  0.00    +0.107 C 
ATOM     25  C   UNL     1     -35.943  22.284   3.381  0.00  0.00    +0.164 C 
ATOM     26  C   UNL     1     -36.145  24.535   3.149  0.00  0.00    +0.031 C 
BRANCH  26  27
ATOM     27  C   UNL     1     -36.310  25.877   3.779  0.00  0.00    +0.160 C 
ATOM     28  C   UNL     1     -35.913  25.873   5.275  0.00  0.00    +0.045 C 
ATOM     29  C   UNL     1     -35.505  26.973   3.039  0.00  0.00    +0.045 C 
BRANCH  27  30
ATOM     30  O   UNL     1     -37.687  26.318   3.745  0.00  0.00    -0.374 OA
ATOM     31  H   UNL     1     -37.835  26.971   4.447  0.00  0.00    +0.212 HD
ENDBRANCH  27  30
ENDBRANCH  26  27
ENDBRANCH   8  23
BRANCH   4  33
ATOM     32  O   UNL     1     -32.929  17.854  -1.214  0.00  0.00    -0.352 OA
ATOM     33  C   UNL     1     -32.869  18.747  -0.082  0.00  0.00    +0.141 C 
ATOM     34  C   UNL     1     -32.066  18.028   0.994  0.00  0.00    +0.037 C 
ATOM     35  C   UNL     1     -31.135  17.175   0.169  0.00  0.00    +0.035 C 
ATOM     36  C   UNL     1     -32.028  16.762  -0.980  0.00  0.00    +0.143 C 
ENDBRANCH   4  33
TORSDOF 6
ENDMDL
MODEL 9
REMARK VINA RESULT:      -6.5      4.015      6.795
REMARK  Name = 57524959
REMARK  6 active torsions:
REMARK  status: ('A' for Active; 'I' for Inactive)
REMARK    1  A    between atoms: N_5  and  C_13
REMARK    2  A    between atoms: N_6  and  C_35
REMARK    3  A    between atoms: C_7  and  C_31
REMARK    4  A    between atoms: C_11  and  C_21
REMARK    5  A    between atoms: C_24  and  C_25
REMARK    6  A    between atoms: C_25  and  O_28
REMARK                            x       y       z     vdW  Elec       q    Type
REMARK                         _______ _______ _______ _____ _____    ______ ____
ROOT
ATOM      1  F   UNL     1     -37.639  20.852   0.848  0.00  0.00    -0.204 F 
ATOM      2  N   UNL     1     -32.975  18.075   1.112  0.00  0.00    -0.302 N 
ATOM      3  N   UNL     1     -34.626  17.116  -0.026  0.00  0.00    -0.302 N 
ATOM      4  C   UNL     1     -36.288  18.974   0.347  0.00  0.00    +0.046 C 
ATOM      5  C   UNL     1     -35.046  18.330   0.469  0.00  0.00    +0.061 C 
ATOM      6  C   UNL     1     -36.456  20.224   0.956  0.00  0.00    +0.139 C 
ATOM      7  C   UNL     1     -34.027  18.951   1.185  0.00  0.00    +0.060 C 
ATOM      8  C   UNL     1     -35.415  20.822   1.670  0.00  0.00    +0.028 C 
ATOM      9  C   UNL     1     -34.171  20.195   1.801  0.00  0.00    +0.018 C 
ATOM     10  C   UNL     1     -33.382  16.995   0.378  0.00  0.00    +0.228 C 
ATOM     11  H   UNL     1     -32.086  18.201   1.514  0.00  0.00    +0.150 HD
ATOM     12  H   UNL     1     -35.146  16.477  -0.565  0.00  0.00    +0.150 HD
ENDROOT
BRANCH  10  14
ATOM     13  O   UNL     1     -30.404  16.820   0.710  0.00  0.00    -0.253 OA
ATOM     14  N   UNL     1     -32.522  15.954   0.142  0.00  0.00    -0.259 N 
ATOM     15  N   UNL     1     -30.597  14.644  -0.044  0.00  0.00    -0.289 N 
ATOM     16  C   UNL     1     -31.108  15.896   0.308  0.00  0.00    +0.303 C 
ATOM     17  H   UNL     1     -32.942  15.128  -0.190  0.00  0.00    +0.154 HD
ATOM     18  H   UNL     1     -31.224  13.952  -0.358  0.00  0.00    +0.151 HD
BRANCH  15  19
ATOM     19  C   UNL     1     -29.192  14.316   0.030  0.00  0.00    +0.091 C 
ATOM     20  C   UNL     1     -28.863  13.092  -0.800  0.00  0.00    +0.023 C 
ENDBRANCH  15  19
ENDBRANCH  10  14
BRANCH   8  23
ATOM     21  N   UNL     1     -36.596  23.461   4.029  0.00  0.00    -0.195 NA
ATOM     22  N   UNL     1     -35.228  24.490   2.333  0.00  0.00    -0.217 NA
ATOM     23  C   UNL     1     -35.619  22.115   2.290  0.00  0.00    +0.025 C 
ATOM     24  C   UNL     1     -36.385  22.273   3.426  0.00  0.00    +0.107 C 
ATOM     25  C   UNL     1     -35.059  23.270   1.782  0.00  0.00    +0.164 C 
ATOM     26  C   UNL     1     -35.997  24.512   3.438  0.00  0.00    +0.031 C 
BRANCH  26  27
ATOM     27  C   UNL     1     -36.206  25.844   4.077  0.00  0.00    +0.160 C 
ATOM     28  C   UNL     1     -35.918  25.813   5.598  0.00  0.00    +0.045 C 
ATOM     29  C   UNL     1     -35.348  26.950   3.417  0.00  0.00    +0.045 C 
BRANCH  27  30
ATOM     30  O   UNL     1     -37.576  26.289   3.950  0.00  0.00    -0.374 OA
ATOM     31  H   UNL     1     -38.102  25.597   3.518  0.00  0.00    +0.212 HD
ENDBRANCH  27  30
ENDBRANCH  26  27
ENDBRANCH   8  23
BRANCH   4  33
ATOM     32  O   UNL     1     -37.631  16.981  -0.059  0.00  0.00    -0.352 OA
ATOM     33  C   UNL     1     -37.441  18.367  -0.413  0.00  0.00    +0.141 C 
ATOM     34  C   UNL     1     -37.253  18.405  -1.924  0.00  0.00    +0.037 C 
ATOM     35  C   UNL     1     -38.074  17.220  -2.369  0.00  0.00    +0.035 C 
ATOM     36  C   UNL     1     -37.805  16.223  -1.264  0.00  0.00    +0.143 C 
ENDBRANCH   4  33
TORSDOF 6
ENDMDL
