MODEL 1
REMARK VINA RESULT:      -5.7      0.000      0.000
REMARK  Name = 59053796
REMARK  9 active torsions:
REMARK  status: ('A' for Active; 'I' for Inactive)
REMARK    1  A    between atoms: C_4  and  C_16
REMARK    2  A    between atoms: C_7  and  O_12
REMARK    3  A    between atoms: C_8  and  O_14
REMARK    4  A    between atoms: C_16  and  C_17
REMARK    5  A    between atoms: C_18  and  C_20
REMARK    6  A    between atoms: C_20  and  O_21
REMARK    7  A    between atoms: C_20  and  C_23
REMARK    8  A    between atoms: C_23  and  C_25
REMARK    9  A    between atoms: C_25  and  O_26
REMARK                            x       y       z     vdW  Elec       q    Type
REMARK                         _______ _______ _______ _____ _____    ______ ____
ROOT
ATOM      1  O   UNL     1     -29.932  20.055  -1.267  0.00  0.00    -0.440 OA
ATOM      2  O   UNL     1     -30.194  22.192  -2.107  0.00  0.00    -0.245 OA
ATOM      3  C   UNL     1     -31.839  19.947  -0.020  0.00  0.00    +0.029 A 
ATOM      4  C   UNL     1     -33.844  21.822   0.358  0.00  0.00    +0.050 A 
ATOM      5  C   UNL     1     -31.785  21.182  -0.633  0.00  0.00    +0.109 A 
ATOM      6  C   UNL     1     -32.903  19.618   0.801  0.00  0.00    +0.012 A 
ATOM      7  C   UNL     1     -32.766  22.143  -0.468  0.00  0.00    +0.144 A 
ATOM      8  C   UNL     1     -33.912  20.568   0.989  0.00  0.00    +0.134 A 
ATOM      9  C   UNL     1     -30.655  19.154  -0.390  0.00  0.00    +0.235 C 
ATOM     10  C   UNL     1     -30.570  21.256  -1.429  0.00  0.00    +0.344 C 
ATOM     11  C   UNL     1     -32.965  18.285   1.465  0.00  0.00    +0.034 C 
ENDROOT
BRANCH   7  12
ATOM     12  O   UNL     1     -32.686  23.349  -1.084  0.00  0.00    -0.471 OA
ATOM     13  C   UNL     1     -32.066  24.413  -0.360  0.00  0.00    +0.252 C 
ENDBRANCH   7  12
BRANCH   8  14
ATOM     14  O   UNL     1     -34.975  20.273   1.794  0.00  0.00    -0.472 OA
ATOM     15  C   UNL     1     -36.133  19.736   1.162  0.00  0.00    +0.252 C 
ENDBRANCH   8  14
BRANCH   4  16
ATOM     16  C   UNL     1     -34.945  22.829   0.576  0.00  0.00    +0.058 C 
BRANCH  16  17
ATOM     17  C   UNL     1     -34.911  23.424   1.956  0.00  0.00    -0.027 C 
ATOM     18  C   UNL     1     -35.919  23.522   2.846  0.00  0.00    -0.021 C 
ATOM     19  C   UNL     1     -37.321  23.029   2.595  0.00  0.00    +0.028 C 
BRANCH  18  20
ATOM     20  C   UNL     1     -35.662  24.159   4.203  0.00  0.00    +0.140 C 
BRANCH  20  21
ATOM     21  O   UNL     1     -36.916  24.335   4.864  0.00  0.00    -0.380 OA
ATOM     22  H   UNL     1     -37.400  25.067   4.450  0.00  0.00    +0.211 HD
ENDBRANCH  20  21
BRANCH  20  23
ATOM     23  C   UNL     1     -34.734  23.303   5.077  0.00  0.00    +0.143 C 
BRANCH  23  25
ATOM     24  O   UNL     1     -36.084  22.072   6.692  0.00  0.00    -0.250 OA
ATOM     25  C   UNL     1     -35.438  22.092   5.654  0.00  0.00    +0.317 C 
BRANCH  25  26
ATOM     26  O   UNL     1     -35.258  20.996   4.872  0.00  0.00    -0.480 OA
ATOM     27  H   UNL     1     -34.956  21.093   3.990  0.00  0.00    +0.295 HD
ENDBRANCH  25  26
ENDBRANCH  23  25
ENDBRANCH  20  23
ENDBRANCH  18  20
ENDBRANCH  16  17
ENDBRANCH   4  16
TORSDOF 9
ENDMDL
MODEL 2
REMARK VINA RESULT:      -5.7      1.152      3.111
REMARK  Name = 59053796
REMARK  9 active torsions:
REMARK  status: ('A' for Active; 'I' for Inactive)
REMARK    1  A    between atoms: C_4  and  C_16
REMARK    2  A    between atoms: C_7  and  O_12
REMARK    3  A    between atoms: C_8  and  O_14
REMARK    4  A    between atoms: C_16  and  C_17
REMARK    5  A    between atoms: C_18  and  C_20
REMARK    6  A    between atoms: C_20  and  O_21
REMARK    7  A    between atoms: C_20  and  C_23
REMARK    8  A    between atoms: C_23  and  C_25
REMARK    9  A    between atoms: C_25  and  O_26
REMARK                            x       y       z     vdW  Elec       q    Type
REMARK                         _______ _______ _______ _____ _____    ______ ____
ROOT
ATOM      1  O   UNL     1     -30.535  18.292   0.308  0.00  0.00    -0.440 OA
ATOM      2  O   UNL     1     -32.434  17.658   1.464  0.00  0.00    -0.245 OA
ATOM      3  C   UNL     1     -31.190  20.394  -0.288  0.00  0.00    +0.029 A 
ATOM      4  C   UNL     1     -33.548  21.753   0.228  0.00  0.00    +0.050 A 
ATOM      5  C   UNL     1     -32.207  19.807   0.436  0.00  0.00    +0.109 A 
ATOM      6  C   UNL     1     -31.328  21.682  -0.774  0.00  0.00    +0.012 A 
ATOM      7  C   UNL     1     -33.397  20.453   0.713  0.00  0.00    +0.144 A 
ATOM      8  C   UNL     1     -32.521  22.363  -0.511  0.00  0.00    +0.134 A 
ATOM      9  C   UNL     1     -30.060  19.457  -0.412  0.00  0.00    +0.235 C 
ATOM     10  C   UNL     1     -31.795  18.465   0.819  0.00  0.00    +0.344 C 
ATOM     11  C   UNL     1     -30.232  22.320  -1.556  0.00  0.00    +0.034 C 
ENDROOT
BRANCH   7  12
ATOM     12  O   UNL     1     -34.381  19.850   1.429  0.00  0.00    -0.471 OA
ATOM     13  C   UNL     1     -35.449  19.251   0.694  0.00  0.00    +0.252 C 
ENDBRANCH   7  12
BRANCH   8  14
ATOM     14  O   UNL     1     -32.688  23.635  -0.978  0.00  0.00    -0.472 OA
ATOM     15  C   UNL     1     -33.003  23.779  -2.360  0.00  0.00    +0.252 C 
ENDBRANCH   8  14
BRANCH   4  16
ATOM     16  C   UNL     1     -34.826  22.508   0.499  0.00  0.00    +0.058 C 
BRANCH  16  17
ATOM     17  C   UNL     1     -34.829  23.156   1.855  0.00  0.00    -0.027 C 
ATOM     18  C   UNL     1     -35.811  23.150   2.779  0.00  0.00    -0.021 C 
ATOM     19  C   UNL     1     -37.139  22.459   2.599  0.00  0.00    +0.028 C 
BRANCH  18  20
ATOM     20  C   UNL     1     -35.601  23.870   4.102  0.00  0.00    +0.140 C 
BRANCH  20  21
ATOM     21  O   UNL     1     -36.874  24.051   4.725  0.00  0.00    -0.380 OA
ATOM     22  H   UNL     1     -36.772  23.999   5.689  0.00  0.00    +0.211 HD
ENDBRANCH  20  21
BRANCH  20  23
ATOM     23  C   UNL     1     -34.673  23.089   5.043  0.00  0.00    +0.143 C 
BRANCH  23  25
ATOM     24  O   UNL     1     -36.162  22.110   6.709  0.00  0.00    -0.250 OA
ATOM     25  C   UNL     1     -35.392  21.970   5.768  0.00  0.00    +0.317 C 
BRANCH  25  26
ATOM     26  O   UNL     1     -35.071  20.757   5.248  0.00  0.00    -0.480 OA
ATOM     27  H   UNL     1     -35.712  20.074   5.217  0.00  0.00    +0.295 HD
ENDBRANCH  25  26
ENDBRANCH  23  25
ENDBRANCH  20  23
ENDBRANCH  18  20
ENDBRANCH  16  17
ENDBRANCH   4  16
TORSDOF 9
ENDMDL
MODEL 3
REMARK VINA RESULT:      -5.4      4.127      6.752
REMARK  Name = 59053796
REMARK  9 active torsions:
REMARK  status: ('A' for Active; 'I' for Inactive)
REMARK    1  A    between atoms: C_4  and  C_16
REMARK    2  A    between atoms: C_7  and  O_12
REMARK    3  A    between atoms: C_8  and  O_14
REMARK    4  A    between atoms: C_16  and  C_17
REMARK    5  A    between atoms: C_18  and  C_20
REMARK    6  A    between atoms: C_20  and  O_21
REMARK    7  A    between atoms: C_20  and  C_23
REMARK    8  A    between atoms: C_23  and  C_25
REMARK    9  A    between atoms: C_25  and  O_26
REMARK                            x       y       z     vdW  Elec       q    Type
REMARK                         _______ _______ _______ _____ _____    ______ ____
ROOT
ATOM      1  O   UNL     1     -39.397  21.373   0.779  0.00  0.00    -0.440 OA
ATOM      2  O   UNL     1     -40.635  23.271   1.238  0.00  0.00    -0.245 OA
ATOM      3  C   UNL     1     -37.590  21.824   2.097  0.00  0.00    +0.029 A 
ATOM      4  C   UNL     1     -37.062  23.992   3.738  0.00  0.00    +0.050 A 
ATOM      5  C   UNL     1     -38.491  22.861   2.218  0.00  0.00    +0.109 A 
ATOM      6  C   UNL     1     -36.397  21.844   2.797  0.00  0.00    +0.012 A 
ATOM      7  C   UNL     1     -38.262  23.959   3.026  0.00  0.00    +0.144 A 
ATOM      8  C   UNL     1     -36.135  22.942   3.624  0.00  0.00    +0.134 A 
ATOM      9  C   UNL     1     -38.119  20.810   1.167  0.00  0.00    +0.235 C 
ATOM     10  C   UNL     1     -39.645  22.580   1.379  0.00  0.00    +0.344 C 
ATOM     11  C   UNL     1     -35.422  20.725   2.669  0.00  0.00    +0.034 C 
ENDROOT
BRANCH   7  12
ATOM     12  O   UNL     1     -39.167  24.966   3.127  0.00  0.00    -0.471 OA
ATOM     13  C   UNL     1     -39.039  26.053   2.208  0.00  0.00    +0.252 C 
ENDBRANCH   7  12
BRANCH   8  14
ATOM     14  O   UNL     1     -34.966  22.992   4.328  0.00  0.00    -0.472 OA
ATOM     15  C   UNL     1     -34.998  22.501   5.666  0.00  0.00    +0.252 C 
ENDBRANCH   8  14
BRANCH   4  16
ATOM     16  C   UNL     1     -36.757  25.164   4.637  0.00  0.00    +0.058 C 
BRANCH  16  17
ATOM     17  C   UNL     1     -35.787  26.127   4.011  0.00  0.00    -0.027 C 
ATOM     18  C   UNL     1     -34.619  26.578   4.511  0.00  0.00    -0.021 C 
ATOM     19  C   UNL     1     -34.060  26.171   5.851  0.00  0.00    +0.028 C 
BRANCH  18  20
ATOM     20  C   UNL     1     -33.781  27.553   3.699  0.00  0.00    +0.140 C 
BRANCH  20  21
ATOM     21  O   UNL     1     -34.511  28.774   3.568  0.00  0.00    -0.380 OA
ATOM     22  H   UNL     1     -34.267  29.209   2.735  0.00  0.00    +0.211 HD
ENDBRANCH  20  21
BRANCH  20  23
ATOM     23  C   UNL     1     -32.423  27.833   4.355  0.00  0.00    +0.143 C 
BRANCH  23  25
ATOM     24  O   UNL     1     -32.437  29.923   5.611  0.00  0.00    -0.250 OA
ATOM     25  C   UNL     1     -32.183  29.311   4.583  0.00  0.00    +0.317 C 
BRANCH  25  26
ATOM     26  O   UNL     1     -31.647  29.901   3.483  0.00  0.00    -0.480 OA
ATOM     27  H   UNL     1     -30.938  29.490   3.028  0.00  0.00    +0.295 HD
ENDBRANCH  25  26
ENDBRANCH  23  25
ENDBRANCH  20  23
ENDBRANCH  18  20
ENDBRANCH  16  17
ENDBRANCH   4  16
TORSDOF 9
ENDMDL
MODEL 4
REMARK VINA RESULT:      -5.4      3.982      6.452
REMARK  Name = 59053796
REMARK  9 active torsions:
REMARK  status: ('A' for Active; 'I' for Inactive)
REMARK    1  A    between atoms: C_4  and  C_16
REMARK    2  A    between atoms: C_7  and  O_12
REMARK    3  A    between atoms: C_8  and  O_14
REMARK    4  A    between atoms: C_16  and  C_17
REMARK    5  A    between atoms: C_18  and  C_20
REMARK    6  A    between atoms: C_20  and  O_21
REMARK    7  A    between atoms: C_20  and  C_23
REMARK    8  A    between atoms: C_23  and  C_25
REMARK    9  A    between atoms: C_25  and  O_26
REMARK                            x       y       z     vdW  Elec       q    Type
REMARK                         _______ _______ _______ _____ _____    ______ ____
ROOT
ATOM      1  O   UNL     1     -36.432  19.955   1.630  0.00  0.00    -0.440 OA
ATOM      2  O   UNL     1     -34.817  20.250   3.257  0.00  0.00    -0.245 OA
ATOM      3  C   UNL     1     -37.510  21.952   1.860  0.00  0.00    +0.029 A 
ATOM      4  C   UNL     1     -37.017  24.071   3.574  0.00  0.00    +0.050 A 
ATOM      5  C   UNL     1     -36.472  21.907   2.766  0.00  0.00    +0.109 A 
ATOM      6  C   UNL     1     -38.331  23.063   1.787  0.00  0.00    +0.012 A 
ATOM      7  C   UNL     1     -36.194  22.944   3.638  0.00  0.00    +0.144 A 
ATOM      8  C   UNL     1     -38.078  24.130   2.656  0.00  0.00    +0.134 A 
ATOM      9  C   UNL     1     -37.545  20.703   1.079  0.00  0.00    +0.235 C 
ATOM     10  C   UNL     1     -35.780  20.635   2.625  0.00  0.00    +0.344 C 
ATOM     11  C   UNL     1     -39.454  23.115   0.809  0.00  0.00    +0.034 C 
ENDROOT
BRANCH   7  12
ATOM     12  O   UNL     1     -35.165  22.873   4.520  0.00  0.00    -0.471 OA
ATOM     13  C   UNL     1     -35.465  22.405   5.836  0.00  0.00    +0.252 C 
ENDBRANCH   7  12
BRANCH   8  14
ATOM     14  O   UNL     1     -38.871  25.240   2.609  0.00  0.00    -0.472 OA
ATOM     15  C   UNL     1     -40.073  25.206   3.375  0.00  0.00    +0.252 C 
ENDBRANCH   8  14
BRANCH   4  16
ATOM     16  C   UNL     1     -36.763  25.234   4.500  0.00  0.00    +0.058 C 
BRANCH  16  17
ATOM     17  C   UNL     1     -35.746  26.193   3.946  0.00  0.00    -0.027 C 
ATOM     18  C   UNL     1     -34.576  26.576   4.495  0.00  0.00    -0.021 C 
ATOM     19  C   UNL     1     -34.062  26.082   5.824  0.00  0.00    +0.028 C 
BRANCH  18  20
ATOM     20  C   UNL     1     -33.686  27.561   3.754  0.00  0.00    +0.140 C 
BRANCH  20  21
ATOM     21  O   UNL     1     -34.432  28.757   3.522  0.00  0.00    -0.380 OA
ATOM     22  H   UNL     1     -34.598  29.203   4.368  0.00  0.00    +0.211 HD
ENDBRANCH  20  21
BRANCH  20  23
ATOM     23  C   UNL     1     -32.411  27.894   4.541  0.00  0.00    +0.143 C 
BRANCH  23  25
ATOM     24  O   UNL     1     -32.563  30.074   5.625  0.00  0.00    -0.250 OA
ATOM     25  C   UNL     1     -32.192  29.387   4.684  0.00  0.00    +0.317 C 
BRANCH  25  26
ATOM     26  O   UNL     1     -31.525  29.894   3.614  0.00  0.00    -0.480 OA
ATOM     27  H   UNL     1     -31.381  29.362   2.855  0.00  0.00    +0.295 HD
ENDBRANCH  25  26
ENDBRANCH  23  25
ENDBRANCH  20  23
ENDBRANCH  18  20
ENDBRANCH  16  17
ENDBRANCH   4  16
TORSDOF 9
ENDMDL
MODEL 5
REMARK VINA RESULT:      -5.4      2.195      6.144
REMARK  Name = 59053796
REMARK  9 active torsions:
REMARK  status: ('A' for Active; 'I' for Inactive)
REMARK    1  A    between atoms: C_4  and  C_16
REMARK    2  A    between atoms: C_7  and  O_12
REMARK    3  A    between atoms: C_8  and  O_14
REMARK    4  A    between atoms: C_16  and  C_17
REMARK    5  A    between atoms: C_18  and  C_20
REMARK    6  A    between atoms: C_20  and  O_21
REMARK    7  A    between atoms: C_20  and  C_23
REMARK    8  A    between atoms: C_23  and  C_25
REMARK    9  A    between atoms: C_25  and  O_26
REMARK                            x       y       z     vdW  Elec       q    Type
REMARK                         _______ _______ _______ _____ _____    ______ ____
ROOT
ATOM      1  O   UNL     1     -33.472  27.073   2.243  0.00  0.00    -0.440 OA
ATOM      2  O   UNL     1     -33.524  25.868   0.272  0.00  0.00    -0.245 OA
ATOM      3  C   UNL     1     -34.492  25.547   3.597  0.00  0.00    +0.029 A 
ATOM      4  C   UNL     1     -35.484  23.024   3.029  0.00  0.00    +0.050 A 
ATOM      5  C   UNL     1     -34.414  25.021   2.325  0.00  0.00    +0.109 A 
ATOM      6  C   UNL     1     -35.071  24.821   4.622  0.00  0.00    +0.012 A 
ATOM      7  C   UNL     1     -34.897  23.766   2.003  0.00  0.00    +0.144 A 
ATOM      8  C   UNL     1     -35.571  23.547   4.330  0.00  0.00    +0.134 A 
ATOM      9  C   UNL     1     -33.894  26.893   3.618  0.00  0.00    +0.235 C 
ATOM     10  C   UNL     1     -33.764  25.990   1.456  0.00  0.00    +0.344 C 
ATOM     11  C   UNL     1     -35.158  25.386   5.999  0.00  0.00    +0.034 C 
ENDROOT
BRANCH   7  12
ATOM     12  O   UNL     1     -34.806  23.273   0.742  0.00  0.00    -0.471 OA
ATOM     13  C   UNL     1     -35.910  23.510  -0.133  0.00  0.00    +0.252 C 
ENDBRANCH   7  12
BRANCH   8  14
ATOM     14  O   UNL     1     -36.149  22.806   5.320  0.00  0.00    -0.472 OA
ATOM     15  C   UNL     1     -35.273  22.057   6.160  0.00  0.00    +0.252 C 
ENDBRANCH   8  14
BRANCH   4  16
ATOM     16  C   UNL     1     -36.029  21.648   2.739  0.00  0.00    +0.058 C 
BRANCH  16  17
ATOM     17  C   UNL     1     -34.939  20.637   2.514  0.00  0.00    -0.027 C 
ATOM     18  C   UNL     1     -34.764  19.822   1.454  0.00  0.00    -0.021 C 
ATOM     19  C   UNL     1     -35.678  19.784   0.256  0.00  0.00    +0.028 C 
BRANCH  18  20
ATOM     20  C   UNL     1     -33.577  18.872   1.426  0.00  0.00    +0.140 C 
BRANCH  20  21
ATOM     21  O   UNL     1     -33.993  17.648   0.820  0.00  0.00    -0.380 OA
ATOM     22  H   UNL     1     -33.753  17.654  -0.120  0.00  0.00    +0.211 HD
ENDBRANCH  20  21
BRANCH  20  23
ATOM     23  C   UNL     1     -32.389  19.454   0.648  0.00  0.00    +0.143 C 
BRANCH  23  25
ATOM     24  O   UNL     1     -30.216  18.617  -0.078  0.00  0.00    -0.250 OA
ATOM     25  C   UNL     1     -31.177  18.546   0.675  0.00  0.00    +0.317 C 
BRANCH  25  26
ATOM     26  O   UNL     1     -31.284  17.608   1.653  0.00  0.00    -0.480 OA
ATOM     27  H   UNL     1     -32.038  17.053   1.692  0.00  0.00    +0.295 HD
ENDBRANCH  25  26
ENDBRANCH  23  25
ENDBRANCH  20  23
ENDBRANCH  18  20
ENDBRANCH  16  17
ENDBRANCH   4  16
TORSDOF 9
ENDMDL
MODEL 6
REMARK VINA RESULT:      -5.4      2.193      3.434
REMARK  Name = 59053796
REMARK  9 active torsions:
REMARK  status: ('A' for Active; 'I' for Inactive)
REMARK    1  A    between atoms: C_4  and  C_16
REMARK    2  A    between atoms: C_7  and  O_12
REMARK    3  A    between atoms: C_8  and  O_14
REMARK    4  A    between atoms: C_16  and  C_17
REMARK    5  A    between atoms: C_18  and  C_20
REMARK    6  A    between atoms: C_20  and  O_21
REMARK    7  A    between atoms: C_20  and  C_23
REMARK    8  A    between atoms: C_23  and  C_25
REMARK    9  A    between atoms: C_25  and  O_26
REMARK                            x       y       z     vdW  Elec       q    Type
REMARK                         _______ _______ _______ _____ _____    ______ ____
ROOT
ATOM      1  O   UNL     1     -33.997  15.798  -0.026  0.00  0.00    -0.440 OA
ATOM      2  O   UNL     1     -32.085  16.839   0.751  0.00  0.00    -0.245 OA
ATOM      3  C   UNL     1     -35.315  17.645  -0.256  0.00  0.00    +0.029 A 
ATOM      4  C   UNL     1     -34.769  20.314   0.248  0.00  0.00    +0.050 A 
ATOM      5  C   UNL     1     -34.081  18.043   0.213  0.00  0.00    +0.109 A 
ATOM      6  C   UNL     1     -36.312  18.577  -0.487  0.00  0.00    +0.012 A 
ATOM      7  C   UNL     1     -33.771  19.365   0.476  0.00  0.00    +0.144 A 
ATOM      8  C   UNL     1     -36.031  19.923  -0.231  0.00  0.00    +0.134 A 
ATOM      9  C   UNL     1     -35.333  16.183  -0.436  0.00  0.00    +0.235 C 
ATOM     10  C   UNL     1     -33.236  16.869   0.363  0.00  0.00    +0.344 C 
ATOM     11  C   UNL     1     -37.647  18.150  -0.995  0.00  0.00    +0.034 C 
ENDROOT
BRANCH   7  12
ATOM     12  O   UNL     1     -32.548  19.728   0.938  0.00  0.00    -0.471 OA
ATOM     13  C   UNL     1     -31.573  20.116  -0.032  0.00  0.00    +0.252 C 
ENDBRANCH   7  12
BRANCH   8  14
ATOM     14  O   UNL     1     -36.994  20.866  -0.448  0.00  0.00    -0.472 OA
ATOM     15  C   UNL     1     -38.051  20.939   0.506  0.00  0.00    +0.252 C 
ENDBRANCH   8  14
BRANCH   4  16
ATOM     16  C   UNL     1     -34.490  21.772   0.516  0.00  0.00    +0.058 C 
BRANCH  16  17
ATOM     17  C   UNL     1     -34.925  22.192   1.893  0.00  0.00    -0.027 C 
ATOM     18  C   UNL     1     -35.718  23.226   2.236  0.00  0.00    -0.021 C 
ATOM     19  C   UNL     1     -36.336  24.184   1.249  0.00  0.00    +0.028 C 
BRANCH  18  20
ATOM     20  C   UNL     1     -36.040  23.470   3.702  0.00  0.00    +0.140 C 
BRANCH  20  21
ATOM     21  O   UNL     1     -37.261  22.797   4.014  0.00  0.00    -0.380 OA
ATOM     22  H   UNL     1     -37.162  21.848   3.837  0.00  0.00    +0.211 HD
ENDBRANCH  20  21
BRANCH  20  23
ATOM     23  C   UNL     1     -34.925  22.968   4.630  0.00  0.00    +0.143 C 
BRANCH  23  25
ATOM     24  O   UNL     1     -36.003  22.154   6.661  0.00  0.00    -0.250 OA
ATOM     25  C   UNL     1     -35.415  21.925   5.613  0.00  0.00    +0.317 C 
BRANCH  25  26
ATOM     26  O   UNL     1     -35.111  20.669   5.193  0.00  0.00    -0.480 OA
ATOM     27  H   UNL     1     -34.249  20.474   4.880  0.00  0.00    +0.295 HD
ENDBRANCH  25  26
ENDBRANCH  23  25
ENDBRANCH  20  23
ENDBRANCH  18  20
ENDBRANCH  16  17
ENDBRANCH   4  16
TORSDOF 9
ENDMDL
MODEL 7
REMARK VINA RESULT:      -5.3      1.396      2.536
REMARK  Name = 59053796
REMARK  9 active torsions:
REMARK  status: ('A' for Active; 'I' for Inactive)
REMARK    1  A    between atoms: C_4  and  C_16
REMARK    2  A    between atoms: C_7  and  O_12
REMARK    3  A    between atoms: C_8  and  O_14
REMARK    4  A    between atoms: C_16  and  C_17
REMARK    5  A    between atoms: C_18  and  C_20
REMARK    6  A    between atoms: C_20  and  O_21
REMARK    7  A    between atoms: C_20  and  C_23
REMARK    8  A    between atoms: C_23  and  C_25
REMARK    9  A    between atoms: C_25  and  O_26
REMARK                            x       y       z     vdW  Elec       q    Type
REMARK                         _______ _______ _______ _____ _____    ______ ____
ROOT
ATOM      1  O   UNL     1     -30.516  22.757  -1.538  0.00  0.00    -0.440 OA
ATOM      2  O   UNL     1     -32.350  24.145  -1.306  0.00  0.00    -0.245 OA
ATOM      3  C   UNL     1     -31.327  20.938  -0.427  0.00  0.00    +0.029 A 
ATOM      4  C   UNL     1     -33.771  20.536   0.814  0.00  0.00    +0.050 A 
ATOM      5  C   UNL     1     -32.290  21.926  -0.412  0.00  0.00    +0.109 A 
ATOM      6  C   UNL     1     -31.565  19.718   0.181  0.00  0.00    +0.012 A 
ATOM      7  C   UNL     1     -33.520  21.763   0.197  0.00  0.00    +0.144 A 
ATOM      8  C   UNL     1     -32.800  19.520   0.806  0.00  0.00    +0.134 A 
ATOM      9  C   UNL     1     -30.135  21.414  -1.149  0.00  0.00    +0.235 C 
ATOM     10  C   UNL     1     -31.777  23.089  -1.119  0.00  0.00    +0.344 C 
ATOM     11  C   UNL     1     -30.528  18.648   0.166  0.00  0.00    +0.034 C 
ENDROOT
BRANCH   7  12
ATOM     12  O   UNL     1     -34.449  22.752   0.195  0.00  0.00    -0.471 OA
ATOM     13  C   UNL     1     -35.426  22.730  -0.847  0.00  0.00    +0.252 C 
ENDBRANCH   7  12
BRANCH   8  14
ATOM     14  O   UNL     1     -33.064  18.328   1.416  0.00  0.00    -0.472 OA
ATOM     15  C   UNL     1     -33.551  17.274   0.588  0.00  0.00    +0.252 C 
ENDBRANCH   8  14
BRANCH   4  16
ATOM     16  C   UNL     1     -35.096  20.299   1.495  0.00  0.00    +0.058 C 
BRANCH  16  17
ATOM     17  C   UNL     1     -35.087  20.740   2.932  0.00  0.00    -0.027 C 
ATOM     18  C   UNL     1     -35.790  21.740   3.501  0.00  0.00    -0.021 C 
ATOM     19  C   UNL     1     -36.753  22.628   2.756  0.00  0.00    +0.028 C 
BRANCH  18  20
ATOM     20  C   UNL     1     -35.634  22.013   4.989  0.00  0.00    +0.140 C 
BRANCH  20  21
ATOM     21  O   UNL     1     -35.464  20.765   5.662  0.00  0.00    -0.380 OA
ATOM     22  H   UNL     1     -34.976  20.152   5.088  0.00  0.00    +0.211 HD
ENDBRANCH  20  21
BRANCH  20  23
ATOM     23  C   UNL     1     -34.437  22.926   5.287  0.00  0.00    +0.143 C 
BRANCH  23  25
ATOM     24  O   UNL     1     -35.900  24.867   5.487  0.00  0.00    -0.250 OA
ATOM     25  C   UNL     1     -34.800  24.396   5.232  0.00  0.00    +0.317 C 
BRANCH  25  26
ATOM     26  O   UNL     1     -33.740  25.154   4.850  0.00  0.00    -0.480 OA
ATOM     27  H   UNL     1     -32.880  24.950   5.162  0.00  0.00    +0.295 HD
ENDBRANCH  25  26
ENDBRANCH  23  25
ENDBRANCH  20  23
ENDBRANCH  18  20
ENDBRANCH  16  17
ENDBRANCH   4  16
TORSDOF 9
ENDMDL
MODEL 8
REMARK VINA RESULT:      -5.3      5.110      7.377
REMARK  Name = 59053796
REMARK  9 active torsions:
REMARK  status: ('A' for Active; 'I' for Inactive)
REMARK    1  A    between atoms: C_4  and  C_16
REMARK    2  A    between atoms: C_7  and  O_12
REMARK    3  A    between atoms: C_8  and  O_14
REMARK    4  A    between atoms: C_16  and  C_17
REMARK    5  A    between atoms: C_18  and  C_20
REMARK    6  A    between atoms: C_20  and  O_21
REMARK    7  A    between atoms: C_20  and  C_23
REMARK    8  A    between atoms: C_23  and  C_25
REMARK    9  A    between atoms: C_25  and  O_26
REMARK                            x       y       z     vdW  Elec       q    Type
REMARK                         _______ _______ _______ _____ _____    ______ ____
ROOT
ATOM      1  O   UNL     1     -33.181  27.127   5.529  0.00  0.00    -0.440 OA
ATOM      2  O   UNL     1     -33.640  28.703   3.901  0.00  0.00    -0.245 OA
ATOM      3  C   UNL     1     -34.776  25.594   4.972  0.00  0.00    +0.029 A 
ATOM      4  C   UNL     1     -36.675  25.632   2.955  0.00  0.00    +0.050 A 
ATOM      5  C   UNL     1     -34.869  26.660   4.101  0.00  0.00    +0.109 A 
ATOM      6  C   UNL     1     -35.635  24.516   4.855  0.00  0.00    +0.012 A 
ATOM      7  C   UNL     1     -35.802  26.715   3.083  0.00  0.00    +0.144 A 
ATOM      8  C   UNL     1     -36.592  24.540   3.835  0.00  0.00    +0.134 A 
ATOM      9  C   UNL     1     -33.690  25.833   5.938  0.00  0.00    +0.235 C 
ATOM     10  C   UNL     1     -33.854  27.641   4.451  0.00  0.00    +0.344 C 
ATOM     11  C   UNL     1     -35.538  23.363   5.794  0.00  0.00    +0.034 C 
ENDROOT
BRANCH   7  12
ATOM     12  O   UNL     1     -35.870  27.776   2.240  0.00  0.00    -0.471 OA
ATOM     13  C   UNL     1     -35.134  27.688   1.018  0.00  0.00    +0.252 C 
ENDBRANCH   7  12
BRANCH   8  14
ATOM     14  O   UNL     1     -37.454  23.491   3.694  0.00  0.00    -0.472 OA
ATOM     15  C   UNL     1     -37.045  22.432   2.833  0.00  0.00    +0.252 C 
ENDBRANCH   8  14
BRANCH   4  16
ATOM     16  C   UNL     1     -37.715  25.635   1.862  0.00  0.00    +0.058 C 
BRANCH  16  17
ATOM     17  C   UNL     1     -39.047  26.138   2.344  0.00  0.00    -0.027 C 
ATOM     18  C   UNL     1     -40.230  25.492   2.348  0.00  0.00    -0.021 C 
ATOM     19  C   UNL     1     -40.427  24.084   1.846  0.00  0.00    +0.028 C 
BRANCH  18  20
ATOM     20  C   UNL     1     -41.466  26.191   2.893  0.00  0.00    +0.140 C 
BRANCH  20  21
ATOM     21  O   UNL     1     -41.061  27.061   3.951  0.00  0.00    -0.380 OA
ATOM     22  H   UNL     1     -41.033  27.975   3.626  0.00  0.00    +0.211 HD
ENDBRANCH  20  21
BRANCH  20  23
ATOM     23  C   UNL     1     -42.195  27.000   1.812  0.00  0.00    +0.143 C 
BRANCH  23  25
ATOM     24  O   UNL     1     -43.742  28.440   3.030  0.00  0.00    -0.250 OA
ATOM     25  C   UNL     1     -42.741  28.311   2.339  0.00  0.00    +0.317 C 
BRANCH  25  26
ATOM     26  O   UNL     1     -41.977  29.362   1.940  0.00  0.00    -0.480 OA
ATOM     27  H   UNL     1     -42.188  30.230   2.223  0.00  0.00    +0.295 HD
ENDBRANCH  25  26
ENDBRANCH  23  25
ENDBRANCH  20  23
ENDBRANCH  18  20
ENDBRANCH  16  17
ENDBRANCH   4  16
TORSDOF 9
ENDMDL
MODEL 9
REMARK VINA RESULT:      -5.3      4.957      7.950
REMARK  Name = 59053796
REMARK  9 active torsions:
REMARK  status: ('A' for Active; 'I' for Inactive)
REMARK    1  A    between atoms: C_4  and  C_16
REMARK    2  A    between atoms: C_7  and  O_12
REMARK    3  A    between atoms: C_8  and  O_14
REMARK    4  A    between atoms: C_16  and  C_17
REMARK    5  A    between atoms: C_18  and  C_20
REMARK    6  A    between atoms: C_20  and  O_21
REMARK    7  A    between atoms: C_20  and  C_23
REMARK    8  A    between atoms: C_23  and  C_25
REMARK    9  A    between atoms: C_25  and  O_26
REMARK                            x       y       z     vdW  Elec       q    Type
REMARK                         _______ _______ _______ _____ _____    ______ ____
ROOT
ATOM      1  O   UNL     1     -33.305  25.818   4.493  0.00  0.00    -0.440 OA
ATOM      2  O   UNL     1     -34.285  23.842   5.185  0.00  0.00    -0.245 OA
ATOM      3  C   UNL     1     -35.015  26.610   3.208  0.00  0.00    +0.029 A 
ATOM      4  C   UNL     1     -37.502  25.518   2.660  0.00  0.00    +0.050 A 
ATOM      5  C   UNL     1     -35.393  25.395   3.741  0.00  0.00    +0.109 A 
ATOM      6  C   UNL     1     -35.876  27.313   2.384  0.00  0.00    +0.012 A 
ATOM      7  C   UNL     1     -36.624  24.818   3.490  0.00  0.00    +0.144 A 
ATOM      8  C   UNL     1     -37.130  26.757   2.110  0.00  0.00    +0.134 A 
ATOM      9  C   UNL     1     -33.655  26.951   3.659  0.00  0.00    +0.235 C 
ATOM     10  C   UNL     1     -34.305  24.884   4.561  0.00  0.00    +0.344 C 
ATOM     11  C   UNL     1     -35.472  28.626   1.807  0.00  0.00    +0.034 C 
ENDROOT
BRANCH   7  12
ATOM     12  O   UNL     1     -36.970  23.621   4.029  0.00  0.00    -0.471 OA
ATOM     13  C   UNL     1     -36.679  22.452   3.261  0.00  0.00    +0.252 C 
ENDBRANCH   7  12
BRANCH   8  14
ATOM     14  O   UNL     1     -38.002  27.426   1.300  0.00  0.00    -0.472 OA
ATOM     15  C   UNL     1     -38.008  27.064  -0.078  0.00  0.00    +0.252 C 
ENDBRANCH   8  14
BRANCH   4  16
ATOM     16  C   UNL     1     -38.860  24.940   2.351  0.00  0.00    +0.058 C 
BRANCH  16  17
ATOM     17  C   UNL     1     -39.955  25.599   3.141  0.00  0.00    -0.027 C 
ATOM     18  C   UNL     1     -41.094  26.157   2.683  0.00  0.00    -0.021 C 
ATOM     19  C   UNL     1     -41.481  26.217   1.227  0.00  0.00    +0.028 C 
BRANCH  18  20
ATOM     20  C   UNL     1     -42.079  26.768   3.668  0.00  0.00    +0.140 C 
BRANCH  20  21
ATOM     21  O   UNL     1     -41.376  27.705   4.485  0.00  0.00    -0.380 OA
ATOM     22  H   UNL     1     -41.628  27.577   5.414  0.00  0.00    +0.211 HD
ENDBRANCH  20  21
BRANCH  20  23
ATOM     23  C   UNL     1     -43.242  27.475   2.958  0.00  0.00    +0.143 C 
BRANCH  23  25
ATOM     24  O   UNL     1     -43.720  29.678   3.888  0.00  0.00    -0.250 OA
ATOM     25  C   UNL     1     -43.151  28.984   3.058  0.00  0.00    +0.317 C 
BRANCH  25  26
ATOM     26  O   UNL     1     -42.349  29.496   2.087  0.00  0.00    -0.480 OA
ATOM     27  H   UNL     1     -41.451  29.236   2.035  0.00  0.00    +0.295 HD
ENDBRANCH  25  26
ENDBRANCH  23  25
ENDBRANCH  20  23
ENDBRANCH  18  20
ENDBRANCH  16  17
ENDBRANCH   4  16
TORSDOF 9
ENDMDL
