MODEL 1
REMARK VINA RESULT:      -6.3      0.000      0.000
REMARK  Name = 5488302
REMARK  2 active torsions:
REMARK  status: ('A' for Active; 'I' for Inactive)
REMARK    1  A    between atoms: C_11  and  O_16
REMARK    2  A    between atoms: O_16  and  S_17
REMARK                            x       y       z     vdW  Elec       q    Type
REMARK                         _______ _______ _______ _____ _____    ______ ____
ROOT
ATOM      1  N   UNL     1     -37.924  25.800   3.786  0.00  0.00    -0.352 N 
ATOM      2  N   UNL     1     -40.001  23.278   2.076  0.00  0.00    -0.247 NA
ATOM      3  C   UNL     1     -36.329  24.242   3.848  0.00  0.00    +0.017 A 
ATOM      4  C   UNL     1     -37.482  23.692   3.204  0.00  0.00    +0.020 A 
ATOM      5  C   UNL     1     -38.457  24.689   3.180  0.00  0.00    +0.070 A 
ATOM      6  C   UNL     1     -36.635  25.557   4.198  0.00  0.00    +0.060 A 
ATOM      7  C   UNL     1     -39.711  24.482   2.619  0.00  0.00    +0.075 C 
ATOM      8  C   UNL     1     -35.049  23.739   4.166  0.00  0.00    +0.005 C 
ATOM      9  C   UNL     1     -35.726  26.398   4.852  0.00  0.00    +0.057 C 
ATOM     10  C   UNL     1     -37.788  22.444   2.639  0.00  0.00    +0.022 C 
ATOM     11  C   UNL     1     -34.465  25.877   5.156  0.00  0.00    +0.177 C 
ATOM     12  C   UNL     1     -34.130  24.568   4.819  0.00  0.00    +0.040 C 
ATOM     13  C   UNL     1     -39.059  22.309   2.097  0.00  0.00    +0.099 C 
ATOM     14  C   UNL     1     -40.774  25.526   2.579  0.00  0.00    +0.054 C 
ATOM     15  H   UNL     1     -38.399  26.654   3.906  0.00  0.00    +0.166 HD
ENDROOT
BRANCH  11  16
ATOM     16  O   UNL     1     -33.550  26.664   5.791  0.00  0.00    -0.322 OA
BRANCH  16  17
ATOM     17  S   UNL     1     -32.585  27.645   4.893  0.00  0.00    +0.282 S 
ATOM     18  O   UNL     1     -32.209  26.736   3.591  0.00  0.00    -0.105 OA
ATOM     19  O   UNL     1     -33.362  28.781   4.434  0.00  0.00    -0.012 OA
ATOM     20  O   UNL     1     -31.360  27.859   5.640  0.00  0.00    -0.105 OA
ENDBRANCH  16  17
ENDBRANCH  11  16
TORSDOF 2
ENDMDL
MODEL 2
REMARK VINA RESULT:      -6.1      1.165      1.635
REMARK  Name = 5488302
REMARK  2 active torsions:
REMARK  status: ('A' for Active; 'I' for Inactive)
REMARK    1  A    between atoms: C_11  and  O_16
REMARK    2  A    between atoms: O_16  and  S_17
REMARK                            x       y       z     vdW  Elec       q    Type
REMARK                         _______ _______ _______ _____ _____    ______ ____
ROOT
ATOM      1  N   UNL     1     -38.660  24.954   3.048  0.00  0.00    -0.352 N 
ATOM      2  N   UNL     1     -40.478  22.445   1.047  0.00  0.00    -0.247 NA
ATOM      3  C   UNL     1     -37.139  23.362   3.406  0.00  0.00    +0.017 A 
ATOM      4  C   UNL     1     -38.178  22.825   2.583  0.00  0.00    +0.020 A 
ATOM      5  C   UNL     1     -39.110  23.843   2.377  0.00  0.00    +0.070 A 
ATOM      6  C   UNL     1     -37.467  24.690   3.679  0.00  0.00    +0.060 A 
ATOM      7  C   UNL     1     -40.255  23.653   1.613  0.00  0.00    +0.075 C 
ATOM      8  C   UNL     1     -35.945  22.837   3.946  0.00  0.00    +0.005 C 
ATOM      9  C   UNL     1     -36.662  25.523   4.465  0.00  0.00    +0.057 C 
ATOM     10  C   UNL     1     -38.415  21.573   1.993  0.00  0.00    +0.022 C 
ATOM     11  C   UNL     1     -35.484  24.980   4.988  0.00  0.00    +0.177 C 
ATOM     12  C   UNL     1     -35.130  23.657   4.734  0.00  0.00    +0.040 C 
ATOM     13  C   UNL     1     -39.578  21.456   1.244  0.00  0.00    +0.099 C 
ATOM     14  C   UNL     1     -41.268  24.719   1.376  0.00  0.00    +0.054 C 
ATOM     15  H   UNL     1     -39.127  25.820   3.073  0.00  0.00    +0.166 HD
ENDROOT
BRANCH  11  16
ATOM     16  O   UNL     1     -34.672  25.758   5.759  0.00  0.00    -0.322 OA
BRANCH  16  17
ATOM     17  S   UNL     1     -33.442  26.578   5.041  0.00  0.00    +0.282 S 
ATOM     18  O   UNL     1     -34.181  27.849   4.332  0.00  0.00    -0.105 OA
ATOM     19  O   UNL     1     -32.555  27.093   6.067  0.00  0.00    -0.012 OA
ATOM     20  O   UNL     1     -32.914  25.738   3.982  0.00  0.00    -0.105 OA
ENDBRANCH  16  17
ENDBRANCH  11  16
TORSDOF 2
ENDMDL
MODEL 3
REMARK VINA RESULT:      -6.0      4.590      6.618
REMARK  Name = 5488302
REMARK  2 active torsions:
REMARK  status: ('A' for Active; 'I' for Inactive)
REMARK    1  A    between atoms: C_11  and  O_16
REMARK    2  A    between atoms: O_16  and  S_17
REMARK                            x       y       z     vdW  Elec       q    Type
REMARK                         _______ _______ _______ _____ _____    ______ ____
ROOT
ATOM      1  N   UNL     1     -33.960  26.606   3.328  0.00  0.00    -0.352 N 
ATOM      2  N   UNL     1     -32.089  28.799   5.630  0.00  0.00    -0.247 NA
ATOM      3  C   UNL     1     -34.345  25.307   5.101  0.00  0.00    +0.017 A 
ATOM      4  C   UNL     1     -33.562  26.430   5.517  0.00  0.00    +0.020 A 
ATOM      5  C   UNL     1     -33.340  27.220   4.389  0.00  0.00    +0.070 A 
ATOM      6  C   UNL     1     -34.577  25.445   3.732  0.00  0.00    +0.060 A 
ATOM      7  C   UNL     1     -32.607  28.399   4.446  0.00  0.00    +0.075 C 
ATOM      8  C   UNL     1     -34.879  24.183   5.765  0.00  0.00    +0.005 C 
ATOM      9  C   UNL     1     -35.317  24.516   2.992  0.00  0.00    +0.057 C 
ATOM     10  C   UNL     1     -33.023  26.849   6.743  0.00  0.00    +0.022 C 
ATOM     11  C   UNL     1     -35.836  23.410   3.673  0.00  0.00    +0.177 C 
ATOM     12  C   UNL     1     -35.621  23.245   5.039  0.00  0.00    +0.040 C 
ATOM     13  C   UNL     1     -32.302  28.035   6.725  0.00  0.00    +0.099 C 
ATOM     14  C   UNL     1     -32.352  29.264   3.260  0.00  0.00    +0.054 C 
ATOM     15  H   UNL     1     -33.962  26.950   2.406  0.00  0.00    +0.166 HD
ENDROOT
BRANCH  11  16
ATOM     16  O   UNL     1     -36.562  22.482   2.988  0.00  0.00    -0.322 OA
BRANCH  16  17
ATOM     17  S   UNL     1     -35.782  21.204   2.312  0.00  0.00    +0.282 S 
ATOM     18  O   UNL     1     -36.966  20.386   1.541  0.00  0.00    -0.105 OA
ATOM     19  O   UNL     1     -34.853  21.693   1.309  0.00  0.00    -0.012 OA
ATOM     20  O   UNL     1     -35.305  20.359   3.391  0.00  0.00    -0.105 OA
ENDBRANCH  16  17
ENDBRANCH  11  16
TORSDOF 2
ENDMDL
MODEL 4
REMARK VINA RESULT:      -6.0      4.622      6.629
REMARK  Name = 5488302
REMARK  2 active torsions:
REMARK  status: ('A' for Active; 'I' for Inactive)
REMARK    1  A    between atoms: C_11  and  O_16
REMARK    2  A    between atoms: O_16  and  S_17
REMARK                            x       y       z     vdW  Elec       q    Type
REMARK                         _______ _______ _______ _____ _____    ______ ____
ROOT
ATOM      1  N   UNL     1     -34.009  26.440   3.264  0.00  0.00    -0.352 N 
ATOM      2  N   UNL     1     -32.127  28.585   5.600  0.00  0.00    -0.247 NA
ATOM      3  C   UNL     1     -34.475  25.161   5.031  0.00  0.00    +0.017 A 
ATOM      4  C   UNL     1     -33.668  26.261   5.462  0.00  0.00    +0.020 A 
ATOM      5  C   UNL     1     -33.396  27.040   4.337  0.00  0.00    +0.070 A 
ATOM      6  C   UNL     1     -34.671  25.300   3.657  0.00  0.00    +0.060 A 
ATOM      7  C   UNL     1     -32.629  28.196   4.406  0.00  0.00    +0.075 C 
ATOM      8  C   UNL     1     -35.058  24.056   5.687  0.00  0.00    +0.005 C 
ATOM      9  C   UNL     1     -35.421  24.390   2.903  0.00  0.00    +0.057 C 
ATOM     10  C   UNL     1     -33.144  26.669   6.698  0.00  0.00    +0.022 C 
ATOM     11  C   UNL     1     -35.989  23.304   3.576  0.00  0.00    +0.177 C 
ATOM     12  C   UNL     1     -35.811  23.138   4.947  0.00  0.00    +0.040 C 
ATOM     13  C   UNL     1     -32.387  27.832   6.693  0.00  0.00    +0.099 C 
ATOM     14  C   UNL     1     -32.320  29.047   3.223  0.00  0.00    +0.054 C 
ATOM     15  H   UNL     1     -33.979  26.780   2.340  0.00  0.00    +0.166 HD
ENDROOT
BRANCH  11  16
ATOM     16  O   UNL     1     -36.728  22.396   2.877  0.00  0.00    -0.322 OA
BRANCH  16  17
ATOM     17  S   UNL     1     -38.171  22.862   2.245  0.00  0.00    +0.282 S 
ATOM     18  O   UNL     1     -39.042  21.483   2.201  0.00  0.00    -0.105 OA
ATOM     19  O   UNL     1     -38.821  23.771   3.170  0.00  0.00    -0.012 OA
ATOM     20  O   UNL     1     -37.937  23.271   0.872  0.00  0.00    -0.105 OA
ENDBRANCH  16  17
ENDBRANCH  11  16
TORSDOF 2
ENDMDL
MODEL 5
REMARK VINA RESULT:      -5.9      3.091      3.737
REMARK  Name = 5488302
REMARK  2 active torsions:
REMARK  status: ('A' for Active; 'I' for Inactive)
REMARK    1  A    between atoms: C_11  and  O_16
REMARK    2  A    between atoms: O_16  and  S_17
REMARK                            x       y       z     vdW  Elec       q    Type
REMARK                         _______ _______ _______ _____ _____    ______ ____
ROOT
ATOM      1  N   UNL     1     -34.452  24.621   5.553  0.00  0.00    -0.352 N 
ATOM      2  N   UNL     1     -35.685  21.548   3.929  0.00  0.00    -0.247 NA
ATOM      3  C   UNL     1     -34.112  25.407   3.493  0.00  0.00    +0.017 A 
ATOM      4  C   UNL     1     -34.648  24.084   3.396  0.00  0.00    +0.020 A 
ATOM      5  C   UNL     1     -34.850  23.623   4.697  0.00  0.00    +0.070 A 
ATOM      6  C   UNL     1     -34.002  25.714   4.849  0.00  0.00    +0.060 A 
ATOM      7  C   UNL     1     -35.366  22.361   4.962  0.00  0.00    +0.075 C 
ATOM      8  C   UNL     1     -33.709  26.374   2.548  0.00  0.00    +0.005 C 
ATOM      9  C   UNL     1     -33.509  26.940   5.311  0.00  0.00    +0.057 C 
ATOM     10  C   UNL     1     -34.981  23.237   2.328  0.00  0.00    +0.022 C 
ATOM     11  C   UNL     1     -33.116  27.882   4.355  0.00  0.00    +0.177 C 
ATOM     12  C   UNL     1     -33.214  27.605   2.994  0.00  0.00    +0.040 C 
ATOM     13  C   UNL     1     -35.491  21.991   2.667  0.00  0.00    +0.099 C 
ATOM     14  C   UNL     1     -35.591  21.840   6.339  0.00  0.00    +0.054 C 
ATOM     15  H   UNL     1     -34.485  24.562   6.535  0.00  0.00    +0.166 HD
ENDROOT
BRANCH  11  16
ATOM     16  O   UNL     1     -32.631  29.089   4.764  0.00  0.00    -0.322 OA
BRANCH  16  17
ATOM     17  S   UNL     1     -31.309  29.124   5.740  0.00  0.00    +0.282 S 
ATOM     18  O   UNL     1     -30.556  30.513   5.328  0.00  0.00    -0.105 OA
ATOM     19  O   UNL     1     -31.742  29.244   7.120  0.00  0.00    -0.012 OA
ATOM     20  O   UNL     1     -30.443  28.029   5.346  0.00  0.00    -0.105 OA
ENDBRANCH  16  17
ENDBRANCH  11  16
TORSDOF 2
ENDMDL
MODEL 6
REMARK VINA RESULT:      -5.8      1.708      2.991
REMARK  Name = 5488302
REMARK  2 active torsions:
REMARK  status: ('A' for Active; 'I' for Inactive)
REMARK    1  A    between atoms: C_11  and  O_16
REMARK    2  A    between atoms: O_16  and  S_17
REMARK                            x       y       z     vdW  Elec       q    Type
REMARK                         _______ _______ _______ _____ _____    ______ ____
ROOT
ATOM      1  N   UNL     1     -34.933  22.815   2.920  0.00  0.00    -0.352 N 
ATOM      2  N   UNL     1     -37.761  20.959   1.449  0.00  0.00    -0.247 NA
ATOM      3  C   UNL     1     -36.461  24.218   3.741  0.00  0.00    +0.017 A 
ATOM      4  C   UNL     1     -37.131  23.194   2.999  0.00  0.00    +0.020 A 
ATOM      5  C   UNL     1     -36.151  22.335   2.502  0.00  0.00    +0.070 A 
ATOM      6  C   UNL     1     -35.093  23.954   3.674  0.00  0.00    +0.060 A 
ATOM      7  C   UNL     1     -36.464  21.223   1.730  0.00  0.00    +0.075 C 
ATOM      8  C   UNL     1     -36.896  25.348   4.466  0.00  0.00    +0.005 C 
ATOM      9  C   UNL     1     -34.135  24.764   4.294  0.00  0.00    +0.057 C 
ATOM     10  C   UNL     1     -38.475  22.915   2.705  0.00  0.00    +0.022 C 
ATOM     11  C   UNL     1     -34.590  25.878   5.006  0.00  0.00    +0.177 C 
ATOM     12  C   UNL     1     -35.950  26.167   5.091  0.00  0.00    +0.040 C 
ATOM     13  C   UNL     1     -38.714  21.789   1.929  0.00  0.00    +0.099 C 
ATOM     14  C   UNL     1     -35.441  20.289   1.183  0.00  0.00    +0.054 C 
ATOM     15  H   UNL     1     -34.066  22.400   2.709  0.00  0.00    +0.166 HD
ENDROOT
BRANCH  11  16
ATOM     16  O   UNL     1     -33.688  26.692   5.625  0.00  0.00    -0.322 OA
BRANCH  16  17
ATOM     17  S   UNL     1     -32.879  27.807   4.730  0.00  0.00    +0.282 S 
ATOM     18  O   UNL     1     -32.419  28.927   5.824  0.00  0.00    -0.105 OA
ATOM     19  O   UNL     1     -31.679  27.197   4.186  0.00  0.00    -0.012 OA
ATOM     20  O   UNL     1     -33.837  28.437   3.842  0.00  0.00    -0.105 OA
ENDBRANCH  16  17
ENDBRANCH  11  16
TORSDOF 2
ENDMDL
MODEL 7
REMARK VINA RESULT:      -5.7      4.965      6.174
REMARK  Name = 5488302
REMARK  2 active torsions:
REMARK  status: ('A' for Active; 'I' for Inactive)
REMARK    1  A    between atoms: C_11  and  O_16
REMARK    2  A    between atoms: O_16  and  S_17
REMARK                            x       y       z     vdW  Elec       q    Type
REMARK                         _______ _______ _______ _____ _____    ______ ____
ROOT
ATOM      1  N   UNL     1     -37.134  24.060   4.194  0.00  0.00    -0.352 N 
ATOM      2  N   UNL     1     -35.134  20.964   4.082  0.00  0.00    -0.247 NA
ATOM      3  C   UNL     1     -37.628  23.654   2.057  0.00  0.00    +0.017 A 
ATOM      4  C   UNL     1     -36.771  22.613   2.535  0.00  0.00    +0.020 A 
ATOM      5  C   UNL     1     -36.483  22.895   3.871  0.00  0.00    +0.070 A 
ATOM      6  C   UNL     1     -37.837  24.540   3.114  0.00  0.00    +0.060 A 
ATOM      7  C   UNL     1     -35.668  22.075   4.640  0.00  0.00    +0.075 C 
ATOM      8  C   UNL     1     -38.247  23.924   0.818  0.00  0.00    +0.005 C 
ATOM      9  C   UNL     1     -38.634  25.685   2.996  0.00  0.00    +0.057 C 
ATOM     10  C   UNL     1     -36.214  21.460   1.961  0.00  0.00    +0.022 C 
ATOM     11  C   UNL     1     -39.236  25.930   1.758  0.00  0.00    +0.177 C 
ATOM     12  C   UNL     1     -39.046  25.064   0.685  0.00  0.00    +0.040 C 
ATOM     13  C   UNL     1     -35.410  20.687   2.788  0.00  0.00    +0.099 C 
ATOM     14  C   UNL     1     -35.341  22.350   6.067  0.00  0.00    +0.054 C 
ATOM     15  H   UNL     1     -37.103  24.492   5.079  0.00  0.00    +0.166 HD
ENDROOT
BRANCH  11  16
ATOM     16  O   UNL     1     -40.021  27.035   1.602  0.00  0.00    -0.322 OA
BRANCH  16  17
ATOM     17  S   UNL     1     -41.600  26.957   2.050  0.00  0.00    +0.282 S 
ATOM     18  O   UNL     1     -41.585  27.413   3.617  0.00  0.00    -0.105 OA
ATOM     19  O   UNL     1     -42.352  27.950   1.305  0.00  0.00    -0.012 OA
ATOM     20  O   UNL     1     -42.001  25.564   2.009  0.00  0.00    -0.105 OA
ENDBRANCH  16  17
ENDBRANCH  11  16
TORSDOF 2
ENDMDL
MODEL 8
REMARK VINA RESULT:      -5.7      2.994      3.401
REMARK  Name = 5488302
REMARK  2 active torsions:
REMARK  status: ('A' for Active; 'I' for Inactive)
REMARK    1  A    between atoms: C_11  and  O_16
REMARK    2  A    between atoms: O_16  and  S_17
REMARK                            x       y       z     vdW  Elec       q    Type
REMARK                         _______ _______ _______ _____ _____    ______ ____
ROOT
ATOM      1  N   UNL     1     -34.696  24.136   1.452  0.00  0.00    -0.352 N 
ATOM      2  N   UNL     1     -35.659  20.620   0.890  0.00  0.00    -0.247 NA
ATOM      3  C   UNL     1     -34.916  23.704   3.629  0.00  0.00    +0.017 A 
ATOM      4  C   UNL     1     -35.218  22.515   2.893  0.00  0.00    +0.020 A 
ATOM      5  C   UNL     1     -35.070  22.817   1.540  0.00  0.00    +0.070 A 
ATOM      6  C   UNL     1     -34.594  24.696   2.704  0.00  0.00    +0.060 A 
ATOM      7  C   UNL     1     -35.290  21.875   0.543  0.00  0.00    +0.075 C 
ATOM      8  C   UNL     1     -34.887  24.027   5.002  0.00  0.00    +0.005 C 
ATOM      9  C   UNL     1     -34.244  25.998   3.081  0.00  0.00    +0.057 C 
ATOM     10  C   UNL     1     -35.601  21.212   3.248  0.00  0.00    +0.022 C 
ATOM     11  C   UNL     1     -34.223  26.294   4.447  0.00  0.00    +0.177 C 
ATOM     12  C   UNL     1     -34.540  25.324   5.395  0.00  0.00    +0.040 C 
ATOM     13  C   UNL     1     -35.803  20.323   2.201  0.00  0.00    +0.099 C 
ATOM     14  C   UNL     1     -35.142  22.168  -0.910  0.00  0.00    +0.054 C 
ATOM     15  H   UNL     1     -34.524  24.614   0.609  0.00  0.00    +0.166 HD
ENDROOT
BRANCH  11  16
ATOM     16  O   UNL     1     -33.887  27.551   4.855  0.00  0.00    -0.322 OA
BRANCH  16  17
ATOM     17  S   UNL     1     -32.363  27.827   5.404  0.00  0.00    +0.282 S 
ATOM     18  O   UNL     1     -32.349  29.426   5.729  0.00  0.00    -0.105 OA
ATOM     19  O   UNL     1     -32.174  27.116   6.655  0.00  0.00    -0.012 OA
ATOM     20  O   UNL     1     -31.451  27.602   4.299  0.00  0.00    -0.105 OA
ENDBRANCH  16  17
ENDBRANCH  11  16
TORSDOF 2
ENDMDL
MODEL 9
REMARK VINA RESULT:      -5.7      6.406      7.913
REMARK  Name = 5488302
REMARK  2 active torsions:
REMARK  status: ('A' for Active; 'I' for Inactive)
REMARK    1  A    between atoms: C_11  and  O_16
REMARK    2  A    between atoms: O_16  and  S_17
REMARK                            x       y       z     vdW  Elec       q    Type
REMARK                         _______ _______ _______ _____ _____    ______ ____
ROOT
ATOM      1  N   UNL     1     -35.825  21.042   3.420  0.00  0.00    -0.352 N 
ATOM      2  N   UNL     1     -36.029  24.109   5.459  0.00  0.00    -0.247 NA
ATOM      3  C   UNL     1     -36.770  22.232   1.786  0.00  0.00    +0.017 A 
ATOM      4  C   UNL     1     -36.616  23.071   2.935  0.00  0.00    +0.020 A 
ATOM      5  C   UNL     1     -36.023  22.300   3.934  0.00  0.00    +0.070 A 
ATOM      6  C   UNL     1     -36.267  20.974   2.119  0.00  0.00    +0.060 A 
ATOM      7  C   UNL     1     -35.732  22.817   5.191  0.00  0.00    +0.075 C 
ATOM      8  C   UNL     1     -37.292  22.428   0.490  0.00  0.00    +0.005 C 
ATOM      9  C   UNL     1     -36.260  19.899   1.222  0.00  0.00    +0.057 C 
ATOM     10  C   UNL     1     -36.923  24.411   3.218  0.00  0.00    +0.022 C 
ATOM     11  C   UNL     1     -36.782  20.119  -0.056  0.00  0.00    +0.177 C 
ATOM     12  C   UNL     1     -37.291  21.363  -0.418  0.00  0.00    +0.040 C 
ATOM     13  C   UNL     1     -36.604  24.859   4.493  0.00  0.00    +0.099 C 
ATOM     14  C   UNL     1     -35.101  22.019   6.279  0.00  0.00    +0.054 C 
ATOM     15  H   UNL     1     -35.421  20.293   3.914  0.00  0.00    +0.166 HD
ENDROOT
BRANCH  11  16
ATOM     16  O   UNL     1     -36.793  19.098  -0.959  0.00  0.00    -0.322 OA
BRANCH  16  17
ATOM     17  S   UNL     1     -38.004  17.988  -0.890  0.00  0.00    +0.282 S 
ATOM     18  O   UNL     1     -38.017  17.331  -2.384  0.00  0.00    -0.105 OA
ATOM     19  O   UNL     1     -37.638  16.947   0.052  0.00  0.00    -0.012 OA
ATOM     20  O   UNL     1     -39.251  18.710  -0.724  0.00  0.00    -0.105 OA
ENDBRANCH  16  17
ENDBRANCH  11  16
TORSDOF 2
ENDMDL
