MODEL 1
REMARK VINA RESULT:      -6.4      0.000      0.000
REMARK  Name = 59603622
REMARK  1 active torsions:
REMARK  status: ('A' for Active; 'I' for Inactive)
REMARK    1  A    between atoms: C_4  and  N_20
REMARK                            x       y       z     vdW  Elec       q    Type
REMARK                         _______ _______ _______ _____ _____    ______ ____
ROOT
ATOM      1  O   UNL     1     -34.072  24.278   3.187  0.00  0.00    -0.266 OA
ATOM      2  N   UNL     1     -36.396  24.278   3.668  0.00  0.00    -0.170 N 
ATOM      3  N   UNL     1     -37.140  25.067   4.511  0.00  0.00    -0.252 N 
ATOM      4  C   UNL     1     -35.035  25.839   4.742  0.00  0.00    +0.146 C 
ATOM      5  C   UNL     1     -35.064  24.696   3.761  0.00  0.00    +0.286 C 
ATOM      6  C   UNL     1     -36.320  25.979   5.097  0.00  0.00    +0.098 C 
ATOM      7  H   UNL     1     -38.108  24.986   4.665  0.00  0.00    +0.171 HD
ATOM      8  O   UNL     1     -34.502  18.832  -0.959  0.00  0.00    -0.350 OA
ATOM      9  N   UNL     1     -35.960  20.657   0.604  0.00  0.00    -0.291 N 
ATOM     10  N   UNL     1     -38.094  21.212   1.462  0.00  0.00    -0.234 NA
ATOM     11  N   UNL     1     -38.315  23.043   3.012  0.00  0.00    -0.232 NA
ATOM     12  C   UNL     1     -34.869  19.878   1.199  0.00  0.00    +0.124 C 
ATOM     13  C   UNL     1     -36.554  20.078  -0.609  0.00  0.00    +0.124 C 
ATOM     14  C   UNL     1     -33.856  19.503   0.123  0.00  0.00    +0.164 C 
ATOM     15  C   UNL     1     -35.451  19.693  -1.588  0.00  0.00    +0.164 C 
ATOM     16  C   UNL     1     -36.768  21.460   1.416  0.00  0.00    +0.113 C 
ATOM     17  C   UNL     1     -36.151  22.466   2.129  0.00  0.00    +0.123 C 
ATOM     18  C   UNL     1     -36.982  23.235   2.919  0.00  0.00    +0.136 C 
ATOM     19  C   UNL     1     -38.797  22.030   2.268  0.00  0.00    +0.252 C 
ENDROOT
BRANCH   4  20
ATOM     20  N   UNL     1     -33.880  26.624   5.171  0.00  0.00    -0.164 N 
ATOM     21  N   UNL     1     -33.359  26.622   6.408  0.00  0.00    -0.068 NA
ATOM     22  N   UNL     1     -32.323  27.454   6.402  0.00  0.00    -0.129 NA
ATOM     23  C   UNL     1     -33.194  27.456   4.339  0.00  0.00    +0.114 C 
ATOM     24  C   UNL     1     -32.209  27.973   5.142  0.00  0.00    +0.142 C 
ENDBRANCH   4  20
TORSDOF 1
ENDMDL
MODEL 2
REMARK VINA RESULT:      -6.3      3.246      8.865
REMARK  Name = 59603622
REMARK  1 active torsions:
REMARK  status: ('A' for Active; 'I' for Inactive)
REMARK    1  A    between atoms: C_4  and  N_20
REMARK                            x       y       z     vdW  Elec       q    Type
REMARK                         _______ _______ _______ _____ _____    ______ ____
ROOT
ATOM      1  O   UNL     1     -33.130  25.696   4.709  0.00  0.00    -0.266 OA
ATOM      2  N   UNL     1     -33.862  27.828   3.966  0.00  0.00    -0.170 N 
ATOM      3  N   UNL     1     -34.997  28.204   3.289  0.00  0.00    -0.252 N 
ATOM      4  C   UNL     1     -35.214  25.975   3.541  0.00  0.00    +0.146 C 
ATOM      5  C   UNL     1     -33.921  26.443   4.156  0.00  0.00    +0.286 C 
ATOM      6  C   UNL     1     -35.770  27.105   3.084  0.00  0.00    +0.098 C 
ATOM      7  H   UNL     1     -35.215  29.119   3.001  0.00  0.00    +0.171 HD
ATOM      8  O   UNL     1     -27.173  28.109   7.101  0.00  0.00    -0.350 OA
ATOM      9  N   UNL     1     -29.636  28.799   5.937  0.00  0.00    -0.291 N 
ATOM     10  N   UNL     1     -30.925  30.554   5.010  0.00  0.00    -0.234 NA
ATOM     11  N   UNL     1     -33.062  30.063   4.013  0.00  0.00    -0.232 NA
ATOM     12  C   UNL     1     -28.759  27.819   5.288  0.00  0.00    +0.124 C 
ATOM     13  C   UNL     1     -28.965  29.725   6.860  0.00  0.00    +0.124 C 
ATOM     14  C   UNL     1     -27.885  27.137   6.334  0.00  0.00    +0.164 C 
ATOM     15  C   UNL     1     -28.080  28.941   7.822  0.00  0.00    +0.164 C 
ATOM     16  C   UNL     1     -30.793  29.239   5.285  0.00  0.00    +0.113 C 
ATOM     17  C   UNL     1     -31.739  28.289   4.961  0.00  0.00    +0.123 C 
ATOM     18  C   UNL     1     -32.865  28.763   4.318  0.00  0.00    +0.136 C 
ATOM     19  C   UNL     1     -32.066  30.891   4.382  0.00  0.00    +0.252 C 
ENDROOT
BRANCH   4  20
ATOM     20  N   UNL     1     -35.742  24.613   3.492  0.00  0.00    -0.164 N 
ATOM     21  N   UNL     1     -36.851  24.191   4.119  0.00  0.00    -0.068 NA
ATOM     22  N   UNL     1     -37.002  22.903   3.831  0.00  0.00    -0.129 NA
ATOM     23  C   UNL     1     -35.151  23.610   2.787  0.00  0.00    +0.114 C 
ATOM     24  C   UNL     1     -35.968  22.532   3.016  0.00  0.00    +0.142 C 
ENDBRANCH   4  20
TORSDOF 1
ENDMDL
MODEL 3
REMARK VINA RESULT:      -6.0      4.062      8.273
REMARK  Name = 59603622
REMARK  1 active torsions:
REMARK  status: ('A' for Active; 'I' for Inactive)
REMARK    1  A    between atoms: C_4  and  N_20
REMARK                            x       y       z     vdW  Elec       q    Type
REMARK                         _______ _______ _______ _____ _____    ______ ____
ROOT
ATOM      1  O   UNL     1     -33.184  25.470   4.662  0.00  0.00    -0.266 OA
ATOM      2  N   UNL     1     -34.833  26.909   3.745  0.00  0.00    -0.170 N 
ATOM      3  N   UNL     1     -36.143  26.674   3.405  0.00  0.00    -0.252 N 
ATOM      4  C   UNL     1     -35.413  24.694   4.197  0.00  0.00    +0.146 C 
ATOM      5  C   UNL     1     -34.304  25.714   4.243  0.00  0.00    +0.286 C 
ATOM      6  C   UNL     1     -36.452  25.385   3.706  0.00  0.00    +0.098 C 
ATOM      7  H   UNL     1     -36.758  27.332   3.009  0.00  0.00    +0.171 HD
ATOM      8  O   UNL     1     -28.272  30.249   4.417  0.00  0.00    -0.350 OA
ATOM      9  N   UNL     1     -31.000  29.725   3.986  0.00  0.00    -0.291 N 
ATOM     10  N   UNL     1     -33.040  30.596   3.163  0.00  0.00    -0.234 NA
ATOM     11  N   UNL     1     -34.979  29.171   3.040  0.00  0.00    -0.232 NA
ATOM     12  C   UNL     1     -29.976  28.913   3.321  0.00  0.00    +0.124 C 
ATOM     13  C   UNL     1     -30.558  31.060   4.417  0.00  0.00    +0.124 C 
ATOM     14  C   UNL     1     -28.698  28.912   4.153  0.00  0.00    +0.164 C 
ATOM     15  C   UNL     1     -29.250  30.944   5.190  0.00  0.00    +0.164 C 
ATOM     16  C   UNL     1     -32.349  29.550   3.662  0.00  0.00    +0.113 C 
ATOM     17  C   UNL     1     -32.896  28.302   3.876  0.00  0.00    +0.123 C 
ATOM     18  C   UNL     1     -34.229  28.169   3.543  0.00  0.00    +0.136 C 
ATOM     19  C   UNL     1     -34.331  30.341   2.878  0.00  0.00    +0.252 C 
ENDROOT
BRANCH   4  20
ATOM     20  N   UNL     1     -35.365  23.297   4.620  0.00  0.00    -0.164 N 
ATOM     21  N   UNL     1     -35.424  22.237   3.798  0.00  0.00    -0.068 NA
ATOM     22  N   UNL     1     -35.348  21.147   4.554  0.00  0.00    -0.129 NA
ATOM     23  C   UNL     1     -35.250  22.917   5.922  0.00  0.00    +0.114 C 
ATOM     24  C   UNL     1     -35.242  21.546   5.857  0.00  0.00    +0.142 C 
ENDBRANCH   4  20
TORSDOF 1
ENDMDL
MODEL 4
REMARK VINA RESULT:      -6.0      2.256      7.517
REMARK  Name = 59603622
REMARK  1 active torsions:
REMARK  status: ('A' for Active; 'I' for Inactive)
REMARK    1  A    between atoms: C_4  and  N_20
REMARK                            x       y       z     vdW  Elec       q    Type
REMARK                         _______ _______ _______ _____ _____    ______ ____
ROOT
ATOM      1  O   UNL     1     -34.056  20.449   1.696  0.00  0.00    -0.266 OA
ATOM      2  N   UNL     1     -36.385  20.246   1.291  0.00  0.00    -0.170 N 
ATOM      3  N   UNL     1     -37.101  19.282   0.623  0.00  0.00    -0.252 N 
ATOM      4  C   UNL     1     -34.962  18.588   0.471  0.00  0.00    +0.146 C 
ATOM      5  C   UNL     1     -35.035  19.886   1.234  0.00  0.00    +0.286 C 
ATOM      6  C   UNL     1     -36.245  18.323   0.184  0.00  0.00    +0.098 C 
ATOM      7  H   UNL     1     -38.076  19.286   0.485  0.00  0.00    +0.171 HD
ATOM      8  O   UNL     1     -34.702  26.517   4.825  0.00  0.00    -0.350 OA
ATOM      9  N   UNL     1     -36.088  24.371   3.652  0.00  0.00    -0.291 N 
ATOM     10  N   UNL     1     -38.205  23.566   2.969  0.00  0.00    -0.234 NA
ATOM     11  N   UNL     1     -38.356  21.479   1.774  0.00  0.00    -0.232 NA
ATOM     12  C   UNL     1     -35.054  25.087   2.897  0.00  0.00    +0.124 C 
ATOM     13  C   UNL     1     -36.688  25.127   4.761  0.00  0.00    +0.124 C 
ATOM     14  C   UNL     1     -34.041  25.698   3.860  0.00  0.00    +0.164 C 
ATOM     15  C   UNL     1     -35.589  25.735   5.624  0.00  0.00    +0.164 C 
ATOM     16  C   UNL     1     -36.866  23.397   3.019  0.00  0.00    +0.113 C 
ATOM     17  C   UNL     1     -36.210  22.312   2.477  0.00  0.00    +0.123 C 
ATOM     18  C   UNL     1     -37.013  21.375   1.860  0.00  0.00    +0.136 C 
ATOM     19  C   UNL     1     -38.878  22.583   2.341  0.00  0.00    +0.252 C 
ENDROOT
BRANCH   4  20
ATOM     20  N   UNL     1     -33.775  17.799   0.154  0.00  0.00    -0.164 N 
ATOM     21  N   UNL     1     -32.842  17.416   1.040  0.00  0.00    -0.068 NA
ATOM     22  N   UNL     1     -31.929  16.717   0.375  0.00  0.00    -0.129 NA
ATOM     23  C   UNL     1     -33.486  17.359  -1.101  0.00  0.00    +0.114 C 
ATOM     24  C   UNL     1     -32.308  16.674  -0.938  0.00  0.00    +0.142 C 
ENDBRANCH   4  20
TORSDOF 1
ENDMDL
MODEL 5
REMARK VINA RESULT:      -6.0      2.616      8.078
REMARK  Name = 59603622
REMARK  1 active torsions:
REMARK  status: ('A' for Active; 'I' for Inactive)
REMARK    1  A    between atoms: C_4  and  N_20
REMARK                            x       y       z     vdW  Elec       q    Type
REMARK                         _______ _______ _______ _____ _____    ______ ____
ROOT
ATOM      1  O   UNL     1     -35.255  25.476   2.656  0.00  0.00    -0.266 OA
ATOM      2  N   UNL     1     -34.524  25.351   4.910  0.00  0.00    -0.170 N 
ATOM      3  N   UNL     1     -34.792  24.429   5.892  0.00  0.00    -0.252 N 
ATOM      4  C   UNL     1     -35.938  23.680   4.102  0.00  0.00    +0.146 C 
ATOM      5  C   UNL     1     -35.212  24.955   3.758  0.00  0.00    +0.286 C 
ATOM      6  C   UNL     1     -35.594  23.460   5.379  0.00  0.00    +0.098 C 
ATOM      7  H   UNL     1     -34.457  24.465   6.817  0.00  0.00    +0.171 HD
ATOM      8  O   UNL     1     -32.107  31.463   1.524  0.00  0.00    -0.350 OA
ATOM      9  N   UNL     1     -32.523  29.394   3.381  0.00  0.00    -0.291 N 
ATOM     10  N   UNL     1     -32.145  28.670   5.602  0.00  0.00    -0.234 NA
ATOM     11  N   UNL     1     -33.158  26.625   6.375  0.00  0.00    -0.232 NA
ATOM     12  C   UNL     1     -33.665  30.102   2.793  0.00  0.00    +0.124 C 
ATOM     13  C   UNL     1     -31.252  30.132   3.363  0.00  0.00    +0.124 C 
ATOM     14  C   UNL     1     -33.280  30.655   1.425  0.00  0.00    +0.164 C 
ATOM     15  C   UNL     1     -30.996  30.683   1.965  0.00  0.00    +0.164 C 
ATOM     16  C   UNL     1     -32.730  28.462   4.403  0.00  0.00    +0.113 C 
ATOM     17  C   UNL     1     -33.531  27.376   4.119  0.00  0.00    +0.123 C 
ATOM     18  C   UNL     1     -33.712  26.480   5.154  0.00  0.00    +0.136 C 
ATOM     19  C   UNL     1     -32.397  27.726   6.528  0.00  0.00    +0.252 C 
ENDROOT
BRANCH   4  20
ATOM     20  N   UNL     1     -36.785  22.868   3.232  0.00  0.00    -0.164 N 
ATOM     21  N   UNL     1     -38.089  23.085   3.000  0.00  0.00    -0.068 NA
ATOM     22  N   UNL     1     -38.503  22.143   2.160  0.00  0.00    -0.129 NA
ATOM     23  C   UNL     1     -36.328  21.782   2.550  0.00  0.00    +0.114 C 
ATOM     24  C   UNL     1     -37.436  21.337   1.875  0.00  0.00    +0.142 C 
ENDBRANCH   4  20
TORSDOF 1
ENDMDL
MODEL 6
REMARK VINA RESULT:      -6.0      3.741      6.539
REMARK  Name = 59603622
REMARK  1 active torsions:
REMARK  status: ('A' for Active; 'I' for Inactive)
REMARK    1  A    between atoms: C_4  and  N_20
REMARK                            x       y       z     vdW  Elec       q    Type
REMARK                         _______ _______ _______ _____ _____    ______ ____
ROOT
ATOM      1  O   UNL     1     -31.163  27.395   6.022  0.00  0.00    -0.266 OA
ATOM      2  N   UNL     1     -31.971  29.098   4.580  0.00  0.00    -0.170 N 
ATOM      3  N   UNL     1     -31.493  30.359   4.322  0.00  0.00    -0.252 N 
ATOM      4  C   UNL     1     -30.040  29.512   5.822  0.00  0.00    +0.146 C 
ATOM      5  C   UNL     1     -31.118  28.504   5.516  0.00  0.00    +0.286 C 
ATOM      6  C   UNL     1     -30.356  30.554   5.041  0.00  0.00    +0.098 C 
ATOM      7  H   UNL     1     -31.906  31.015   3.715  0.00  0.00    +0.171 HD
ATOM      8  O   UNL     1     -36.401  23.179   4.667  0.00  0.00    -0.350 OA
ATOM      9  N   UNL     1     -35.202  25.641   4.032  0.00  0.00    -0.291 N 
ATOM     10  N   UNL     1     -35.426  27.654   2.809  0.00  0.00    -0.234 NA
ATOM     11  N   UNL     1     -33.792  29.403   3.087  0.00  0.00    -0.232 NA
ATOM     12  C   UNL     1     -35.557  25.327   5.420  0.00  0.00    +0.124 C 
ATOM     13  C   UNL     1     -35.945  24.891   3.009  0.00  0.00    +0.124 C 
ATOM     14  C   UNL     1     -35.553  23.815   5.624  0.00  0.00    +0.164 C 
ATOM     15  C   UNL     1     -35.919  23.403   3.342  0.00  0.00    +0.164 C 
ATOM     16  C   UNL     1     -34.733  26.917   3.704  0.00  0.00    +0.113 C 
ATOM     17  C   UNL     1     -33.578  27.348   4.322  0.00  0.00    +0.123 C 
ATOM     18  C   UNL     1     -33.150  28.613   3.972  0.00  0.00    +0.136 C 
ATOM     19  C   UNL     1     -34.906  28.869   2.552  0.00  0.00    +0.252 C 
ENDROOT
BRANCH   4  20
ATOM     20  N   UNL     1     -28.905  29.363   6.730  0.00  0.00    -0.164 N 
ATOM     21  N   UNL     1     -28.931  29.620   8.048  0.00  0.00    -0.068 NA
ATOM     22  N   UNL     1     -27.717  29.364   8.524  0.00  0.00    -0.129 NA
ATOM     23  C   UNL     1     -27.678  28.937   6.325  0.00  0.00    +0.114 C 
ATOM     24  C   UNL     1     -26.938  28.945   7.481  0.00  0.00    +0.142 C 
ENDBRANCH   4  20
TORSDOF 1
ENDMDL
MODEL 7
REMARK VINA RESULT:      -5.9      3.431      5.145
REMARK  Name = 59603622
REMARK  1 active torsions:
REMARK  status: ('A' for Active; 'I' for Inactive)
REMARK    1  A    between atoms: C_4  and  N_20
REMARK                            x       y       z     vdW  Elec       q    Type
REMARK                         _______ _______ _______ _____ _____    ______ ____
ROOT
ATOM      1  O   UNL     1     -36.702  26.467   3.316  0.00  0.00    -0.266 OA
ATOM      2  N   UNL     1     -36.761  24.095   3.310  0.00  0.00    -0.170 N 
ATOM      3  N   UNL     1     -35.850  23.172   3.762  0.00  0.00    -0.252 N 
ATOM      4  C   UNL     1     -34.893  25.162   4.214  0.00  0.00    +0.146 C 
ATOM      5  C   UNL     1     -36.231  25.367   3.553  0.00  0.00    +0.286 C 
ATOM      6  C   UNL     1     -34.790  23.828   4.304  0.00  0.00    +0.098 C 
ATOM      7  H   UNL     1     -35.948  22.194   3.703  0.00  0.00    +0.171 HD
ATOM      8  O   UNL     1     -42.668  27.043  -0.017  0.00  0.00    -0.350 OA
ATOM      9  N   UNL     1     -40.849  25.250   1.158  0.00  0.00    -0.291 N 
ATOM     10  N   UNL     1     -40.311  22.971   1.497  0.00  0.00    -0.234 NA
ATOM     11  N   UNL     1     -38.242  22.387   2.586  0.00  0.00    -0.232 NA
ATOM     12  C   UNL     1     -40.401  26.190   0.124  0.00  0.00    +0.124 C 
ATOM     13  C   UNL     1     -42.289  24.950   1.149  0.00  0.00    +0.124 C 
ATOM     14  C   UNL     1     -41.298  27.422   0.123  0.00  0.00    +0.164 C 
ATOM     15  C   UNL     1     -43.085  26.249   1.093  0.00  0.00    +0.164 C 
ATOM     16  C   UNL     1     -39.974  24.271   1.638  0.00  0.00    +0.113 C 
ATOM     17  C   UNL     1     -38.806  24.700   2.233  0.00  0.00    +0.123 C 
ATOM     18  C   UNL     1     -37.969  23.704   2.693  0.00  0.00    +0.136 C 
ATOM     19  C   UNL     1     -39.413  22.096   1.986  0.00  0.00    +0.252 C 
ENDROOT
BRANCH   4  20
ATOM     20  N   UNL     1     -33.955  26.182   4.675  0.00  0.00    -0.164 N 
ATOM     21  N   UNL     1     -33.649  26.429   5.959  0.00  0.00    -0.068 NA
ATOM     22  N   UNL     1     -32.763  27.419   5.971  0.00  0.00    -0.129 NA
ATOM     23  C   UNL     1     -33.275  27.005   3.830  0.00  0.00    +0.114 C 
ATOM     24  C   UNL     1     -32.524  27.783   4.675  0.00  0.00    +0.142 C 
ENDBRANCH   4  20
TORSDOF 1
ENDMDL
MODEL 8
REMARK VINA RESULT:      -5.8      2.391      4.359
REMARK  Name = 59603622
REMARK  1 active torsions:
REMARK  status: ('A' for Active; 'I' for Inactive)
REMARK    1  A    between atoms: C_4  and  N_20
REMARK                            x       y       z     vdW  Elec       q    Type
REMARK                         _______ _______ _______ _____ _____    ______ ____
ROOT
ATOM      1  O   UNL     1     -34.813  21.835   2.360  0.00  0.00    -0.266 OA
ATOM      2  N   UNL     1     -36.754  20.723   1.572  0.00  0.00    -0.170 N 
ATOM      3  N   UNL     1     -38.087  21.000   1.756  0.00  0.00    -0.252 N 
ATOM      4  C   UNL     1     -37.020  22.628   2.891  0.00  0.00    +0.146 C 
ATOM      5  C   UNL     1     -36.020  21.696   2.258  0.00  0.00    +0.286 C 
ATOM      6  C   UNL     1     -38.202  22.128   2.505  0.00  0.00    +0.098 C 
ATOM      7  H   UNL     1     -38.837  20.469   1.403  0.00  0.00    +0.171 HD
ATOM      8  O   UNL     1     -30.544  17.210  -0.364  0.00  0.00    -0.350 OA
ATOM      9  N   UNL     1     -33.229  18.008  -0.126  0.00  0.00    -0.291 N 
ATOM     10  N   UNL     1     -35.475  17.437  -0.601  0.00  0.00    -0.234 NA
ATOM     11  N   UNL     1     -37.259  18.810   0.258  0.00  0.00    -0.232 NA
ATOM     12  C   UNL     1     -32.419  17.766   1.072  0.00  0.00    +0.124 C 
ATOM     13  C   UNL     1     -32.758  17.335  -1.346  0.00  0.00    +0.124 C 
ATOM     14  C   UNL     1     -30.946  18.000   0.756  0.00  0.00    +0.164 C 
ATOM     15  C   UNL     1     -31.267  17.593  -1.533  0.00  0.00    +0.164 C 
ATOM     16  C   UNL     1     -34.597  18.270  -0.003  0.00  0.00    +0.113 C 
ATOM     17  C   UNL     1     -34.968  19.377   0.731  0.00  0.00    +0.123 C 
ATOM     18  C   UNL     1     -36.326  19.600   0.830  0.00  0.00    +0.136 C 
ATOM     19  C   UNL     1     -36.771  17.762  -0.432  0.00  0.00    +0.252 C 
ENDROOT
BRANCH   4  20
ATOM     20  N   UNL     1     -36.752  23.813   3.703  0.00  0.00    -0.164 N 
ATOM     21  N   UNL     1     -36.313  23.798   4.971  0.00  0.00    -0.068 NA
ATOM     22  N   UNL     1     -36.188  25.062   5.361  0.00  0.00    -0.129 NA
ATOM     23  C   UNL     1     -36.922  25.084   3.245  0.00  0.00    +0.114 C 
ATOM     24  C   UNL     1     -36.558  25.862   4.315  0.00  0.00    +0.142 C 
ENDBRANCH   4  20
TORSDOF 1
ENDMDL
MODEL 9
REMARK VINA RESULT:      -5.8      4.554      7.322
REMARK  Name = 59603622
REMARK  1 active torsions:
REMARK  status: ('A' for Active; 'I' for Inactive)
REMARK    1  A    between atoms: C_4  and  N_20
REMARK                            x       y       z     vdW  Elec       q    Type
REMARK                         _______ _______ _______ _____ _____    ______ ____
ROOT
ATOM      1  O   UNL     1     -40.122  27.000   3.013  0.00  0.00    -0.266 OA
ATOM      2  N   UNL     1     -40.544  24.846   2.112  0.00  0.00    -0.170 N 
ATOM      3  N   UNL     1     -41.656  24.333   1.490  0.00  0.00    -0.252 N 
ATOM      4  C   UNL     1     -42.224  26.459   1.977  0.00  0.00    +0.146 C 
ATOM      5  C   UNL     1     -40.823  26.173   2.453  0.00  0.00    +0.286 C 
ATOM      6  C   UNL     1     -42.601  25.306   1.406  0.00  0.00    +0.098 C 
ATOM      7  H   UNL     1     -41.753  23.411   1.159  0.00  0.00    +0.171 HD
ATOM      8  O   UNL     1     -33.915  25.266   5.358  0.00  0.00    -0.350 OA
ATOM      9  N   UNL     1     -36.147  24.397   3.886  0.00  0.00    -0.291 N 
ATOM     10  N   UNL     1     -37.160  22.558   2.796  0.00  0.00    -0.234 NA
ATOM     11  N   UNL     1     -39.385  22.785   1.899  0.00  0.00    -0.232 NA
ATOM     12  C   UNL     1     -36.312  24.901   5.254  0.00  0.00    +0.124 C 
ATOM     13  C   UNL     1     -34.802  23.900   3.559  0.00  0.00    +0.124 C 
ATOM     14  C   UNL     1     -35.186  25.875   5.584  0.00  0.00    +0.164 C 
ATOM     15  C   UNL     1     -33.758  24.929   3.980  0.00  0.00    +0.164 C 
ATOM     16  C   UNL     1     -37.238  23.840   3.211  0.00  0.00    +0.113 C 
ATOM     17  C   UNL     1     -38.339  24.646   3.010  0.00  0.00    +0.123 C 
ATOM     18  C   UNL     1     -39.394  24.059   2.341  0.00  0.00    +0.136 C 
ATOM     19  C   UNL     1     -38.253  22.101   2.157  0.00  0.00    +0.252 C 
ENDROOT
BRANCH   4  20
ATOM     20  N   UNL     1     -42.971  27.710   2.087  0.00  0.00    -0.164 N 
ATOM     21  N   UNL     1     -42.424  28.926   2.239  0.00  0.00    -0.068 NA
ATOM     22  N   UNL     1     -43.420  29.803   2.296  0.00  0.00    -0.129 NA
ATOM     23  C   UNL     1     -44.330  27.772   2.042  0.00  0.00    +0.114 C 
ATOM     24  C   UNL     1     -44.594  29.112   2.177  0.00  0.00    +0.142 C 
ENDBRANCH   4  20
TORSDOF 1
ENDMDL
