MODEL 1
REMARK VINA RESULT:      -6.4      0.000      0.000
REMARK  Name = 194242
REMARK  7 active torsions:
REMARK  status: ('A' for Active; 'I' for Inactive)
REMARK    1  A    between atoms: C_7  and  O_20
REMARK    2  A    between atoms: C_9  and  O_22
REMARK    3  A    between atoms: C_9  and  C_29
REMARK    4  A    between atoms: C_12  and  O_24
REMARK    5  A    between atoms: C_19  and  O_26
REMARK    6  A    between atoms: C_29  and  C_30
REMARK    7  A    between atoms: C_30  and  O_31
REMARK                            x       y       z     vdW  Elec       q    Type
REMARK                         _______ _______ _______ _____ _____    ______ ____
ROOT
ATOM      1  C   UNL     1     -38.327  24.533   3.082  0.00  0.00    +0.027 C 
ATOM      2  C   UNL     1     -38.838  23.912   1.740  0.00  0.00    +0.005 C 
ATOM      3  C   UNL     1     -40.304  24.324   1.536  0.00  0.00    +0.003 C 
ATOM      4  C   UNL     1     -40.511  25.854   1.461  0.00  0.00    +0.031 C 
ATOM      5  C   UNL     1     -36.860  24.060   3.433  0.00  0.00    +0.005 C 
ATOM      6  C   UNL     1     -36.876  22.495   3.480  0.00  0.00    +0.029 C 
ATOM      7  C   UNL     1     -38.594  26.066   3.171  0.00  0.00    +0.111 C 
ATOM      8  C   UNL     1     -40.045  26.452   2.805  0.00  0.00    +0.032 C 
ATOM      9  C   UNL     1     -42.040  25.892   1.192  0.00  0.00    +0.141 C 
ATOM     10  C   UNL     1     -38.707  22.382   1.747  0.00  0.00    +0.029 C 
ATOM     11  C   UNL     1     -41.052  23.806   0.312  0.00  0.00    +0.003 C 
ATOM     12  C   UNL     1     -37.314  21.890   2.136  0.00  0.00    +0.111 C 
ATOM     13  C   UNL     1     -42.280  24.733   0.197  0.00  0.00    +0.034 C 
ATOM     14  C   UNL     1     -36.453  24.578   4.842  0.00  0.00    +0.003 C 
ATOM     15  C   UNL     1     -35.548  21.890   3.986  0.00  0.00    +0.032 C 
ATOM     16  C   UNL     1     -39.758  26.517   0.275  0.00  0.00    +0.003 C 
ATOM     17  C   UNL     1     -35.820  24.575   2.403  0.00  0.00    +0.000 C 
ATOM     18  C   UNL     1     -35.136  23.986   5.355  0.00  0.00    +0.029 C 
ATOM     19  C   UNL     1     -35.139  22.461   5.345  0.00  0.00    +0.111 C 
ENDROOT
BRANCH   7  20
ATOM     20  O   UNL     1     -37.690  26.800   2.357  0.00  0.00    -0.384 OA
ATOM     21  H   UNL     1     -38.181  27.246   1.650  0.00  0.00    +0.210 HD
ENDBRANCH   7  20
BRANCH   9  22
ATOM     22  O   UNL     1     -42.779  25.646   2.385  0.00  0.00    -0.380 OA
ATOM     23  H   UNL     1     -42.257  25.084   2.979  0.00  0.00    +0.211 HD
ENDBRANCH   9  22
BRANCH  12  24
ATOM     24  O   UNL     1     -37.358  20.467   2.241  0.00  0.00    -0.384 OA
ATOM     25  H   UNL     1     -37.083  20.072   1.399  0.00  0.00    +0.210 HD
ENDBRANCH  12  24
BRANCH  19  26
ATOM     26  O   UNL     1     -36.046  22.006   6.349  0.00  0.00    -0.384 OA
ATOM     27  H   UNL     1     -36.654  21.356   5.965  0.00  0.00    +0.210 HD
ENDBRANCH  19  26
BRANCH   9  29
ATOM     28  O   UNL     1     -42.685  27.438  -0.503  0.00  0.00    -0.291 OA
ATOM     29  C   UNL     1     -42.537  27.218   0.698  0.00  0.00    +0.204 C 
BRANCH  29  30
ATOM     30  C   UNL     1     -42.839  28.257   1.757  0.00  0.00    +0.204 C 
BRANCH  30  31
ATOM     31  O   UNL     1     -41.964  29.359   1.636  0.00  0.00    -0.375 OA
ATOM     32  H   UNL     1     -41.229  29.125   1.047  0.00  0.00    +0.211 HD
ENDBRANCH  30  31
ENDBRANCH  29  30
ENDBRANCH   9  29
TORSDOF 7
ENDMDL
MODEL 2
REMARK VINA RESULT:      -6.3      4.253      7.069
REMARK  Name = 194242
REMARK  7 active torsions:
REMARK  status: ('A' for Active; 'I' for Inactive)
REMARK    1  A    between atoms: C_7  and  O_20
REMARK    2  A    between atoms: C_9  and  O_22
REMARK    3  A    between atoms: C_9  and  C_29
REMARK    4  A    between atoms: C_12  and  O_24
REMARK    5  A    between atoms: C_19  and  O_26
REMARK    6  A    between atoms: C_29  and  C_30
REMARK    7  A    between atoms: C_30  and  O_31
REMARK                            x       y       z     vdW  Elec       q    Type
REMARK                         _______ _______ _______ _____ _____    ______ ____
ROOT
ATOM      1  C   UNL     1     -34.522  24.022   2.344  0.00  0.00    +0.027 C 
ATOM      2  C   UNL     1     -34.871  24.500   3.792  0.00  0.00    +0.005 C 
ATOM      3  C   UNL     1     -33.827  25.540   4.229  0.00  0.00    +0.003 C 
ATOM      4  C   UNL     1     -33.775  26.785   3.316  0.00  0.00    +0.031 C 
ATOM      5  C   UNL     1     -35.479  22.861   1.858  0.00  0.00    +0.005 C 
ATOM      6  C   UNL     1     -35.364  21.699   2.902  0.00  0.00    +0.029 C 
ATOM      7  C   UNL     1     -34.326  25.209   1.353  0.00  0.00    +0.111 C 
ATOM      8  C   UNL     1     -33.388  26.309   1.901  0.00  0.00    +0.032 C 
ATOM      9  C   UNL     1     -32.701  27.613   4.074  0.00  0.00    +0.141 C 
ATOM     10  C   UNL     1     -34.901  23.323   4.778  0.00  0.00    +0.029 C 
ATOM     11  C   UNL     1     -33.918  26.132   5.632  0.00  0.00    +0.003 C 
ATOM     12  C   UNL     1     -35.774  22.160   4.311  0.00  0.00    +0.111 C 
ATOM     13  C   UNL     1     -33.039  27.398   5.567  0.00  0.00    +0.034 C 
ATOM     14  C   UNL     1     -35.002  22.316   0.481  0.00  0.00    +0.003 C 
ATOM     15  C   UNL     1     -36.111  20.418   2.468  0.00  0.00    +0.032 C 
ATOM     16  C   UNL     1     -35.112  27.577   3.282  0.00  0.00    +0.003 C 
ATOM     17  C   UNL     1     -36.948  23.338   1.713  0.00  0.00    +0.000 C 
ATOM     18  C   UNL     1     -35.736  21.045   0.038  0.00  0.00    +0.029 C 
ATOM     19  C   UNL     1     -35.668  19.938   1.085  0.00  0.00    +0.111 C 
ENDROOT
BRANCH   7  20
ATOM     20  O   UNL     1     -35.568  25.790   0.983  0.00  0.00    -0.384 OA
ATOM     21  H   UNL     1     -35.856  25.424   0.132  0.00  0.00    +0.210 HD
ENDBRANCH   7  20
BRANCH   9  22
ATOM     22  O   UNL     1     -31.390  27.116   3.813  0.00  0.00    -0.380 OA
ATOM     23  H   UNL     1     -31.113  27.388   2.924  0.00  0.00    +0.211 HD
ENDBRANCH   9  22
BRANCH  12  24
ATOM     24  O   UNL     1     -35.610  21.083   5.234  0.00  0.00    -0.384 OA
ATOM     25  H   UNL     1     -36.293  20.413   5.073  0.00  0.00    +0.210 HD
ENDBRANCH  12  24
BRANCH  19  26
ATOM     26  O   UNL     1     -34.324  19.462   1.149  0.00  0.00    -0.384 OA
ATOM     27  H   UNL     1     -34.117  18.967   0.341  0.00  0.00    +0.210 HD
ENDBRANCH  19  26
BRANCH   9  29
ATOM     28  O   UNL     1     -33.189  29.928   4.355  0.00  0.00    -0.291 OA
ATOM     29  C   UNL     1     -32.652  29.056   3.673  0.00  0.00    +0.204 C 
BRANCH  29  30
ATOM     30  C   UNL     1     -31.912  29.371   2.390  0.00  0.00    +0.204 C 
BRANCH  30  31
ATOM     31  O   UNL     1     -30.556  29.663   2.657  0.00  0.00    -0.375 OA
ATOM     32  H   UNL     1     -29.991  29.154   2.053  0.00  0.00    +0.211 HD
ENDBRANCH  30  31
ENDBRANCH  29  30
ENDBRANCH   9  29
TORSDOF 7
ENDMDL
MODEL 3
REMARK VINA RESULT:      -6.0      2.550      6.718
REMARK  Name = 194242
REMARK  7 active torsions:
REMARK  status: ('A' for Active; 'I' for Inactive)
REMARK    1  A    between atoms: C_7  and  O_20
REMARK    2  A    between atoms: C_9  and  O_22
REMARK    3  A    between atoms: C_9  and  C_29
REMARK    4  A    between atoms: C_12  and  O_24
REMARK    5  A    between atoms: C_19  and  O_26
REMARK    6  A    between atoms: C_29  and  C_30
REMARK    7  A    between atoms: C_30  and  O_31
REMARK                            x       y       z     vdW  Elec       q    Type
REMARK                         _______ _______ _______ _____ _____    ______ ____
ROOT
ATOM      1  C   UNL     1     -37.645  24.716   1.940  0.00  0.00    +0.027 C 
ATOM      2  C   UNL     1     -37.101  23.781   3.070  0.00  0.00    +0.005 C 
ATOM      3  C   UNL     1     -35.669  24.214   3.418  0.00  0.00    +0.003 C 
ATOM      4  C   UNL     1     -35.568  25.673   3.917  0.00  0.00    +0.031 C 
ATOM      5  C   UNL     1     -39.074  24.266   1.436  0.00  0.00    +0.005 C 
ATOM      6  C   UNL     1     -38.950  22.779   0.958  0.00  0.00    +0.029 C 
ATOM      7  C   UNL     1     -37.484  26.227   2.285  0.00  0.00    +0.111 C 
ATOM      8  C   UNL     1     -36.065  26.589   2.780  0.00  0.00    +0.032 C 
ATOM      9  C   UNL     1     -34.046  25.733   4.225  0.00  0.00    +0.141 C 
ATOM     10  C   UNL     1     -37.126  22.308   2.638  0.00  0.00    +0.029 C 
ATOM     11  C   UNL     1     -34.894  23.425   4.469  0.00  0.00    +0.003 C 
ATOM     12  C   UNL     1     -38.480  21.855   2.094  0.00  0.00    +0.111 C 
ATOM     13  C   UNL     1     -33.734  24.361   4.867  0.00  0.00    +0.034 C 
ATOM     14  C   UNL     1     -39.507  25.126   0.215  0.00  0.00    +0.003 C 
ATOM     15  C   UNL     1     -40.230  22.254   0.271  0.00  0.00    +0.032 C 
ATOM     16  C   UNL     1     -36.372  25.931   5.222  0.00  0.00    +0.003 C 
ATOM     17  C   UNL     1     -40.153  24.407   2.541  0.00  0.00    +0.000 C 
ATOM     18  C   UNL     1     -40.776  24.616  -0.475  0.00  0.00    +0.029 C 
ATOM     19  C   UNL     1     -40.669  23.152  -0.887  0.00  0.00    +0.111 C 
ENDROOT
BRANCH   7  20
ATOM     20  O   UNL     1     -38.441  26.647   3.247  0.00  0.00    -0.384 OA
ATOM     21  H   UNL     1     -39.331  26.412   2.942  0.00  0.00    +0.210 HD
ENDBRANCH   7  20
BRANCH   9  22
ATOM     22  O   UNL     1     -33.285  25.876   3.029  0.00  0.00    -0.380 OA
ATOM     23  H   UNL     1     -33.060  26.810   2.898  0.00  0.00    +0.211 HD
ENDBRANCH   9  22
BRANCH  12  24
ATOM     24  O   UNL     1     -38.338  20.523   1.600  0.00  0.00    -0.384 OA
ATOM     25  H   UNL     1     -37.780  20.530   0.806  0.00  0.00    +0.210 HD
ENDBRANCH  12  24
BRANCH  19  26
ATOM     26  O   UNL     1     -39.727  23.053  -1.954  0.00  0.00    -0.384 OA
ATOM     27  H   UNL     1     -38.875  23.419  -1.669  0.00  0.00    +0.210 HD
ENDBRANCH  19  26
BRANCH   9  29
ATOM     28  O   UNL     1     -33.586  28.038   4.618  0.00  0.00    -0.291 OA
ATOM     29  C   UNL     1     -33.645  26.899   5.078  0.00  0.00    +0.204 C 
BRANCH  29  30
ATOM     30  C   UNL     1     -33.319  26.590   6.524  0.00  0.00    +0.204 C 
BRANCH  30  31
ATOM     31  O   UNL     1     -32.009  27.012   6.840  0.00  0.00    -0.375 OA
ATOM     32  H   UNL     1     -32.033  27.928   7.161  0.00  0.00    +0.211 HD
ENDBRANCH  30  31
ENDBRANCH  29  30
ENDBRANCH   9  29
TORSDOF 7
ENDMDL
MODEL 4
REMARK VINA RESULT:      -6.0      3.487      5.544
REMARK  Name = 194242
REMARK  7 active torsions:
REMARK  status: ('A' for Active; 'I' for Inactive)
REMARK    1  A    between atoms: C_7  and  O_20
REMARK    2  A    between atoms: C_9  and  O_22
REMARK    3  A    between atoms: C_9  and  C_29
REMARK    4  A    between atoms: C_12  and  O_24
REMARK    5  A    between atoms: C_19  and  O_26
REMARK    6  A    between atoms: C_29  and  C_30
REMARK    7  A    between atoms: C_30  and  O_31
REMARK                            x       y       z     vdW  Elec       q    Type
REMARK                         _______ _______ _______ _____ _____    ______ ____
ROOT
ATOM      1  C   UNL     1     -34.961  21.357   1.138  0.00  0.00    +0.027 C 
ATOM      2  C   UNL     1     -36.511  21.390   0.936  0.00  0.00    +0.005 C 
ATOM      3  C   UNL     1     -37.126  22.306   2.005  0.00  0.00    +0.003 C 
ATOM      4  C   UNL     1     -36.607  23.760   1.944  0.00  0.00    +0.031 C 
ATOM      5  C   UNL     1     -34.256  20.340   0.153  0.00  0.00    +0.005 C 
ATOM      6  C   UNL     1     -34.909  18.936   0.391  0.00  0.00    +0.029 C 
ATOM      7  C   UNL     1     -34.337  22.783   1.213  0.00  0.00    +0.111 C 
ATOM      8  C   UNL     1     -35.084  23.722   2.188  0.00  0.00    +0.032 C 
ATOM      9  C   UNL     1     -37.464  24.385   3.080  0.00  0.00    +0.141 C 
ATOM     10  C   UNL     1     -37.117  19.981   1.025  0.00  0.00    +0.029 C 
ATOM     11  C   UNL     1     -38.642  22.473   2.051  0.00  0.00    +0.003 C 
ATOM     12  C   UNL     1     -36.423  18.961   0.124  0.00  0.00    +0.111 C 
ATOM     13  C   UNL     1     -38.858  23.741   2.902  0.00  0.00    +0.034 C 
ATOM     14  C   UNL     1     -32.743  20.229   0.491  0.00  0.00    +0.003 C 
ATOM     15  C   UNL     1     -34.200  17.800  -0.378  0.00  0.00    +0.032 C 
ATOM     16  C   UNL     1     -36.930  24.471   0.600  0.00  0.00    +0.003 C 
ATOM     17  C   UNL     1     -34.396  20.775  -1.330  0.00  0.00    +0.000 C 
ATOM     18  C   UNL     1     -32.027  19.105  -0.267  0.00  0.00    +0.029 C 
ATOM     19  C   UNL     1     -32.701  17.751  -0.075  0.00  0.00    +0.111 C 
ENDROOT
BRANCH   7  20
ATOM     20  O   UNL     1     -34.269  23.391  -0.068  0.00  0.00    -0.384 OA
ATOM     21  H   UNL     1     -34.376  22.713  -0.754  0.00  0.00    +0.210 HD
ENDBRANCH   7  20
BRANCH   9  22
ATOM     22  O   UNL     1     -36.947  24.040   4.362  0.00  0.00    -0.380 OA
ATOM     23  H   UNL     1     -36.608  24.836   4.800  0.00  0.00    +0.211 HD
ENDBRANCH   9  22
BRANCH  12  24
ATOM     24  O   UNL     1     -36.979  17.675   0.398  0.00  0.00    -0.384 OA
ATOM     25  H   UNL     1     -36.924  17.495   1.350  0.00  0.00    +0.210 HD
ENDBRANCH  12  24
BRANCH  19  26
ATOM     26  O   UNL     1     -32.498  17.334   1.275  0.00  0.00    -0.384 OA
ATOM     27  H   UNL     1     -33.356  17.165   1.693  0.00  0.00    +0.210 HD
ENDBRANCH  19  26
BRANCH   9  29
ATOM     28  O   UNL     1     -38.440  26.503   2.589  0.00  0.00    -0.291 OA
ATOM     29  C   UNL     1     -37.490  25.884   3.066  0.00  0.00    +0.204 C 
BRANCH  29  30
ATOM     30  C   UNL     1     -36.288  26.580   3.667  0.00  0.00    +0.204 C 
BRANCH  30  31
ATOM     31  O   UNL     1     -36.435  26.708   5.066  0.00  0.00    -0.375 OA
ATOM     32  H   UNL     1     -36.605  25.835   5.454  0.00  0.00    +0.211 HD
ENDBRANCH  30  31
ENDBRANCH  29  30
ENDBRANCH   9  29
TORSDOF 7
ENDMDL
MODEL 5
REMARK VINA RESULT:      -5.9      4.433      7.911
REMARK  Name = 194242
REMARK  7 active torsions:
REMARK  status: ('A' for Active; 'I' for Inactive)
REMARK    1  A    between atoms: C_7  and  O_20
REMARK    2  A    between atoms: C_9  and  O_22
REMARK    3  A    between atoms: C_9  and  C_29
REMARK    4  A    between atoms: C_12  and  O_24
REMARK    5  A    between atoms: C_19  and  O_26
REMARK    6  A    between atoms: C_29  and  C_30
REMARK    7  A    between atoms: C_30  and  O_31
REMARK                            x       y       z     vdW  Elec       q    Type
REMARK                         _______ _______ _______ _____ _____    ______ ____
ROOT
ATOM      1  C   UNL     1     -35.020  21.920   2.133  0.00  0.00    +0.027 C 
ATOM      2  C   UNL     1     -35.407  22.217   0.647  0.00  0.00    +0.005 C 
ATOM      3  C   UNL     1     -34.635  21.249  -0.264  0.00  0.00    +0.003 C 
ATOM      4  C   UNL     1     -34.939  19.761   0.019  0.00  0.00    +0.031 C 
ATOM      5  C   UNL     1     -35.678  22.952   3.134  0.00  0.00    +0.005 C 
ATOM      6  C   UNL     1     -35.227  24.384   2.686  0.00  0.00    +0.029 C 
ATOM      7  C   UNL     1     -35.174  20.413   2.501  0.00  0.00    +0.111 C 
ATOM      8  C   UNL     1     -34.515  19.466   1.473  0.00  0.00    +0.032 C 
ATOM      9  C   UNL     1     -34.071  19.107  -1.091  0.00  0.00    +0.141 C 
ATOM     10  C   UNL     1     -35.094  23.673   0.268  0.00  0.00    +0.029 C 
ATOM     11  C   UNL     1     -34.804  21.364  -1.775  0.00  0.00    +0.003 C 
ATOM     12  C   UNL     1     -35.671  24.694   1.247  0.00  0.00    +0.111 C 
ATOM     13  C   UNL     1     -34.272  20.023  -2.320  0.00  0.00    +0.034 C 
ATOM     14  C   UNL     1     -35.148  22.712   4.576  0.00  0.00    +0.003 C 
ATOM     15  C   UNL     1     -35.650  25.490   3.677  0.00  0.00    +0.032 C 
ATOM     16  C   UNL     1     -36.432  19.387  -0.203  0.00  0.00    +0.003 C 
ATOM     17  C   UNL     1     -37.225  22.836   3.156  0.00  0.00    +0.000 C 
ATOM     18  C   UNL     1     -35.561  23.803   5.570  0.00  0.00    +0.029 C 
ATOM     19  C   UNL     1     -35.169  25.199   5.100  0.00  0.00    +0.111 C 
ENDROOT
BRANCH   7  20
ATOM     20  O   UNL     1     -36.538  20.055   2.667  0.00  0.00    -0.384 OA
ATOM     21  H   UNL     1     -36.740  19.978   3.612  0.00  0.00    +0.210 HD
ENDBRANCH   7  20
BRANCH   9  22
ATOM     22  O   UNL     1     -32.692  19.103  -0.729  0.00  0.00    -0.380 OA
ATOM     23  H   UNL     1     -32.150  18.966  -1.521  0.00  0.00    +0.211 HD
ENDBRANCH   9  22
BRANCH  12  24
ATOM     24  O   UNL     1     -35.199  25.988   0.868  0.00  0.00    -0.384 OA
ATOM     25  H   UNL     1     -34.246  25.945   0.692  0.00  0.00    +0.210 HD
ENDBRANCH  12  24
BRANCH  19  26
ATOM     26  O   UNL     1     -33.747  25.311   5.157  0.00  0.00    -0.384 OA
ATOM     27  H   UNL     1     -33.388  25.330   4.257  0.00  0.00    +0.210 HD
ENDBRANCH  19  26
BRANCH   9  29
ATOM     28  O   UNL     1     -35.043  17.333  -2.350  0.00  0.00    -0.291 OA
ATOM     29  C   UNL     1     -34.404  17.669  -1.354  0.00  0.00    +0.204 C 
BRANCH  29  30
ATOM     30  C   UNL     1     -33.912  16.669  -0.330  0.00  0.00    +0.204 C 
BRANCH  30  31
ATOM     31  O   UNL     1     -34.999  16.066   0.340  0.00  0.00    -0.375 OA
ATOM     32  H   UNL     1     -34.865  15.106   0.375  0.00  0.00    +0.211 HD
ENDBRANCH  30  31
ENDBRANCH  29  30
ENDBRANCH   9  29
TORSDOF 7
ENDMDL
MODEL 6
REMARK VINA RESULT:      -5.8      3.802      6.626
REMARK  Name = 194242
REMARK  7 active torsions:
REMARK  status: ('A' for Active; 'I' for Inactive)
REMARK    1  A    between atoms: C_7  and  O_20
REMARK    2  A    between atoms: C_9  and  O_22
REMARK    3  A    between atoms: C_9  and  C_29
REMARK    4  A    between atoms: C_12  and  O_24
REMARK    5  A    between atoms: C_19  and  O_26
REMARK    6  A    between atoms: C_29  and  C_30
REMARK    7  A    between atoms: C_30  and  O_31
REMARK                            x       y       z     vdW  Elec       q    Type
REMARK                         _______ _______ _______ _____ _____    ______ ____
ROOT
ATOM      1  C   UNL     1     -36.494  20.212   0.940  0.00  0.00    +0.027 C 
ATOM      2  C   UNL     1     -37.502  21.397   0.777  0.00  0.00    +0.005 C 
ATOM      3  C   UNL     1     -37.486  22.235   2.065  0.00  0.00    +0.003 C 
ATOM      4  C   UNL     1     -36.100  22.831   2.397  0.00  0.00    +0.031 C 
ATOM      5  C   UNL     1     -36.533  19.227  -0.297  0.00  0.00    +0.005 C 
ATOM      6  C   UNL     1     -38.010  18.725  -0.442  0.00  0.00    +0.029 C 
ATOM      7  C   UNL     1     -35.081  20.688   1.393  0.00  0.00    +0.111 C 
ATOM      8  C   UNL     1     -35.123  21.655   2.598  0.00  0.00    +0.032 C 
ATOM      9  C   UNL     1     -36.468  23.638   3.672  0.00  0.00    +0.141 C 
ATOM     10  C   UNL     1     -38.922  20.888   0.486  0.00  0.00    +0.029 C 
ATOM     11  C   UNL     1     -38.424  23.433   2.178  0.00  0.00    +0.003 C 
ATOM     12  C   UNL     1     -38.987  19.890  -0.669  0.00  0.00    +0.111 C 
ATOM     13  C   UNL     1     -37.846  24.258   3.346  0.00  0.00    +0.034 C 
ATOM     14  C   UNL     1     -35.631  17.990  -0.025  0.00  0.00    +0.003 C 
ATOM     15  C   UNL     1     -38.171  17.614  -1.503  0.00  0.00    +0.032 C 
ATOM     16  C   UNL     1     -35.573  23.802   1.303  0.00  0.00    +0.003 C 
ATOM     17  C   UNL     1     -36.047  19.910  -1.602  0.00  0.00    +0.000 C 
ATOM     18  C   UNL     1     -35.781  16.881  -1.071  0.00  0.00    +0.029 C 
ATOM     19  C   UNL     1     -37.229  16.436  -1.247  0.00  0.00    +0.111 C 
ENDROOT
BRANCH   7  20
ATOM     20  O   UNL     1     -34.368  21.295   0.325  0.00  0.00    -0.384 OA
ATOM     21  H   UNL     1     -34.866  22.059  -0.004  0.00  0.00    +0.210 HD
ENDBRANCH   7  20
BRANCH   9  22
ATOM     22  O   UNL     1     -36.595  22.781   4.804  0.00  0.00    -0.380 OA
ATOM     23  H   UNL     1     -36.679  23.316   5.608  0.00  0.00    +0.211 HD
ENDBRANCH   9  22
BRANCH  12  24
ATOM     24  O   UNL     1     -40.321  19.389  -0.749  0.00  0.00    -0.384 OA
ATOM     25  H   UNL     1     -40.735  19.430   0.127  0.00  0.00    +0.210 HD
ENDBRANCH  12  24
BRANCH  19  26
ATOM     26  O   UNL     1     -37.634  15.745  -0.066  0.00  0.00    -0.384 OA
ATOM     27  H   UNL     1     -38.365  16.225   0.354  0.00  0.00    +0.210 HD
ENDBRANCH  19  26
BRANCH   9  29
ATOM     28  O   UNL     1     -34.306  24.308   4.418  0.00  0.00    -0.291 OA
ATOM     29  C   UNL     1     -35.435  24.650   4.070  0.00  0.00    +0.204 C 
BRANCH  29  30
ATOM     30  C   UNL     1     -35.864  26.101   4.018  0.00  0.00    +0.204 C 
BRANCH  30  31
ATOM     31  O   UNL     1     -36.329  26.528   5.281  0.00  0.00    -0.375 OA
ATOM     32  H   UNL     1     -35.664  27.103   5.693  0.00  0.00    +0.211 HD
ENDBRANCH  30  31
ENDBRANCH  29  30
ENDBRANCH   9  29
TORSDOF 7
ENDMDL
MODEL 7
REMARK VINA RESULT:      -5.8      5.093      7.972
REMARK  Name = 194242
REMARK  7 active torsions:
REMARK  status: ('A' for Active; 'I' for Inactive)
REMARK    1  A    between atoms: C_7  and  O_20
REMARK    2  A    between atoms: C_9  and  O_22
REMARK    3  A    between atoms: C_9  and  C_29
REMARK    4  A    between atoms: C_12  and  O_24
REMARK    5  A    between atoms: C_19  and  O_26
REMARK    6  A    between atoms: C_29  and  C_30
REMARK    7  A    between atoms: C_30  and  O_31
REMARK                            x       y       z     vdW  Elec       q    Type
REMARK                         _______ _______ _______ _____ _____    ______ ____
ROOT
ATOM      1  C   UNL     1     -33.571  28.470   2.955  0.00  0.00    +0.027 C 
ATOM      2  C   UNL     1     -33.059  27.411   3.987  0.00  0.00    +0.005 C 
ATOM      3  C   UNL     1     -34.273  26.692   4.595  0.00  0.00    +0.003 C 
ATOM      4  C   UNL     1     -35.143  25.957   3.550  0.00  0.00    +0.031 C 
ATOM      5  C   UNL     1     -32.391  29.342   2.367  0.00  0.00    +0.005 C 
ATOM      6  C   UNL     1     -31.660  30.011   3.580  0.00  0.00    +0.029 C 
ATOM      7  C   UNL     1     -34.559  27.861   1.915  0.00  0.00    +0.111 C 
ATOM      8  C   UNL     1     -35.678  27.015   2.563  0.00  0.00    +0.032 C 
ATOM      9  C   UNL     1     -36.193  25.315   4.498  0.00  0.00    +0.141 C 
ATOM     10  C   UNL     1     -32.216  28.068   5.091  0.00  0.00    +0.029 C 
ATOM     11  C   UNL     1     -34.042  25.635   5.670  0.00  0.00    +0.003 C 
ATOM     12  C   UNL     1     -31.100  28.962   4.555  0.00  0.00    +0.111 C 
ATOM     13  C   UNL     1     -35.368  24.847   5.719  0.00  0.00    +0.034 C 
ATOM     14  C   UNL     1     -32.960  30.475   1.467  0.00  0.00    +0.003 C 
ATOM     15  C   UNL     1     -30.589  31.038   3.151  0.00  0.00    +0.032 C 
ATOM     16  C   UNL     1     -34.375  24.838   2.792  0.00  0.00    +0.003 C 
ATOM     17  C   UNL     1     -31.405  28.494   1.522  0.00  0.00    +0.000 C 
ATOM     18  C   UNL     1     -31.907  31.500   1.033  0.00  0.00    +0.029 C 
ATOM     19  C   UNL     1     -31.160  32.106   2.217  0.00  0.00    +0.111 C 
ENDROOT
BRANCH   7  20
ATOM     20  O   UNL     1     -33.878  27.080   0.944  0.00  0.00    -0.384 OA
ATOM     21  H   UNL     1     -34.107  26.145   1.062  0.00  0.00    +0.210 HD
ENDBRANCH   7  20
BRANCH   9  22
ATOM     22  O   UNL     1     -37.156  26.275   4.923  0.00  0.00    -0.380 OA
ATOM     23  H   UNL     1     -36.878  27.161   4.641  0.00  0.00    +0.211 HD
ENDBRANCH   9  22
BRANCH  12  24
ATOM     24  O   UNL     1     -30.485  29.618   5.664  0.00  0.00    -0.384 OA
ATOM     25  H   UNL     1     -29.531  29.698   5.503  0.00  0.00    +0.210 HD
ENDBRANCH  12  24
BRANCH  19  26
ATOM     26  O   UNL     1     -32.064  32.941   2.939  0.00  0.00    -0.384 OA
ATOM     27  H   UNL     1     -32.977  32.683   2.735  0.00  0.00    +0.210 HD
ENDBRANCH  19  26
BRANCH   9  29
ATOM     28  O   UNL     1     -36.692  23.037   4.010  0.00  0.00    -0.291 OA
ATOM     29  C   UNL     1     -36.995  24.220   3.862  0.00  0.00    +0.204 C 
BRANCH  29  30
ATOM     30  C   UNL     1     -38.187  24.656   3.036  0.00  0.00    +0.204 C 
BRANCH  30  31
ATOM     31  O   UNL     1     -39.336  24.781   3.847  0.00  0.00    -0.375 OA
ATOM     32  H   UNL     1     -39.696  23.900   4.035  0.00  0.00    +0.211 HD
ENDBRANCH  30  31
ENDBRANCH  29  30
ENDBRANCH   9  29
TORSDOF 7
ENDMDL
MODEL 8
REMARK VINA RESULT:      -5.7      3.911      6.837
REMARK  Name = 194242
REMARK  7 active torsions:
REMARK  status: ('A' for Active; 'I' for Inactive)
REMARK    1  A    between atoms: C_7  and  O_20
REMARK    2  A    between atoms: C_9  and  O_22
REMARK    3  A    between atoms: C_9  and  C_29
REMARK    4  A    between atoms: C_12  and  O_24
REMARK    5  A    between atoms: C_19  and  O_26
REMARK    6  A    between atoms: C_29  and  C_30
REMARK    7  A    between atoms: C_30  and  O_31
REMARK                            x       y       z     vdW  Elec       q    Type
REMARK                         _______ _______ _______ _____ _____    ______ ____
ROOT
ATOM      1  C   UNL     1     -35.236  20.796   0.686  0.00  0.00    +0.027 C 
ATOM      2  C   UNL     1     -34.213  21.937   1.002  0.00  0.00    +0.005 C 
ATOM      3  C   UNL     1     -34.995  23.219   1.327  0.00  0.00    +0.003 C 
ATOM      4  C   UNL     1     -35.939  23.076   2.542  0.00  0.00    +0.031 C 
ATOM      5  C   UNL     1     -34.515  19.467   0.222  0.00  0.00    +0.005 C 
ATOM      6  C   UNL     1     -33.636  19.828  -1.023  0.00  0.00    +0.029 C 
ATOM      7  C   UNL     1     -36.317  20.638   1.797  0.00  0.00    +0.111 C 
ATOM      8  C   UNL     1     -36.969  21.979   2.204  0.00  0.00    +0.032 C 
ATOM      9  C   UNL     1     -36.486  24.528   2.614  0.00  0.00    +0.141 C 
ATOM     10  C   UNL     1     -33.260  22.176  -0.178  0.00  0.00    +0.029 C 
ATOM     11  C   UNL     1     -34.221  24.499   1.629  0.00  0.00    +0.003 C 
ATOM     12  C   UNL     1     -32.588  20.902  -0.687  0.00  0.00    +0.111 C 
ATOM     13  C   UNL     1     -35.255  25.414   2.318  0.00  0.00    +0.034 C 
ATOM     14  C   UNL     1     -35.569  18.415  -0.225  0.00  0.00    +0.003 C 
ATOM     15  C   UNL     1     -33.005  18.591  -1.699  0.00  0.00    +0.032 C 
ATOM     16  C   UNL     1     -35.191  22.738   3.863  0.00  0.00    +0.003 C 
ATOM     17  C   UNL     1     -33.653  18.847   1.352  0.00  0.00    +0.000 C 
ATOM     18  C   UNL     1     -34.956  17.181  -0.896  0.00  0.00    +0.029 C 
ATOM     19  C   UNL     1     -34.056  17.544  -2.073  0.00  0.00    +0.111 C 
ENDROOT
BRANCH   7  20
ATOM     20  O   UNL     1     -35.790  19.999   2.950  0.00  0.00    -0.384 OA
ATOM     21  H   UNL     1     -34.836  19.866   2.839  0.00  0.00    +0.210 HD
ENDBRANCH   7  20
BRANCH   9  22
ATOM     22  O   UNL     1     -37.477  24.753   1.614  0.00  0.00    -0.380 OA
ATOM     23  H   UNL     1     -37.888  23.909   1.369  0.00  0.00    +0.211 HD
ENDBRANCH   9  22
BRANCH  12  24
ATOM     24  O   UNL     1     -31.843  21.230  -1.860  0.00  0.00    -0.384 OA
ATOM     25  H   UNL     1     -31.084  21.783  -1.616  0.00  0.00    +0.210 HD
ENDBRANCH  12  24
BRANCH  19  26
ATOM     26  O   UNL     1     -34.876  18.043  -3.129  0.00  0.00    -0.384 OA
ATOM     27  H   UNL     1     -35.787  18.139  -2.813  0.00  0.00    +0.210 HD
ENDBRANCH  19  26
BRANCH   9  29
ATOM     28  O   UNL     1     -38.379  24.718   4.049  0.00  0.00    -0.291 OA
ATOM     29  C   UNL     1     -37.165  24.858   3.909  0.00  0.00    +0.204 C 
BRANCH  29  30
ATOM     30  C   UNL     1     -36.273  25.369   5.021  0.00  0.00    +0.204 C 
BRANCH  30  31
ATOM     31  O   UNL     1     -36.665  26.668   5.415  0.00  0.00    -0.375 OA
ATOM     32  H   UNL     1     -36.049  27.318   5.039  0.00  0.00    +0.211 HD
ENDBRANCH  30  31
ENDBRANCH  29  30
ENDBRANCH   9  29
TORSDOF 7
ENDMDL
MODEL 9
REMARK VINA RESULT:      -5.7      4.309      6.719
REMARK  Name = 194242
REMARK  7 active torsions:
REMARK  status: ('A' for Active; 'I' for Inactive)
REMARK    1  A    between atoms: C_7  and  O_20
REMARK    2  A    between atoms: C_9  and  O_22
REMARK    3  A    between atoms: C_9  and  C_29
REMARK    4  A    between atoms: C_12  and  O_24
REMARK    5  A    between atoms: C_19  and  O_26
REMARK    6  A    between atoms: C_29  and  C_30
REMARK    7  A    between atoms: C_30  and  O_31
REMARK                            x       y       z     vdW  Elec       q    Type
REMARK                         _______ _______ _______ _____ _____    ______ ____
ROOT
ATOM      1  C   UNL     1     -33.416  26.414   3.728  0.00  0.00    +0.027 C 
ATOM      2  C   UNL     1     -33.535  25.882   2.262  0.00  0.00    +0.005 C 
ATOM      3  C   UNL     1     -34.345  24.576   2.278  0.00  0.00    +0.003 C 
ATOM      4  C   UNL     1     -35.774  24.743   2.841  0.00  0.00    +0.031 C 
ATOM      5  C   UNL     1     -32.494  27.695   3.821  0.00  0.00    +0.005 C 
ATOM      6  C   UNL     1     -31.099  27.305   3.224  0.00  0.00    +0.029 C 
ATOM      7  C   UNL     1     -34.799  26.511   4.442  0.00  0.00    +0.111 C 
ATOM      8  C   UNL     1     -35.647  25.226   4.300  0.00  0.00    +0.032 C 
ATOM      9  C   UNL     1     -36.296  23.293   2.646  0.00  0.00    +0.141 C 
ATOM     10  C   UNL     1     -32.151  25.646   1.639  0.00  0.00    +0.029 C 
ATOM     11  C   UNL     1     -34.565  23.828   0.967  0.00  0.00    +0.003 C 
ATOM     12  C   UNL     1     -31.215  26.848   1.761  0.00  0.00    +0.111 C 
ATOM     13  C   UNL     1     -35.734  22.868   1.270  0.00  0.00    +0.034 C 
ATOM     14  C   UNL     1     -32.283  28.096   5.308  0.00  0.00    +0.003 C 
ATOM     15  C   UNL     1     -30.032  28.406   3.408  0.00  0.00    +0.032 C 
ATOM     16  C   UNL     1     -36.648  25.725   2.012  0.00  0.00    +0.003 C 
ATOM     17  C   UNL     1     -33.103  28.906   3.068  0.00  0.00    +0.000 C 
ATOM     18  C   UNL     1     -31.228  29.190   5.504  0.00  0.00    +0.029 C 
ATOM     19  C   UNL     1     -29.888  28.827   4.871  0.00  0.00    +0.111 C 
ENDROOT
BRANCH   7  20
ATOM     20  O   UNL     1     -35.547  27.625   3.980  0.00  0.00    -0.384 OA
ATOM     21  H   UNL     1     -34.954  28.254   3.540  0.00  0.00    +0.210 HD
ENDBRANCH   7  20
BRANCH   9  22
ATOM     22  O   UNL     1     -35.785  22.423   3.651  0.00  0.00    -0.380 OA
ATOM     23  H   UNL     1     -35.233  21.740   3.239  0.00  0.00    +0.211 HD
ENDBRANCH   9  22
BRANCH  12  24
ATOM     24  O   UNL     1     -29.929  26.460   1.276  0.00  0.00    -0.384 OA
ATOM     25  H   UNL     1     -29.320  26.355   2.024  0.00  0.00    +0.210 HD
ENDBRANCH  12  24
BRANCH  19  26
ATOM     26  O   UNL     1     -29.310  27.760   5.623  0.00  0.00    -0.384 OA
ATOM     27  H   UNL     1     -28.466  28.052   6.001  0.00  0.00    +0.210 HD
ENDBRANCH  19  26
BRANCH   9  29
ATOM     28  O   UNL     1     -38.419  23.749   3.628  0.00  0.00    -0.291 OA
ATOM     29  C   UNL     1     -37.787  23.166   2.749  0.00  0.00    +0.204 C 
BRANCH  29  30
ATOM     30  C   UNL     1     -38.457  22.283   1.717  0.00  0.00    +0.204 C 
BRANCH  30  31
ATOM     31  O   UNL     1     -38.734  21.008   2.258  0.00  0.00    -0.375 OA
ATOM     32  H   UNL     1     -39.347  21.101   3.005  0.00  0.00    +0.211 HD
ENDBRANCH  30  31
ENDBRANCH  29  30
ENDBRANCH   9  29
TORSDOF 7
ENDMDL
