MODEL 1
REMARK VINA RESULT:      -6.9      0.000      0.000
REMARK  Name = 5282138
REMARK  12 active torsions:
REMARK  status: ('A' for Active; 'I' for Inactive)
REMARK    1  A    between atoms: C_2  and  C_10
REMARK    2  A    between atoms: C_3  and  C_20
REMARK    3  A    between atoms: C_4  and  C_27
REMARK    4  A    between atoms: C_13  and  N_18
REMARK    5  A    between atoms: C_20  and  O_21
REMARK    6  A    between atoms: O_21  and  C_22
REMARK    7  A    between atoms: C_22  and  C_23
REMARK    8  A    between atoms: C_23  and  O_24
REMARK    9  A    between atoms: C_27  and  O_28
REMARK   10  A    between atoms: O_28  and  C_29
REMARK   11  A    between atoms: C_29  and  C_30
REMARK   12  A    between atoms: C_31  and  C_32
REMARK                            x       y       z     vdW  Elec       q    Type
REMARK                         _______ _______ _______ _____ _____    ______ ____
ROOT
ATOM      1  N   UNL     1     -35.527  21.380   4.061  0.00  0.00    -0.334 N 
ATOM      2  C   UNL     1     -35.582  23.969   2.911  0.00  0.00    +0.011 C 
ATOM      3  C   UNL     1     -35.458  23.719   4.418  0.00  0.00    +0.071 C 
ATOM      4  C   UNL     1     -35.508  22.681   2.084  0.00  0.00    +0.085 C 
ATOM      5  C   UNL     1     -35.450  22.463   4.922  0.00  0.00    +0.098 C 
ATOM      6  C   UNL     1     -35.512  21.466   2.679  0.00  0.00    +0.028 C 
ATOM      7  C   UNL     1     -35.371  22.111   6.383  0.00  0.00    +0.026 C 
ATOM      8  C   UNL     1     -35.496  20.144   1.961  0.00  0.00    +0.047 C 
ATOM      9  H   UNL     1     -35.598  20.483   4.462  0.00  0.00    +0.147 HD
ENDROOT
BRANCH   2  10
ATOM     10  C   UNL     1     -36.864  24.694   2.617  0.00  0.00    +0.002 C 
ATOM     11  C   UNL     1     -36.827  25.913   1.951  0.00  0.00    +0.024 C 
ATOM     12  C   UNL     1     -38.075  24.136   3.010  0.00  0.00    +0.000 C 
ATOM     13  C   UNL     1     -38.017  26.586   1.677  0.00  0.00    +0.143 C 
ATOM     14  C   UNL     1     -39.265  24.808   2.736  0.00  0.00    +0.002 C 
ATOM     15  C   UNL     1     -39.236  26.034   2.070  0.00  0.00    +0.024 C 
BRANCH  13  18
ATOM     16  O   UNL     1     -36.999  28.587   1.152  0.00  0.00    -0.126 OA
ATOM     17  O   UNL     1     -38.956  28.145   0.260  0.00  0.00    -0.126 OA
ATOM     18  N   UNL     1     -37.989  27.832   0.997  0.00  0.00    +0.058 N 
ENDBRANCH  13  18
ENDBRANCH   2  10
BRANCH   3  20
ATOM     19  O   UNL     1     -36.209  25.493   5.800  0.00  0.00    -0.245 OA
ATOM     20  C   UNL     1     -35.283  24.905   5.271  0.00  0.00    +0.339 C 
BRANCH  20  21
ATOM     21  O   UNL     1     -33.960  25.190   5.343  0.00  0.00    -0.443 OA
BRANCH  21  22
ATOM     22  C   UNL     1     -33.633  26.580   5.260  0.00  0.00    +0.241 C 
BRANCH  22  23
ATOM     23  C   UNL     1     -32.911  26.995   6.529  0.00  0.00    +0.190 C 
BRANCH  23  24
ATOM     24  O   UNL     1     -32.418  28.320   6.370  0.00  0.00    -0.347 OA
ATOM     25  C   UNL     1     -31.860  28.517   5.078  0.00  0.00    +0.174 C 
ENDBRANCH  23  24
ENDBRANCH  22  23
ENDBRANCH  21  22
ENDBRANCH  20  21
ENDBRANCH   3  20
BRANCH   4  27
ATOM     26  O   UNL     1     -36.225  22.452  -0.163  0.00  0.00    -0.245 OA
ATOM     27  C   UNL     1     -35.384  22.840   0.627  0.00  0.00    +0.342 C 
BRANCH  27  28
ATOM     28  O   UNL     1     -34.213  23.468   0.363  0.00  0.00    -0.440 OA
BRANCH  28  29
ATOM     29  C   UNL     1     -33.541  23.029  -0.823  0.00  0.00    +0.235 C 
BRANCH  29  30
ATOM     30  C   UNL     1     -32.468  22.063  -0.437  0.00  0.00    +0.021 C 
ATOM     31  C   UNL     1     -32.670  20.740  -0.335  0.00  0.00    -0.001 C 
BRANCH  31  32
ATOM     32  C   UNL     1     -31.642  19.750   0.027  0.00  0.00    -0.000 C 
ATOM     33  C   UNL     1     -30.354  19.894  -0.467  0.00  0.00    -0.000 C 
ATOM     34  C   UNL     1     -31.980  18.691   0.855  0.00  0.00    -0.000 C 
ATOM     35  C   UNL     1     -29.381  18.956  -0.124  0.00  0.00    -0.000 C 
ATOM     36  C   UNL     1     -31.005  17.753   1.198  0.00  0.00    -0.000 C 
ATOM     37  C   UNL     1     -29.707  17.886   0.708  0.00  0.00    -0.000 C 
ENDBRANCH  31  32
ENDBRANCH  29  30
ENDBRANCH  28  29
ENDBRANCH  27  28
ENDBRANCH   4  27
TORSDOF 12
ENDMDL
MODEL 2
REMARK VINA RESULT:      -6.9      1.603      2.146
REMARK  Name = 5282138
REMARK  12 active torsions:
REMARK  status: ('A' for Active; 'I' for Inactive)
REMARK    1  A    between atoms: C_2  and  C_10
REMARK    2  A    between atoms: C_3  and  C_20
REMARK    3  A    between atoms: C_4  and  C_27
REMARK    4  A    between atoms: C_13  and  N_18
REMARK    5  A    between atoms: C_20  and  O_21
REMARK    6  A    between atoms: O_21  and  C_22
REMARK    7  A    between atoms: C_22  and  C_23
REMARK    8  A    between atoms: C_23  and  O_24
REMARK    9  A    between atoms: C_27  and  O_28
REMARK   10  A    between atoms: O_28  and  C_29
REMARK   11  A    between atoms: C_29  and  C_30
REMARK   12  A    between atoms: C_31  and  C_32
REMARK                            x       y       z     vdW  Elec       q    Type
REMARK                         _______ _______ _______ _____ _____    ______ ____
ROOT
ATOM      1  N   UNL     1     -35.524  21.366   4.036  0.00  0.00    -0.334 N 
ATOM      2  C   UNL     1     -35.397  23.945   2.868  0.00  0.00    +0.011 C 
ATOM      3  C   UNL     1     -35.403  23.705   4.382  0.00  0.00    +0.071 C 
ATOM      4  C   UNL     1     -35.300  22.647   2.059  0.00  0.00    +0.085 C 
ATOM      5  C   UNL     1     -35.479  22.455   4.893  0.00  0.00    +0.098 C 
ATOM      6  C   UNL     1     -35.394  21.439   2.659  0.00  0.00    +0.028 C 
ATOM      7  C   UNL     1     -35.531  22.113   6.358  0.00  0.00    +0.026 C 
ATOM      8  C   UNL     1     -35.364  20.110   1.954  0.00  0.00    +0.047 C 
ATOM      9  H   UNL     1     -35.658  20.476   4.436  0.00  0.00    +0.147 HD
ENDROOT
BRANCH   2  10
ATOM     10  C   UNL     1     -36.624  24.709   2.466  0.00  0.00    +0.002 C 
ATOM     11  C   UNL     1     -37.849  24.055   2.393  0.00  0.00    +0.024 C 
ATOM     12  C   UNL     1     -36.526  26.065   2.174  0.00  0.00    +0.000 C 
ATOM     13  C   UNL     1     -38.990  24.766   2.021  0.00  0.00    +0.143 C 
ATOM     14  C   UNL     1     -37.665  26.775   1.802  0.00  0.00    +0.002 C 
ATOM     15  C   UNL     1     -38.898  26.125   1.725  0.00  0.00    +0.024 C 
BRANCH  13  18
ATOM     16  O   UNL     1     -40.299  22.873   2.173  0.00  0.00    -0.126 OA
ATOM     17  O   UNL     1     -41.265  24.774   1.648  0.00  0.00    -0.126 OA
ATOM     18  N   UNL     1     -40.245  24.106   1.944  0.00  0.00    +0.058 N 
ENDBRANCH  13  18
ENDBRANCH   2  10
BRANCH   3  20
ATOM     19  O   UNL     1     -36.203  25.517   5.684  0.00  0.00    -0.245 OA
ATOM     20  C   UNL     1     -35.257  24.893   5.238  0.00  0.00    +0.339 C 
BRANCH  20  21
ATOM     21  O   UNL     1     -33.936  25.131   5.419  0.00  0.00    -0.443 OA
BRANCH  21  22
ATOM     22  C   UNL     1     -33.579  26.512   5.537  0.00  0.00    +0.241 C 
BRANCH  22  23
ATOM     23  C   UNL     1     -33.273  27.064   4.157  0.00  0.00    +0.190 C 
BRANCH  23  24
ATOM     24  O   UNL     1     -32.412  26.159   3.476  0.00  0.00    -0.347 OA
ATOM     25  C   UNL     1     -32.631  26.190   2.071  0.00  0.00    +0.174 C 
ENDBRANCH  23  24
ENDBRANCH  22  23
ENDBRANCH  21  22
ENDBRANCH  20  21
ENDBRANCH   3  20
BRANCH   4  27
ATOM     26  O   UNL     1     -35.870  22.491  -0.236  0.00  0.00    -0.245 OA
ATOM     27  C   UNL     1     -35.053  22.788   0.615  0.00  0.00    +0.342 C 
BRANCH  27  28
ATOM     28  O   UNL     1     -33.805  23.287   0.441  0.00  0.00    -0.440 OA
BRANCH  28  29
ATOM     29  C   UNL     1     -33.187  22.956  -0.807  0.00  0.00    +0.235 C 
BRANCH  29  30
ATOM     30  C   UNL     1     -32.099  21.963  -0.556  0.00  0.00    +0.021 C 
ATOM     31  C   UNL     1     -32.330  20.697  -0.177  0.00  0.00    -0.001 C 
BRANCH  31  32
ATOM     32  C   UNL     1     -31.292  19.680   0.067  0.00  0.00    -0.000 C 
ATOM     33  C   UNL     1     -31.608  18.550   0.805  0.00  0.00    -0.000 C 
ATOM     34  C   UNL     1     -30.019  19.873  -0.445  0.00  0.00    -0.000 C 
ATOM     35  C   UNL     1     -30.625  17.588   1.036  0.00  0.00    -0.000 C 
ATOM     36  C   UNL     1     -29.035  18.910  -0.213  0.00  0.00    -0.000 C 
ATOM     37  C   UNL     1     -29.339  17.768   0.527  0.00  0.00    -0.000 C 
ENDBRANCH  31  32
ENDBRANCH  29  30
ENDBRANCH  28  29
ENDBRANCH  27  28
ENDBRANCH   4  27
TORSDOF 12
ENDMDL
MODEL 3
REMARK VINA RESULT:      -6.6      2.658      4.514
REMARK  Name = 5282138
REMARK  12 active torsions:
REMARK  status: ('A' for Active; 'I' for Inactive)
REMARK    1  A    between atoms: C_2  and  C_10
REMARK    2  A    between atoms: C_3  and  C_20
REMARK    3  A    between atoms: C_4  and  C_27
REMARK    4  A    between atoms: C_13  and  N_18
REMARK    5  A    between atoms: C_20  and  O_21
REMARK    6  A    between atoms: O_21  and  C_22
REMARK    7  A    between atoms: C_22  and  C_23
REMARK    8  A    between atoms: C_23  and  O_24
REMARK    9  A    between atoms: C_27  and  O_28
REMARK   10  A    between atoms: O_28  and  C_29
REMARK   11  A    between atoms: C_29  and  C_30
REMARK   12  A    between atoms: C_31  and  C_32
REMARK                            x       y       z     vdW  Elec       q    Type
REMARK                         _______ _______ _______ _____ _____    ______ ____
ROOT
ATOM      1  N   UNL     1     -35.397  21.291   4.044  0.00  0.00    -0.334 N 
ATOM      2  C   UNL     1     -35.364  23.825   2.775  0.00  0.00    +0.011 C 
ATOM      3  C   UNL     1     -35.333  23.645   4.297  0.00  0.00    +0.071 C 
ATOM      4  C   UNL     1     -35.248  22.500   2.014  0.00  0.00    +0.085 C 
ATOM      5  C   UNL     1     -35.364  22.413   4.857  0.00  0.00    +0.098 C 
ATOM      6  C   UNL     1     -35.297  21.314   2.662  0.00  0.00    +0.028 C 
ATOM      7  C   UNL     1     -35.377  22.128   6.335  0.00  0.00    +0.026 C 
ATOM      8  C   UNL     1     -35.245  19.960   2.008  0.00  0.00    +0.047 C 
ATOM      9  H   UNL     1     -35.498  20.415   4.480  0.00  0.00    +0.147 HD
ENDROOT
BRANCH   2  10
ATOM     10  C   UNL     1     -36.620  24.541   2.370  0.00  0.00    +0.002 C 
ATOM     11  C   UNL     1     -37.822  23.845   2.321  0.00  0.00    +0.024 C 
ATOM     12  C   UNL     1     -36.569  25.893   2.052  0.00  0.00    +0.000 C 
ATOM     13  C   UNL     1     -38.990  24.510   1.947  0.00  0.00    +0.143 C 
ATOM     14  C   UNL     1     -37.735  26.558   1.678  0.00  0.00    +0.002 C 
ATOM     15  C   UNL     1     -38.946  25.866   1.624  0.00  0.00    +0.024 C 
BRANCH  13  18
ATOM     16  O   UNL     1     -41.256  24.420   1.533  0.00  0.00    -0.126 OA
ATOM     17  O   UNL     1     -40.244  22.592   2.207  0.00  0.00    -0.126 OA
ATOM     18  N   UNL     1     -40.222  23.807   1.893  0.00  0.00    +0.058 N 
ENDBRANCH  13  18
ENDBRANCH   2  10
BRANCH   3  20
ATOM     19  O   UNL     1     -36.146  25.422   5.639  0.00  0.00    -0.245 OA
ATOM     20  C   UNL     1     -35.202  24.868   5.104  0.00  0.00    +0.339 C 
BRANCH  20  21
ATOM     21  O   UNL     1     -33.896  25.227   5.129  0.00  0.00    -0.443 OA
BRANCH  21  22
ATOM     22  C   UNL     1     -33.655  26.631   5.259  0.00  0.00    +0.241 C 
BRANCH  22  23
ATOM     23  C   UNL     1     -33.021  26.902   6.611  0.00  0.00    +0.190 C 
BRANCH  23  24
ATOM     24  O   UNL     1     -31.738  27.482   6.414  0.00  0.00    -0.347 OA
ATOM     25  C   UNL     1     -31.758  28.884   6.649  0.00  0.00    +0.174 C 
ENDBRANCH  23  24
ENDBRANCH  22  23
ENDBRANCH  21  22
ENDBRANCH  20  21
ENDBRANCH   3  20
BRANCH   4  27
ATOM     26  O   UNL     1     -35.900  22.348  -0.259  0.00  0.00    -0.245 OA
ATOM     27  C   UNL     1     -35.034  22.592   0.561  0.00  0.00    +0.342 C 
BRANCH  27  28
ATOM     28  O   UNL     1     -33.755  22.979   0.340  0.00  0.00    -0.440 OA
BRANCH  28  29
ATOM     29  C   UNL     1     -33.588  23.971  -0.678  0.00  0.00    +0.235 C 
BRANCH  29  30
ATOM     30  C   UNL     1     -33.406  25.303  -0.025  0.00  0.00    +0.021 C 
ATOM     31  C   UNL     1     -32.612  25.499   1.040  0.00  0.00    -0.001 C 
BRANCH  31  32
ATOM     32  C   UNL     1     -32.391  26.794   1.707  0.00  0.00    -0.000 C 
ATOM     33  C   UNL     1     -33.360  27.781   1.615  0.00  0.00    -0.000 C 
ATOM     34  C   UNL     1     -31.217  27.001   2.415  0.00  0.00    -0.000 C 
ATOM     35  C   UNL     1     -33.150  29.006   2.246  0.00  0.00    -0.000 C 
ATOM     36  C   UNL     1     -31.008  28.228   3.047  0.00  0.00    -0.000 C 
ATOM     37  C   UNL     1     -31.974  29.229   2.962  0.00  0.00    -0.000 C 
ENDBRANCH  31  32
ENDBRANCH  29  30
ENDBRANCH  28  29
ENDBRANCH  27  28
ENDBRANCH   4  27
TORSDOF 12
ENDMDL
MODEL 4
REMARK VINA RESULT:      -6.4      2.629      4.856
REMARK  Name = 5282138
REMARK  12 active torsions:
REMARK  status: ('A' for Active; 'I' for Inactive)
REMARK    1  A    between atoms: C_2  and  C_10
REMARK    2  A    between atoms: C_3  and  C_20
REMARK    3  A    between atoms: C_4  and  C_27
REMARK    4  A    between atoms: C_13  and  N_18
REMARK    5  A    between atoms: C_20  and  O_21
REMARK    6  A    between atoms: O_21  and  C_22
REMARK    7  A    between atoms: C_22  and  C_23
REMARK    8  A    between atoms: C_23  and  O_24
REMARK    9  A    between atoms: C_27  and  O_28
REMARK   10  A    between atoms: O_28  and  C_29
REMARK   11  A    between atoms: C_29  and  C_30
REMARK   12  A    between atoms: C_31  and  C_32
REMARK                            x       y       z     vdW  Elec       q    Type
REMARK                         _______ _______ _______ _____ _____    ______ ____
ROOT
ATOM      1  N   UNL     1     -35.476  21.366   4.056  0.00  0.00    -0.334 N 
ATOM      2  C   UNL     1     -35.380  23.943   2.882  0.00  0.00    +0.011 C 
ATOM      3  C   UNL     1     -35.422  23.708   4.396  0.00  0.00    +0.071 C 
ATOM      4  C   UNL     1     -35.228  22.645   2.081  0.00  0.00    +0.085 C 
ATOM      5  C   UNL     1     -35.482  22.458   4.910  0.00  0.00    +0.098 C 
ATOM      6  C   UNL     1     -35.309  21.437   2.683  0.00  0.00    +0.028 C 
ATOM      7  C   UNL     1     -35.566  22.120   6.374  0.00  0.00    +0.026 C 
ATOM      8  C   UNL     1     -35.227  20.107   1.984  0.00  0.00    +0.047 C 
ATOM      9  H   UNL     1     -35.599  20.474   4.456  0.00  0.00    +0.147 HD
ENDROOT
BRANCH   2  10
ATOM     10  C   UNL     1     -36.614  24.675   2.442  0.00  0.00    +0.002 C 
ATOM     11  C   UNL     1     -37.826  23.999   2.372  0.00  0.00    +0.024 C 
ATOM     12  C   UNL     1     -36.533  26.023   2.113  0.00  0.00    +0.000 C 
ATOM     13  C   UNL     1     -38.974  24.680   1.965  0.00  0.00    +0.143 C 
ATOM     14  C   UNL     1     -37.679  26.704   1.707  0.00  0.00    +0.002 C 
ATOM     15  C   UNL     1     -38.900  26.032   1.632  0.00  0.00    +0.024 C 
BRANCH  13  18
ATOM     16  O   UNL     1     -40.253  22.770   2.146  0.00  0.00    -0.126 OA
ATOM     17  O   UNL     1     -41.245  24.641   1.568  0.00  0.00    -0.126 OA
ATOM     18  N   UNL     1     -40.217  23.997   1.889  0.00  0.00    +0.058 N 
ENDBRANCH  13  18
ENDBRANCH   2  10
BRANCH   3  20
ATOM     19  O   UNL     1     -36.303  25.500   5.673  0.00  0.00    -0.245 OA
ATOM     20  C   UNL     1     -35.330  24.902   5.251  0.00  0.00    +0.339 C 
BRANCH  20  21
ATOM     21  O   UNL     1     -34.020  25.179   5.460  0.00  0.00    -0.443 OA
BRANCH  21  22
ATOM     22  C   UNL     1     -33.685  26.570   5.452  0.00  0.00    +0.241 C 
BRANCH  22  23
ATOM     23  C   UNL     1     -32.931  26.905   6.725  0.00  0.00    +0.190 C 
BRANCH  23  24
ATOM     24  O   UNL     1     -31.673  27.474   6.384  0.00  0.00    -0.347 OA
ATOM     25  C   UNL     1     -31.781  28.872   6.147  0.00  0.00    +0.174 C 
ENDBRANCH  23  24
ENDBRANCH  22  23
ENDBRANCH  21  22
ENDBRANCH  20  21
ENDBRANCH   3  20
BRANCH   4  27
ATOM     26  O   UNL     1     -35.785  22.633  -0.223  0.00  0.00    -0.245 OA
ATOM     27  C   UNL     1     -34.944  22.788   0.644  0.00  0.00    +0.342 C 
BRANCH  27  28
ATOM     28  O   UNL     1     -33.636  23.106   0.495  0.00  0.00    -0.440 OA
BRANCH  28  29
ATOM     29  C   UNL     1     -33.343  23.975  -0.604  0.00  0.00    +0.235 C 
BRANCH  29  30
ATOM     30  C   UNL     1     -33.749  25.365  -0.239  0.00  0.00    +0.021 C 
ATOM     31  C   UNL     1     -33.082  26.119   0.649  0.00  0.00    -0.001 C 
BRANCH  31  32
ATOM     32  C   UNL     1     -33.436  27.497   1.028  0.00  0.00    -0.000 C 
ATOM     33  C   UNL     1     -32.919  28.035   2.197  0.00  0.00    -0.000 C 
ATOM     34  C   UNL     1     -34.279  28.232   0.209  0.00  0.00    -0.000 C 
ATOM     35  C   UNL     1     -33.255  29.340   2.556  0.00  0.00    -0.000 C 
ATOM     36  C   UNL     1     -34.614  29.538   0.569  0.00  0.00    -0.000 C 
ATOM     37  C   UNL     1     -34.102  30.091   1.742  0.00  0.00    -0.000 C 
ENDBRANCH  31  32
ENDBRANCH  29  30
ENDBRANCH  28  29
ENDBRANCH  27  28
ENDBRANCH   4  27
TORSDOF 12
ENDMDL
MODEL 5
REMARK VINA RESULT:      -6.3      2.420      6.039
REMARK  Name = 5282138
REMARK  12 active torsions:
REMARK  status: ('A' for Active; 'I' for Inactive)
REMARK    1  A    between atoms: C_2  and  C_10
REMARK    2  A    between atoms: C_3  and  C_20
REMARK    3  A    between atoms: C_4  and  C_27
REMARK    4  A    between atoms: C_13  and  N_18
REMARK    5  A    between atoms: C_20  and  O_21
REMARK    6  A    between atoms: O_21  and  C_22
REMARK    7  A    between atoms: C_22  and  C_23
REMARK    8  A    between atoms: C_23  and  O_24
REMARK    9  A    between atoms: C_27  and  O_28
REMARK   10  A    between atoms: O_28  and  C_29
REMARK   11  A    between atoms: C_29  and  C_30
REMARK   12  A    between atoms: C_31  and  C_32
REMARK                            x       y       z     vdW  Elec       q    Type
REMARK                         _______ _______ _______ _____ _____    ______ ____
ROOT
ATOM      1  N   UNL     1     -38.053  27.169   0.690  0.00  0.00    -0.334 N 
ATOM      2  C   UNL     1     -37.064  24.740   1.764  0.00  0.00    +0.011 C 
ATOM      3  C   UNL     1     -38.544  25.137   1.801  0.00  0.00    +0.071 C 
ATOM      4  C   UNL     1     -36.206  25.711   0.945  0.00  0.00    +0.085 C 
ATOM      5  C   UNL     1     -38.967  26.315   1.287  0.00  0.00    +0.098 C 
ATOM      6  C   UNL     1     -36.717  26.873   0.476  0.00  0.00    +0.028 C 
ATOM      7  C   UNL     1     -40.386  26.815   1.307  0.00  0.00    +0.026 C 
ATOM      8  C   UNL     1     -35.951  27.916  -0.291  0.00  0.00    +0.047 C 
ATOM      9  H   UNL     1     -38.378  28.051   0.396  0.00  0.00    +0.147 HD
ENDROOT
BRANCH   2  10
ATOM     10  C   UNL     1     -36.526  24.636   3.162  0.00  0.00    +0.002 C 
ATOM     11  C   UNL     1     -36.164  23.394   3.668  0.00  0.00    +0.024 C 
ATOM     12  C   UNL     1     -36.394  25.784   3.935  0.00  0.00    +0.000 C 
ATOM     13  C   UNL     1     -35.663  23.297   4.966  0.00  0.00    +0.143 C 
ATOM     14  C   UNL     1     -35.894  25.688   5.232  0.00  0.00    +0.002 C 
ATOM     15  C   UNL     1     -35.529  24.444   5.749  0.00  0.00    +0.024 C 
BRANCH  13  18
ATOM     16  O   UNL     1     -35.140  21.910   6.732  0.00  0.00    -0.126 OA
ATOM     17  O   UNL     1     -35.122  21.071   4.703  0.00  0.00    -0.126 OA
ATOM     18  N   UNL     1     -35.290  22.032   5.493  0.00  0.00    +0.058 N 
ENDBRANCH  13  18
ENDBRANCH   2  10
BRANCH   3  20
ATOM     19  O   UNL     1     -39.866  24.172   3.516  0.00  0.00    -0.245 OA
ATOM     20  C   UNL     1     -39.478  24.147   2.362  0.00  0.00    +0.339 C 
BRANCH  20  21
ATOM     21  O   UNL     1     -39.797  23.260   1.389  0.00  0.00    -0.443 OA
BRANCH  21  22
ATOM     22  C   UNL     1     -39.613  21.885   1.737  0.00  0.00    +0.241 C 
BRANCH  22  23
ATOM     23  C   UNL     1     -39.716  21.039   0.481  0.00  0.00    +0.190 C 
BRANCH  23  24
ATOM     24  O   UNL     1     -41.071  20.649   0.294  0.00  0.00    -0.347 OA
ATOM     25  C   UNL     1     -41.586  21.133  -0.940  0.00  0.00    +0.174 C 
ENDBRANCH  23  24
ENDBRANCH  22  23
ENDBRANCH  21  22
ENDBRANCH  20  21
ENDBRANCH   3  20
BRANCH   4  27
ATOM     26  O   UNL     1     -33.851  25.780   1.196  0.00  0.00    -0.245 OA
ATOM     27  C   UNL     1     -34.826  25.289   0.658  0.00  0.00    +0.342 C 
BRANCH  27  28
ATOM     28  O   UNL     1     -34.863  24.304  -0.271  0.00  0.00    -0.440 OA
BRANCH  28  29
ATOM     29  C   UNL     1     -33.658  24.131  -1.023  0.00  0.00    +0.235 C 
BRANCH  29  30
ATOM     30  C   UNL     1     -32.969  22.892  -0.548  0.00  0.00    +0.021 C 
ATOM     31  C   UNL     1     -33.625  21.777  -0.189  0.00  0.00    -0.001 C 
BRANCH  31  32
ATOM     32  C   UNL     1     -32.990  20.530   0.270  0.00  0.00    -0.000 C 
ATOM     33  C   UNL     1     -31.683  20.254  -0.104  0.00  0.00    -0.000 C 
ATOM     34  C   UNL     1     -33.710  19.655   1.068  0.00  0.00    -0.000 C 
ATOM     35  C   UNL     1     -31.083  19.073   0.331  0.00  0.00    -0.000 C 
ATOM     36  C   UNL     1     -33.108  18.473   1.503  0.00  0.00    -0.000 C 
ATOM     37  C   UNL     1     -31.795  18.183   1.134  0.00  0.00    -0.000 C 
ENDBRANCH  31  32
ENDBRANCH  29  30
ENDBRANCH  28  29
ENDBRANCH  27  28
ENDBRANCH   4  27
TORSDOF 12
ENDMDL
MODEL 6
REMARK VINA RESULT:      -6.3      2.504      3.814
REMARK  Name = 5282138
REMARK  12 active torsions:
REMARK  status: ('A' for Active; 'I' for Inactive)
REMARK    1  A    between atoms: C_2  and  C_10
REMARK    2  A    between atoms: C_3  and  C_20
REMARK    3  A    between atoms: C_4  and  C_27
REMARK    4  A    between atoms: C_13  and  N_18
REMARK    5  A    between atoms: C_20  and  O_21
REMARK    6  A    between atoms: O_21  and  C_22
REMARK    7  A    between atoms: C_22  and  C_23
REMARK    8  A    between atoms: C_23  and  O_24
REMARK    9  A    between atoms: C_27  and  O_28
REMARK   10  A    between atoms: O_28  and  C_29
REMARK   11  A    between atoms: C_29  and  C_30
REMARK   12  A    between atoms: C_31  and  C_32
REMARK                            x       y       z     vdW  Elec       q    Type
REMARK                         _______ _______ _______ _____ _____    ______ ____
ROOT
ATOM      1  N   UNL     1     -35.527  21.343   4.041  0.00  0.00    -0.334 N 
ATOM      2  C   UNL     1     -35.748  23.882   2.803  0.00  0.00    +0.011 C 
ATOM      3  C   UNL     1     -35.552  23.694   4.311  0.00  0.00    +0.071 C 
ATOM      4  C   UNL     1     -35.647  22.568   2.020  0.00  0.00    +0.085 C 
ATOM      5  C   UNL     1     -35.465  22.460   4.858  0.00  0.00    +0.098 C 
ATOM      6  C   UNL     1     -35.571  21.378   2.656  0.00  0.00    +0.028 C 
ATOM      7  C   UNL     1     -35.312  22.166   6.326  0.00  0.00    +0.026 C 
ATOM      8  C   UNL     1     -35.521  20.032   1.986  0.00  0.00    +0.047 C 
ATOM      9  H   UNL     1     -35.539  20.459   4.476  0.00  0.00    +0.147 HD
ENDROOT
BRANCH   2  10
ATOM     10  C   UNL     1     -37.073  24.536   2.536  0.00  0.00    +0.002 C 
ATOM     11  C   UNL     1     -37.118  25.741   1.845  0.00  0.00    +0.024 C 
ATOM     12  C   UNL     1     -38.241  23.929   2.981  0.00  0.00    +0.000 C 
ATOM     13  C   UNL     1     -38.348  26.349   1.596  0.00  0.00    +0.143 C 
ATOM     14  C   UNL     1     -39.471  24.536   2.733  0.00  0.00    +0.002 C 
ATOM     15  C   UNL     1     -39.525  25.746   2.041  0.00  0.00    +0.024 C 
BRANCH  13  18
ATOM     16  O   UNL     1     -37.390  28.318   0.874  0.00  0.00    -0.126 OA
ATOM     17  O   UNL     1     -39.467  27.896   0.303  0.00  0.00    -0.126 OA
ATOM     18  N   UNL     1     -38.404  27.580   0.891  0.00  0.00    +0.058 N 
ENDBRANCH  13  18
ENDBRANCH   2  10
BRANCH   3  20
ATOM     19  O   UNL     1     -36.340  25.541   5.572  0.00  0.00    -0.245 OA
ATOM     20  C   UNL     1     -35.399  24.918   5.113  0.00  0.00    +0.339 C 
BRANCH  20  21
ATOM     21  O   UNL     1     -34.077  25.191   5.231  0.00  0.00    -0.443 OA
BRANCH  21  22
ATOM     22  C   UNL     1     -33.763  26.554   5.530  0.00  0.00    +0.241 C 
BRANCH  22  23
ATOM     23  C   UNL     1     -33.033  27.165   4.348  0.00  0.00    +0.190 C 
BRANCH  23  24
ATOM     24  O   UNL     1     -33.647  28.403   4.013  0.00  0.00    -0.347 OA
ATOM     25  C   UNL     1     -34.711  28.223   3.088  0.00  0.00    +0.174 C 
ENDBRANCH  23  24
ENDBRANCH  22  23
ENDBRANCH  21  22
ENDBRANCH  20  21
ENDBRANCH   3  20
BRANCH   4  27
ATOM     26  O   UNL     1     -34.600  23.054  -0.050  0.00  0.00    -0.245 OA
ATOM     27  C   UNL     1     -35.588  22.678   0.553  0.00  0.00    +0.342 C 
BRANCH  27  28
ATOM     28  O   UNL     1     -36.786  22.299   0.047  0.00  0.00    -0.440 OA
BRANCH  28  29
ATOM     29  C   UNL     1     -36.758  21.852  -1.312  0.00  0.00    +0.235 C 
BRANCH  29  30
ATOM     30  C   UNL     1     -36.987  20.376  -1.337  0.00  0.00    +0.021 C 
ATOM     31  C   UNL     1     -38.033  19.783  -0.741  0.00  0.00    -0.001 C 
BRANCH  31  32
ATOM     32  C   UNL     1     -38.308  18.336  -0.752  0.00  0.00    -0.000 C 
ATOM     33  C   UNL     1     -39.444  17.864  -1.392  0.00  0.00    -0.000 C 
ATOM     34  C   UNL     1     -37.426  17.472  -0.121  0.00  0.00    -0.000 C 
ATOM     35  C   UNL     1     -39.704  16.494  -1.401  0.00  0.00    -0.000 C 
ATOM     36  C   UNL     1     -37.687  16.101  -0.131  0.00  0.00    -0.000 C 
ATOM     37  C   UNL     1     -38.825  15.613  -0.771  0.00  0.00    -0.000 C 
ENDBRANCH  31  32
ENDBRANCH  29  30
ENDBRANCH  28  29
ENDBRANCH  27  28
ENDBRANCH   4  27
TORSDOF 12
ENDMDL
MODEL 7
REMARK VINA RESULT:      -6.3      2.027      2.778
REMARK  Name = 5282138
REMARK  12 active torsions:
REMARK  status: ('A' for Active; 'I' for Inactive)
REMARK    1  A    between atoms: C_2  and  C_10
REMARK    2  A    between atoms: C_3  and  C_20
REMARK    3  A    between atoms: C_4  and  C_27
REMARK    4  A    between atoms: C_13  and  N_18
REMARK    5  A    between atoms: C_20  and  O_21
REMARK    6  A    between atoms: O_21  and  C_22
REMARK    7  A    between atoms: C_22  and  C_23
REMARK    8  A    between atoms: C_23  and  O_24
REMARK    9  A    between atoms: C_27  and  O_28
REMARK   10  A    between atoms: O_28  and  C_29
REMARK   11  A    between atoms: C_29  and  C_30
REMARK   12  A    between atoms: C_31  and  C_32
REMARK                            x       y       z     vdW  Elec       q    Type
REMARK                         _______ _______ _______ _____ _____    ______ ____
ROOT
ATOM      1  N   UNL     1     -34.762  24.226   5.676  0.00  0.00    -0.334 N 
ATOM      2  C   UNL     1     -35.346  24.622   2.932  0.00  0.00    +0.011 C 
ATOM      3  C   UNL     1     -34.607  25.652   3.793  0.00  0.00    +0.071 C 
ATOM      4  C   UNL     1     -35.588  23.297   3.662  0.00  0.00    +0.085 C 
ATOM      5  C   UNL     1     -34.363  25.423   5.104  0.00  0.00    +0.098 C 
ATOM      6  C   UNL     1     -35.319  23.164   4.981  0.00  0.00    +0.028 C 
ATOM      7  C   UNL     1     -33.682  26.381   6.044  0.00  0.00    +0.026 C 
ATOM      8  C   UNL     1     -35.568  21.929   5.802  0.00  0.00    +0.047 C 
ATOM      9  H   UNL     1     -34.641  24.121   6.648  0.00  0.00    +0.147 HD
ENDROOT
BRANCH   2  10
ATOM     10  C   UNL     1     -36.652  25.192   2.459  0.00  0.00    +0.002 C 
ATOM     11  C   UNL     1     -36.842  25.447   1.106  0.00  0.00    +0.024 C 
ATOM     12  C   UNL     1     -37.660  25.457   3.379  0.00  0.00    +0.000 C 
ATOM     13  C   UNL     1     -38.055  25.976   0.667  0.00  0.00    +0.143 C 
ATOM     14  C   UNL     1     -38.873  25.985   2.941  0.00  0.00    +0.002 C 
ATOM     15  C   UNL     1     -39.071  26.246   1.585  0.00  0.00    +0.024 C 
BRANCH  13  18
ATOM     16  O   UNL     1     -37.296  26.101  -1.507  0.00  0.00    -0.126 OA
ATOM     17  O   UNL     1     -39.394  26.605  -1.102  0.00  0.00    -0.126 OA
ATOM     18  N   UNL     1     -38.258  26.240  -0.713  0.00  0.00    +0.058 N 
ENDBRANCH  13  18
ENDBRANCH   2  10
BRANCH   3  20
ATOM     19  O   UNL     1     -33.144  26.876   2.386  0.00  0.00    -0.245 OA
ATOM     20  C   UNL     1     -34.125  26.861   3.107  0.00  0.00    +0.339 C 
BRANCH  20  21
ATOM     21  O   UNL     1     -34.949  27.890   3.421  0.00  0.00    -0.443 OA
BRANCH  21  22
ATOM     22  C   UNL     1     -35.351  28.705   2.316  0.00  0.00    +0.241 C 
BRANCH  22  23
ATOM     23  C   UNL     1     -35.112  30.162   2.664  0.00  0.00    +0.190 C 
BRANCH  23  24
ATOM     24  O   UNL     1     -34.306  30.234   3.834  0.00  0.00    -0.347 OA
ATOM     25  C   UNL     1     -32.989  30.675   3.533  0.00  0.00    +0.174 C 
ENDBRANCH  23  24
ENDBRANCH  22  23
ENDBRANCH  21  22
ENDBRANCH  20  21
ENDBRANCH   3  20
BRANCH   4  27
ATOM     26  O   UNL     1     -37.258  21.901   2.724  0.00  0.00    -0.245 OA
ATOM     27  C   UNL     1     -36.078  22.174   2.846  0.00  0.00    +0.342 C 
BRANCH  27  28
ATOM     28  O   UNL     1     -35.011  21.549   2.293  0.00  0.00    -0.440 OA
BRANCH  28  29
ATOM     29  C   UNL     1     -35.279  20.249   1.756  0.00  0.00    +0.235 C 
BRANCH  29  30
ATOM     30  C   UNL     1     -33.979  19.558   1.501  0.00  0.00    +0.021 C 
ATOM     31  C   UNL     1     -33.012  20.072   0.724  0.00  0.00    -0.001 C 
BRANCH  31  32
ATOM     32  C   UNL     1     -31.711  19.435   0.455  0.00  0.00    -0.000 C 
ATOM     33  C   UNL     1     -30.791  20.083  -0.355  0.00  0.00    -0.000 C 
ATOM     34  C   UNL     1     -31.430  18.200   1.018  0.00  0.00    -0.000 C 
ATOM     35  C   UNL     1     -29.560  19.480  -0.609  0.00  0.00    -0.000 C 
ATOM     36  C   UNL     1     -30.197  17.597   0.764  0.00  0.00    -0.000 C 
ATOM     37  C   UNL     1     -29.263  18.238  -0.050  0.00  0.00    -0.000 C 
ENDBRANCH  31  32
ENDBRANCH  29  30
ENDBRANCH  28  29
ENDBRANCH  27  28
ENDBRANCH   4  27
TORSDOF 12
ENDMDL
MODEL 8
REMARK VINA RESULT:      -6.3      2.490      5.597
REMARK  Name = 5282138
REMARK  12 active torsions:
REMARK  status: ('A' for Active; 'I' for Inactive)
REMARK    1  A    between atoms: C_2  and  C_10
REMARK    2  A    between atoms: C_3  and  C_20
REMARK    3  A    between atoms: C_4  and  C_27
REMARK    4  A    between atoms: C_13  and  N_18
REMARK    5  A    between atoms: C_20  and  O_21
REMARK    6  A    between atoms: O_21  and  C_22
REMARK    7  A    between atoms: C_22  and  C_23
REMARK    8  A    between atoms: C_23  and  O_24
REMARK    9  A    between atoms: C_27  and  O_28
REMARK   10  A    between atoms: O_28  and  C_29
REMARK   11  A    between atoms: C_29  and  C_30
REMARK   12  A    between atoms: C_31  and  C_32
REMARK                            x       y       z     vdW  Elec       q    Type
REMARK                         _______ _______ _______ _____ _____    ______ ____
ROOT
ATOM      1  N   UNL     1     -35.562  21.377   4.144  0.00  0.00    -0.334 N 
ATOM      2  C   UNL     1     -35.397  23.946   2.960  0.00  0.00    +0.011 C 
ATOM      3  C   UNL     1     -35.304  23.708   4.471  0.00  0.00    +0.071 C 
ATOM      4  C   UNL     1     -35.423  22.645   2.151  0.00  0.00    +0.085 C 
ATOM      5  C   UNL     1     -35.402  22.463   4.991  0.00  0.00    +0.098 C 
ATOM      6  C   UNL     1     -35.531  21.443   2.761  0.00  0.00    +0.028 C 
ATOM      7  C   UNL     1     -35.362  22.125   6.457  0.00  0.00    +0.026 C 
ATOM      8  C   UNL     1     -35.618  20.114   2.060  0.00  0.00    +0.047 C 
ATOM      9  H   UNL     1     -35.709  20.495   4.556  0.00  0.00    +0.147 HD
ENDROOT
BRANCH   2  10
ATOM     10  C   UNL     1     -36.613  24.769   2.646  0.00  0.00    +0.002 C 
ATOM     11  C   UNL     1     -36.469  25.985   1.988  0.00  0.00    +0.024 C 
ATOM     12  C   UNL     1     -37.871  24.306   3.014  0.00  0.00    +0.000 C 
ATOM     13  C   UNL     1     -37.598  26.749   1.695  0.00  0.00    +0.143 C 
ATOM     14  C   UNL     1     -39.000  25.069   2.722  0.00  0.00    +0.002 C 
ATOM     15  C   UNL     1     -38.864  26.292   2.063  0.00  0.00    +0.024 C 
BRANCH  13  18
ATOM     16  O   UNL     1     -38.117  28.192  -0.028  0.00  0.00    -0.126 OA
ATOM     17  O   UNL     1     -36.687  28.859   1.499  0.00  0.00    -0.126 OA
ATOM     18  N   UNL     1     -37.461  27.993   1.023  0.00  0.00    +0.058 N 
ENDBRANCH  13  18
ENDBRANCH   2  10
BRANCH   3  20
ATOM     19  O   UNL     1     -35.891  25.437   5.982  0.00  0.00    -0.245 OA
ATOM     20  C   UNL     1     -35.038  24.887   5.309  0.00  0.00    +0.339 C 
BRANCH  20  21
ATOM     21  O   UNL     1     -33.728  25.214   5.187  0.00  0.00    -0.443 OA
BRANCH  21  22
ATOM     22  C   UNL     1     -33.434  26.606   5.334  0.00  0.00    +0.241 C 
BRANCH  22  23
ATOM     23  C   UNL     1     -33.483  27.268   3.969  0.00  0.00    +0.190 C 
BRANCH  23  24
ATOM     24  O   UNL     1     -33.318  28.672   4.129  0.00  0.00    -0.347 OA
ATOM     25  C   UNL     1     -32.083  28.983   4.760  0.00  0.00    +0.174 C 
ENDBRANCH  23  24
ENDBRANCH  22  23
ENDBRANCH  21  22
ENDBRANCH  20  21
ENDBRANCH   3  20
BRANCH   4  27
ATOM     26  O   UNL     1     -34.225  23.057   0.148  0.00  0.00    -0.245 OA
ATOM     27  C   UNL     1     -35.276  22.774   0.692  0.00  0.00    +0.342 C 
BRANCH  27  28
ATOM     28  O   UNL     1     -36.478  22.527   0.117  0.00  0.00    -0.440 OA
BRANCH  28  29
ATOM     29  C   UNL     1     -36.725  23.234  -1.103  0.00  0.00    +0.235 C 
BRANCH  29  30
ATOM     30  C   UNL     1     -37.921  24.111  -0.916  0.00  0.00    +0.021 C 
ATOM     31  C   UNL     1     -39.167  23.635  -0.772  0.00  0.00    -0.001 C 
BRANCH  31  32
ATOM     32  C   UNL     1     -40.372  24.458  -0.571  0.00  0.00    -0.000 C 
ATOM     33  C   UNL     1     -41.405  23.971   0.214  0.00  0.00    -0.000 C 
ATOM     34  C   UNL     1     -40.450  25.706  -1.171  0.00  0.00    -0.000 C 
ATOM     35  C   UNL     1     -42.546  24.751   0.404  0.00  0.00    -0.000 C 
ATOM     36  C   UNL     1     -41.592  26.486  -0.981  0.00  0.00    -0.000 C 
ATOM     37  C   UNL     1     -42.639  26.008  -0.193  0.00  0.00    -0.000 C 
ENDBRANCH  31  32
ENDBRANCH  29  30
ENDBRANCH  28  29
ENDBRANCH  27  28
ENDBRANCH   4  27
TORSDOF 12
ENDMDL
MODEL 9
REMARK VINA RESULT:      -6.3      2.218      4.043
REMARK  Name = 5282138
REMARK  12 active torsions:
REMARK  status: ('A' for Active; 'I' for Inactive)
REMARK    1  A    between atoms: C_2  and  C_10
REMARK    2  A    between atoms: C_3  and  C_20
REMARK    3  A    between atoms: C_4  and  C_27
REMARK    4  A    between atoms: C_13  and  N_18
REMARK    5  A    between atoms: C_20  and  O_21
REMARK    6  A    between atoms: O_21  and  C_22
REMARK    7  A    between atoms: C_22  and  C_23
REMARK    8  A    between atoms: C_23  and  O_24
REMARK    9  A    between atoms: C_27  and  O_28
REMARK   10  A    between atoms: O_28  and  C_29
REMARK   11  A    between atoms: C_29  and  C_30
REMARK   12  A    between atoms: C_31  and  C_32
REMARK                            x       y       z     vdW  Elec       q    Type
REMARK                         _______ _______ _______ _____ _____    ______ ____
ROOT
ATOM      1  N   UNL     1     -35.500  21.321   4.036  0.00  0.00    -0.334 N 
ATOM      2  C   UNL     1     -35.387  23.903   2.874  0.00  0.00    +0.011 C 
ATOM      3  C   UNL     1     -35.373  23.658   4.387  0.00  0.00    +0.071 C 
ATOM      4  C   UNL     1     -35.302  22.608   2.059  0.00  0.00    +0.085 C 
ATOM      5  C   UNL     1     -35.443  22.406   4.895  0.00  0.00    +0.098 C 
ATOM      6  C   UNL     1     -35.389  21.398   2.657  0.00  0.00    +0.028 C 
ATOM      7  C   UNL     1     -35.475  22.060   6.359  0.00  0.00    +0.026 C 
ATOM      8  C   UNL     1     -35.370  20.072   1.947  0.00  0.00    +0.047 C 
ATOM      9  H   UNL     1     -35.629  20.430   4.434  0.00  0.00    +0.147 HD
ENDROOT
BRANCH   2  10
ATOM     10  C   UNL     1     -36.620  24.670   2.491  0.00  0.00    +0.002 C 
ATOM     11  C   UNL     1     -36.498  25.958   1.985  0.00  0.00    +0.024 C 
ATOM     12  C   UNL     1     -37.870  24.082   2.644  0.00  0.00    +0.000 C 
ATOM     13  C   UNL     1     -37.643  26.670   1.628  0.00  0.00    +0.143 C 
ATOM     14  C   UNL     1     -39.014  24.793   2.288  0.00  0.00    +0.002 C 
ATOM     15  C   UNL     1     -38.901  26.088   1.780  0.00  0.00    +0.024 C 
BRANCH  13  18
ATOM     16  O   UNL     1     -38.420  28.417   0.338  0.00  0.00    -0.126 OA
ATOM     17  O   UNL     1     -36.539  28.686   1.438  0.00  0.00    -0.126 OA
ATOM     18  N   UNL     1     -37.529  27.987   1.110  0.00  0.00    +0.058 N 
ENDBRANCH  13  18
ENDBRANCH   2  10
BRANCH   3  20
ATOM     19  O   UNL     1     -36.153  25.452   5.727  0.00  0.00    -0.245 OA
ATOM     20  C   UNL     1     -35.215  24.843   5.245  0.00  0.00    +0.339 C 
BRANCH  20  21
ATOM     21  O   UNL     1     -33.891  25.099   5.383  0.00  0.00    -0.443 OA
BRANCH  21  22
ATOM     22  C   UNL     1     -33.573  26.413   5.852  0.00  0.00    +0.241 C 
BRANCH  22  23
ATOM     23  C   UNL     1     -33.267  27.303   4.663  0.00  0.00    +0.190 C 
BRANCH  23  24
ATOM     24  O   UNL     1     -32.827  28.571   5.133  0.00  0.00    -0.347 OA
ATOM     25  C   UNL     1     -31.718  28.445   6.013  0.00  0.00    +0.174 C 
ENDBRANCH  23  24
ENDBRANCH  22  23
ENDBRANCH  21  22
ENDBRANCH  20  21
ENDBRANCH   3  20
BRANCH   4  27
ATOM     26  O   UNL     1     -35.975  22.824  -0.203  0.00  0.00    -0.245 OA
ATOM     27  C   UNL     1     -35.074  22.754   0.613  0.00  0.00    +0.342 C 
BRANCH  27  28
ATOM     28  O   UNL     1     -33.738  22.792   0.391  0.00  0.00    -0.440 OA
BRANCH  28  29
ATOM     29  C   UNL     1     -33.320  23.672  -0.657  0.00  0.00    +0.235 C 
BRANCH  29  30
ATOM     30  C   UNL     1     -32.476  24.755  -0.066  0.00  0.00    +0.021 C 
ATOM     31  C   UNL     1     -32.985  25.812   0.586  0.00  0.00    -0.001 C 
BRANCH  31  32
ATOM     32  C   UNL     1     -32.193  26.894   1.196  0.00  0.00    -0.000 C 
ATOM     33  C   UNL     1     -31.001  26.588   1.834  0.00  0.00    -0.000 C 
ATOM     34  C   UNL     1     -32.655  28.199   1.121  0.00  0.00    -0.000 C 
ATOM     35  C   UNL     1     -30.252  27.613   2.412  0.00  0.00    -0.000 C 
ATOM     36  C   UNL     1     -31.905  29.224   1.699  0.00  0.00    -0.000 C 
ATOM     37  C   UNL     1     -30.704  28.930   2.344  0.00  0.00    -0.000 C 
ENDBRANCH  31  32
ENDBRANCH  29  30
ENDBRANCH  28  29
ENDBRANCH  27  28
ENDBRANCH   4  27
TORSDOF 12
ENDMDL
