MODEL 1
REMARK VINA RESULT:      -6.7      0.000      0.000
REMARK  Name = 192542
REMARK  11 active torsions:
REMARK  status: ('A' for Active; 'I' for Inactive)
REMARK    1  A    between atoms: CA_1  and  C_4
REMARK    2  A    between atoms: CA_1  and  N_21
REMARK    3  A    between atoms: CA_1  and  CB_30
REMARK    4  A    between atoms: N_3  and  CA_6
REMARK    5  A    between atoms: CA_6  and  C_13
REMARK    6  A    between atoms: CA_6  and  CB_16
REMARK    7  A    between atoms: CA_9  and  C_15
REMARK    8  A    between atoms: CB_16  and  CG_17
REMARK    9  A    between atoms: C_22  and  CA_24
REMARK   10  A    between atoms: CA_24  and  N_26
REMARK   11  A    between atoms: CB_30  and  CG_31
REMARK                            x       y       z     vdW  Elec       q    Type
REMARK                         _______ _______ _______ _____ _____    ______ ____
ROOT
ATOM      1  CA  PHE A   2     -34.825  19.885   1.108  0.00  0.00    +0.153 C 
ENDROOT
BRANCH   1   4
ATOM      2  O   PHE A   2     -35.521  20.371   3.378  0.00  0.00    -0.273 OA
ATOM      3  N   LEU A   3     -35.505  22.100   1.825  0.00  0.00    -0.297 N 
ATOM      4  C   PHE A   2     -35.333  20.778   2.234  0.00  0.00    +0.241 C 
ATOM      5  H   LEU A   3     -35.327  22.323   0.883  0.00  0.00    +0.150 HD
BRANCH   3   6
ATOM      6  CA  LEU A   3     -35.927  23.155   2.702  0.00  0.00    +0.153 C 
BRANCH   6  13
ATOM      7  O   LEU A   3     -35.536  24.598   0.848  0.00  0.00    -0.273 OA
ATOM      8  N   PRO A   4     -37.521  24.878   2.003  0.00  0.00    -0.273 N 
ATOM      9  CA  PRO A   4     -38.104  25.858   1.097  0.00  0.00    +0.140 C 
ATOM     10  CB  PRO A   4     -39.581  25.906   1.476  0.00  0.00    +0.030 C 
ATOM     11  CG  PRO A   4     -39.578  25.545   2.960  0.00  0.00    +0.024 C 
ATOM     12  CD  PRO A   4     -38.456  24.523   3.069  0.00  0.00    +0.094 C 
ATOM     13  C   LEU A   3     -36.299  24.271   1.758  0.00  0.00    +0.244 C 
BRANCH   9  15
ATOM     14  O   PRO A   4     -37.848  28.244   0.963  0.00  0.00    -0.286 OA
ATOM     15  C   PRO A   4     -37.420  27.165   1.360  0.00  0.00    +0.227 C 
ENDBRANCH   9  15
ENDBRANCH   6  13
BRANCH   6  16
ATOM     16  CB  LEU A   3     -34.834  23.616   3.659  0.00  0.00    +0.051 C 
BRANCH  16  17
ATOM     17  CG  LEU A   3     -35.326  23.787   5.078  0.00  0.00    -0.042 C 
ATOM     18  CD1 LEU A   3     -35.731  25.170   5.499  0.00  0.00    +0.026 C 
ATOM     19  CD2 LEU A   3     -35.366  22.756   5.936  0.00  0.00    -0.009 C 
ENDBRANCH  16  17
ENDBRANCH   6  16
ENDBRANCH   3   6
ENDBRANCH   1   4
BRANCH   1  21
ATOM     20  O   ALA A   1     -35.351  18.854  -1.528  0.00  0.00    -0.277 OA
ATOM     21  N   PHE A   2     -35.917  19.030   0.716  0.00  0.00    -0.300 N 
ATOM     22  C   ALA A   1     -36.093  18.578  -0.587  0.00  0.00    +0.202 C 
ATOM     23  H   PHE A   2     -36.567  18.754   1.401  0.00  0.00    +0.150 HD
BRANCH  22  24
ATOM     24  CA  ALA A   1     -37.332  17.704  -0.729  0.00  0.00    +0.013 C 
ATOM     25  CB  ALA A   1     -38.575  18.572  -0.889  0.00  0.00    -0.015 C 
BRANCH  24  26
ATOM     26  N   ALA A   1     -37.447  16.870   0.464  0.00  0.00    +0.387 N 
ATOM     27  H1  ALA A   1     -38.375  16.446   0.493  0.00  0.00    -0.089 HD
ATOM     28  H2  ALA A   1     -37.310  17.444   1.295  0.00  0.00    -0.089 HD
ATOM     29  H3  ALA A   1     -36.739  16.137   0.434  0.00  0.00    -0.089 HD
ENDBRANCH  24  26
ENDBRANCH  22  24
ENDBRANCH   1  21
BRANCH   1  30
ATOM     30  CB  PHE A   2     -33.601  19.087   1.572  0.00  0.00    +0.055 C 
BRANCH  30  31
ATOM     31  CG  PHE A   2     -32.358  19.408   0.777  0.00  0.00    -0.020 C 
ATOM     32  CD1 PHE A   2     -31.283  18.520   0.775  0.00  0.00    -0.004 C 
ATOM     33  CD2 PHE A   2     -32.287  20.593   0.045  0.00  0.00    -0.004 C 
ATOM     34  CE1 PHE A   2     -30.135  18.818   0.040  0.00  0.00    -0.000 C 
ATOM     35  CE2 PHE A   2     -31.138  20.890  -0.690  0.00  0.00    -0.000 C 
ATOM     36  CZ  PHE A   2     -30.063  20.002  -0.692  0.00  0.00    -0.000 C 
ENDBRANCH  30  31
ENDBRANCH   1  30
TORSDOF 11
ENDMDL
MODEL 2
REMARK VINA RESULT:      -6.2      1.861      3.324
REMARK  Name = 192542
REMARK  11 active torsions:
REMARK  status: ('A' for Active; 'I' for Inactive)
REMARK    1  A    between atoms: CA_1  and  C_4
REMARK    2  A    between atoms: CA_1  and  N_21
REMARK    3  A    between atoms: CA_1  and  CB_30
REMARK    4  A    between atoms: N_3  and  CA_6
REMARK    5  A    between atoms: CA_6  and  C_13
REMARK    6  A    between atoms: CA_6  and  CB_16
REMARK    7  A    between atoms: CA_9  and  C_15
REMARK    8  A    between atoms: CB_16  and  CG_17
REMARK    9  A    between atoms: C_22  and  CA_24
REMARK   10  A    between atoms: CA_24  and  N_26
REMARK   11  A    between atoms: CB_30  and  CG_31
REMARK                            x       y       z     vdW  Elec       q    Type
REMARK                         _______ _______ _______ _____ _____    ______ ____
ROOT
ATOM      1  CA  PHE A   2     -35.439  19.743   0.281  0.00  0.00    +0.153 C 
ENDROOT
BRANCH   1   4
ATOM      2  O   PHE A   2     -37.053  21.411  -0.418  0.00  0.00    -0.273 OA
ATOM      3  N   LEU A   3     -36.229  21.501   1.754  0.00  0.00    -0.297 N 
ATOM      4  C   PHE A   2     -36.319  20.974   0.466  0.00  0.00    +0.241 C 
ATOM      5  H   LEU A   3     -35.608  21.075   2.388  0.00  0.00    +0.150 HD
BRANCH   3   6
ATOM      6  CA  LEU A   3     -36.990  22.630   2.206  0.00  0.00    +0.153 C 
BRANCH   6  13
ATOM      7  O   LEU A   3     -36.367  22.453   4.498  0.00  0.00    -0.273 OA
ATOM      8  N   PRO A   4     -35.480  24.220   3.296  0.00  0.00    -0.273 N 
ATOM      9  CA  PRO A   4     -34.582  24.697   4.339  0.00  0.00    +0.140 C 
ATOM     10  CB  PRO A   4     -33.623  25.643   3.623  0.00  0.00    +0.030 C 
ATOM     11  CG  PRO A   4     -34.458  26.184   2.465  0.00  0.00    +0.024 C 
ATOM     12  CD  PRO A   4     -35.317  24.993   2.066  0.00  0.00    +0.094 C 
ATOM     13  C   LEU A   3     -36.254  23.080   3.443  0.00  0.00    +0.244 C 
BRANCH   9  15
ATOM     14  O   PRO A   4     -35.647  26.622   5.308  0.00  0.00    -0.286 OA
ATOM     15  C   PRO A   4     -35.422  25.417   5.350  0.00  0.00    +0.227 C 
ENDBRANCH   9  15
ENDBRANCH   6  13
BRANCH   6  16
ATOM     16  CB  LEU A   3     -38.434  22.284   2.548  0.00  0.00    +0.051 C 
BRANCH  16  17
ATOM     17  CG  LEU A   3     -39.414  23.354   2.124  0.00  0.00    -0.042 C 
ATOM     18  CD1 LEU A   3     -40.094  23.172   0.797  0.00  0.00    +0.026 C 
ATOM     19  CD2 LEU A   3     -39.642  24.438   2.882  0.00  0.00    -0.009 C 
ENDBRANCH  16  17
ENDBRANCH   6  16
ENDBRANCH   3   6
ENDBRANCH   1   4
BRANCH   1  21
ATOM     20  O   ALA A   1     -35.049  17.430  -1.387  0.00  0.00    -0.277 OA
ATOM     21  N   PHE A   2     -36.316  18.606   0.160  0.00  0.00    -0.300 N 
ATOM     22  C   ALA A   1     -36.046  17.528  -0.675  0.00  0.00    +0.202 C 
ATOM     23  H   PHE A   2     -37.144  18.592   0.693  0.00  0.00    +0.150 HD
BRANCH  22  24
ATOM     24  CA  ALA A   1     -37.142  16.472  -0.623  0.00  0.00    +0.013 C 
ATOM     25  CB  ALA A   1     -38.513  17.129  -0.722  0.00  0.00    -0.015 C 
BRANCH  24  26
ATOM     26  N   ALA A   1     -37.020  15.742   0.636  0.00  0.00    +0.387 N 
ATOM     27  H1  ALA A   1     -37.802  15.985   1.246  0.00  0.00    -0.089 HD
ATOM     28  H2  ALA A   1     -36.143  15.992   1.091  0.00  0.00    -0.089 HD
ATOM     29  H3  ALA A   1     -37.034  14.740   0.449  0.00  0.00    -0.089 HD
ENDBRANCH  24  26
ENDBRANCH  22  24
ENDBRANCH   1  21
BRANCH   1  30
ATOM     30  CB  PHE A   2     -34.466  19.603   1.458  0.00  0.00    +0.055 C 
BRANCH  30  31
ATOM     31  CG  PHE A   2     -33.051  19.318   1.015  0.00  0.00    -0.020 C 
ATOM     32  CD1 PHE A   2     -32.432  18.123   1.382  0.00  0.00    -0.004 C 
ATOM     33  CD2 PHE A   2     -32.364  20.250   0.237  0.00  0.00    -0.004 C 
ATOM     34  CE1 PHE A   2     -31.125  17.860   0.972  0.00  0.00    -0.000 C 
ATOM     35  CE2 PHE A   2     -31.056  19.985  -0.173  0.00  0.00    -0.000 C 
ATOM     36  CZ  PHE A   2     -30.437  18.791   0.195  0.00  0.00    -0.000 C 
ENDBRANCH  30  31
ENDBRANCH   1  30
TORSDOF 11
ENDMDL
MODEL 3
REMARK VINA RESULT:      -5.9      4.349      8.512
REMARK  Name = 192542
REMARK  11 active torsions:
REMARK  status: ('A' for Active; 'I' for Inactive)
REMARK    1  A    between atoms: CA_1  and  C_4
REMARK    2  A    between atoms: CA_1  and  N_21
REMARK    3  A    between atoms: CA_1  and  CB_30
REMARK    4  A    between atoms: N_3  and  CA_6
REMARK    5  A    between atoms: CA_6  and  C_13
REMARK    6  A    between atoms: CA_6  and  CB_16
REMARK    7  A    between atoms: CA_9  and  C_15
REMARK    8  A    between atoms: CB_16  and  CG_17
REMARK    9  A    between atoms: C_22  and  CA_24
REMARK   10  A    between atoms: CA_24  and  N_26
REMARK   11  A    between atoms: CB_30  and  CG_31
REMARK                            x       y       z     vdW  Elec       q    Type
REMARK                         _______ _______ _______ _____ _____    ______ ____
ROOT
ATOM      1  CA  PHE A   2     -33.871  27.655   3.182  0.00  0.00    +0.153 C 
ENDROOT
BRANCH   1   4
ATOM      2  O   PHE A   2     -33.242  25.320   3.021  0.00  0.00    -0.273 OA
ATOM      3  N   LEU A   3     -35.434  25.845   3.588  0.00  0.00    -0.297 N 
ATOM      4  C   PHE A   2     -34.122  26.152   3.231  0.00  0.00    +0.241 C 
ATOM      5  H   LEU A   3     -36.062  26.588   3.734  0.00  0.00    +0.150 HD
BRANCH   3   6
ATOM      6  CA  LEU A   3     -35.920  24.505   3.753  0.00  0.00    +0.153 C 
BRANCH   6  13
ATOM      7  O   LEU A   3     -38.227  24.987   4.104  0.00  0.00    -0.273 OA
ATOM      8  N   PRO A   4     -37.617  24.206   2.013  0.00  0.00    -0.273 N 
ATOM      9  CA  PRO A   4     -38.918  24.382   1.383  0.00  0.00    +0.140 C 
ATOM     10  CB  PRO A   4     -38.644  24.270  -0.113  0.00  0.00    +0.030 C 
ATOM     11  CG  PRO A   4     -37.429  23.348  -0.183  0.00  0.00    +0.024 C 
ATOM     12  CD  PRO A   4     -36.624  23.735   1.049  0.00  0.00    +0.094 C 
ATOM     13  C   LEU A   3     -37.362  24.596   3.318  0.00  0.00    +0.244 C 
BRANCH   9  15
ATOM     14  O   PRO A   4     -40.693  22.771   1.196  0.00  0.00    -0.286 OA
ATOM     15  C   PRO A   4     -39.799  23.272   1.871  0.00  0.00    +0.227 C 
ENDBRANCH   9  15
ENDBRANCH   6  13
BRANCH   6  16
ATOM     16  CB  LEU A   3     -35.835  24.007   5.192  0.00  0.00    +0.051 C 
BRANCH  16  17
ATOM     17  CG  LEU A   3     -35.486  22.539   5.288  0.00  0.00    -0.042 C 
ATOM     18  CD1 LEU A   3     -35.382  21.775   4.000  0.00  0.00    +0.026 C 
ATOM     19  CD2 LEU A   3     -35.312  21.936   6.474  0.00  0.00    -0.009 C 
ENDBRANCH  16  17
ENDBRANCH   6  16
ENDBRANCH   3   6
ENDBRANCH   1   4
BRANCH   1  21
ATOM     20  O   ALA A   1     -31.162  27.869   4.129  0.00  0.00    -0.277 OA
ATOM     21  N   PHE A   2     -33.445  28.059   4.498  0.00  0.00    -0.300 N 
ATOM     22  C   ALA A   1     -32.107  28.135   4.869  0.00  0.00    +0.202 C 
ATOM     23  H   PHE A   2     -34.132  28.293   5.163  0.00  0.00    +0.150 HD
BRANCH  22  24
ATOM     24  CA  ALA A   1     -31.937  28.573   6.317  0.00  0.00    +0.013 C 
ATOM     25  CB  ALA A   1     -30.504  29.029   6.566  0.00  0.00    -0.015 C 
BRANCH  24  26
ATOM     26  N   ALA A   1     -32.265  27.443   7.182  0.00  0.00    +0.387 N 
ATOM     27  H1  ALA A   1     -31.629  27.431   7.980  0.00  0.00    -0.089 HD
ATOM     28  H2  ALA A   1     -32.170  26.574   6.658  0.00  0.00    -0.089 HD
ATOM     29  H3  ALA A   1     -33.224  27.538   7.515  0.00  0.00    -0.089 HD
ENDBRANCH  24  26
ENDBRANCH  22  24
ENDBRANCH   1  21
BRANCH   1  30
ATOM     30  CB  PHE A   2     -35.139  28.391   2.731  0.00  0.00    +0.055 C 
BRANCH  30  31
ATOM     31  CG  PHE A   2     -34.860  29.798   2.261  0.00  0.00    -0.020 C 
ATOM     32  CD1 PHE A   2     -35.890  30.739   2.226  0.00  0.00    -0.004 C 
ATOM     33  CD2 PHE A   2     -33.573  30.158   1.863  0.00  0.00    -0.004 C 
ATOM     34  CE1 PHE A   2     -35.632  32.039   1.792  0.00  0.00    -0.000 C 
ATOM     35  CE2 PHE A   2     -33.315  31.459   1.429  0.00  0.00    -0.000 C 
ATOM     36  CZ  PHE A   2     -34.345  32.399   1.394  0.00  0.00    -0.000 C 
ENDBRANCH  30  31
ENDBRANCH   1  30
TORSDOF 11
ENDMDL
MODEL 4
REMARK VINA RESULT:      -5.9      2.127      3.546
REMARK  Name = 192542
REMARK  11 active torsions:
REMARK  status: ('A' for Active; 'I' for Inactive)
REMARK    1  A    between atoms: CA_1  and  C_4
REMARK    2  A    between atoms: CA_1  and  N_21
REMARK    3  A    between atoms: CA_1  and  CB_30
REMARK    4  A    between atoms: N_3  and  CA_6
REMARK    5  A    between atoms: CA_6  and  C_13
REMARK    6  A    between atoms: CA_6  and  CB_16
REMARK    7  A    between atoms: CA_9  and  C_15
REMARK    8  A    between atoms: CB_16  and  CG_17
REMARK    9  A    between atoms: C_22  and  CA_24
REMARK   10  A    between atoms: CA_24  and  N_26
REMARK   11  A    between atoms: CB_30  and  CG_31
REMARK                            x       y       z     vdW  Elec       q    Type
REMARK                         _______ _______ _______ _____ _____    ______ ____
ROOT
ATOM      1  CA  PHE A   2     -34.668  19.148   0.148  0.00  0.00    +0.153 C 
ENDROOT
BRANCH   1   4
ATOM      2  O   PHE A   2     -36.085  20.920  -0.705  0.00  0.00    -0.273 OA
ATOM      3  N   LEU A   3     -35.483  20.959   1.540  0.00  0.00    -0.297 N 
ATOM      4  C   PHE A   2     -35.477  20.436   0.248  0.00  0.00    +0.241 C 
ATOM      5  H   LEU A   3     -34.962  20.493   2.233  0.00  0.00    +0.150 HD
BRANCH   3   6
ATOM      6  CA  LEU A   3     -36.208  22.138   1.917  0.00  0.00    +0.153 C 
BRANCH   6  13
ATOM      7  O   LEU A   3     -35.438  21.753   4.138  0.00  0.00    -0.273 OA
ATOM      8  N   PRO A   4     -35.125  23.873   3.265  0.00  0.00    -0.273 N 
ATOM      9  CA  PRO A   4     -34.334  24.393   4.371  0.00  0.00    +0.140 C 
ATOM     10  CB  PRO A   4     -33.705  25.673   3.830  0.00  0.00    +0.030 C 
ATOM     11  CG  PRO A   4     -34.716  26.153   2.791  0.00  0.00    +0.024 C 
ATOM     12  CD  PRO A   4     -35.243  24.858   2.192  0.00  0.00    +0.094 C 
ATOM     13  C   LEU A   3     -35.555  22.556   3.211  0.00  0.00    +0.244 C 
BRANCH   9  15
ATOM     14  O   PRO A   4     -36.501  24.674   5.373  0.00  0.00    -0.286 OA
ATOM     15  C   PRO A   4     -35.280  24.673   5.499  0.00  0.00    +0.227 C 
ENDBRANCH   9  15
ENDBRANCH   6  13
BRANCH   6  16
ATOM     16  CB  LEU A   3     -37.696  21.886   2.136  0.00  0.00    +0.051 C 
BRANCH  16  17
ATOM     17  CG  LEU A   3     -38.573  22.931   1.484  0.00  0.00    -0.042 C 
ATOM     18  CD1 LEU A   3     -39.906  23.199   2.122  0.00  0.00    +0.026 C 
ATOM     19  CD2 LEU A   3     -38.194  23.567   0.365  0.00  0.00    -0.009 C 
ENDBRANCH  16  17
ENDBRANCH   6  16
ENDBRANCH   3   6
ENDBRANCH   1   4
BRANCH   1  21
ATOM     20  O   ALA A   1     -34.348  16.599  -1.151  0.00  0.00    -0.277 OA
ATOM     21  N   PHE A   2     -35.607  18.054   0.146  0.00  0.00    -0.300 N 
ATOM     22  C   ALA A   1     -35.367  16.854  -0.512  0.00  0.00    +0.202 C 
ATOM     23  H   PHE A   2     -36.456  18.163   0.632  0.00  0.00    +0.150 HD
BRANCH  22  24
ATOM     24  CA  ALA A   1     -36.527  15.877  -0.366  0.00  0.00    +0.013 C 
ATOM     25  CB  ALA A   1     -37.062  15.485  -1.739  0.00  0.00    -0.015 C 
BRANCH  24  26
ATOM     26  N   ALA A   1     -37.575  16.521   0.420  0.00  0.00    +0.387 N 
ATOM     27  H1  ALA A   1     -38.471  16.414  -0.057  0.00  0.00    -0.089 HD
ATOM     28  H2  ALA A   1     -37.362  17.512   0.526  0.00  0.00    -0.089 HD
ATOM     29  H3  ALA A   1     -37.626  16.083   1.340  0.00  0.00    -0.089 HD
ENDBRANCH  24  26
ENDBRANCH  22  24
ENDBRANCH   1  21
BRANCH   1  30
ATOM     30  CB  PHE A   2     -33.671  19.054   1.309  0.00  0.00    +0.055 C 
BRANCH  30  31
ATOM     31  CG  PHE A   2     -32.237  18.980   0.842  0.00  0.00    -0.020 C 
ATOM     32  CD1 PHE A   2     -31.700  20.012   0.071  0.00  0.00    -0.004 C 
ATOM     33  CD2 PHE A   2     -31.450  17.880   1.181  0.00  0.00    -0.004 C 
ATOM     34  CE1 PHE A   2     -30.375  19.943  -0.360  0.00  0.00    -0.000 C 
ATOM     35  CE2 PHE A   2     -30.124  17.812   0.750  0.00  0.00    -0.000 C 
ATOM     36  CZ  PHE A   2     -29.587  18.844  -0.020  0.00  0.00    -0.000 C 
ENDBRANCH  30  31
ENDBRANCH   1  30
TORSDOF 11
ENDMDL
MODEL 5
REMARK VINA RESULT:      -5.8      3.660      7.150
REMARK  Name = 192542
REMARK  11 active torsions:
REMARK  status: ('A' for Active; 'I' for Inactive)
REMARK    1  A    between atoms: CA_1  and  C_4
REMARK    2  A    between atoms: CA_1  and  N_21
REMARK    3  A    between atoms: CA_1  and  CB_30
REMARK    4  A    between atoms: N_3  and  CA_6
REMARK    5  A    between atoms: CA_6  and  C_13
REMARK    6  A    between atoms: CA_6  and  CB_16
REMARK    7  A    between atoms: CA_9  and  C_15
REMARK    8  A    between atoms: CB_16  and  CG_17
REMARK    9  A    between atoms: C_22  and  CA_24
REMARK   10  A    between atoms: CA_24  and  N_26
REMARK   11  A    between atoms: CB_30  and  CG_31
REMARK                            x       y       z     vdW  Elec       q    Type
REMARK                         _______ _______ _______ _____ _____    ______ ____
ROOT
ATOM      1  CA  PHE A   2     -39.836  23.744   1.792  0.00  0.00    +0.153 C 
ENDROOT
BRANCH   1   4
ATOM      2  O   PHE A   2     -38.950  24.652   3.857  0.00  0.00    -0.273 OA
ATOM      3  N   LEU A   3     -37.483  23.633   2.370  0.00  0.00    -0.297 N 
ATOM      4  C   PHE A   2     -38.735  24.084   2.789  0.00  0.00    +0.241 C 
ATOM      5  H   LEU A   3     -37.419  23.189   1.494  0.00  0.00    +0.150 HD
BRANCH   3   6
ATOM      6  CA  LEU A   3     -36.285  23.780   3.145  0.00  0.00    +0.153 C 
BRANCH   6  13
ATOM      7  O   LEU A   3     -34.742  23.236   1.413  0.00  0.00    -0.273 OA
ATOM      8  N   PRO A   4     -34.889  25.460   2.037  0.00  0.00    -0.273 N 
ATOM      9  CA  PRO A   4     -34.018  25.983   0.994  0.00  0.00    +0.140 C 
ATOM     10  CB  PRO A   4     -34.271  27.487   0.996  0.00  0.00    +0.030 C 
ATOM     11  CG  PRO A   4     -34.665  27.779   2.441  0.00  0.00    +0.024 C 
ATOM     12  CD  PRO A   4     -35.450  26.539   2.847  0.00  0.00    +0.094 C 
ATOM     13  C   LEU A   3     -35.238  24.120   2.114  0.00  0.00    +0.244 C 
BRANCH   9  15
ATOM     14  O   PRO A   4     -31.809  25.102   0.641  0.00  0.00    -0.286 OA
ATOM     15  C   PRO A   4     -32.610  25.656   1.388  0.00  0.00    +0.227 C 
ENDBRANCH   9  15
ENDBRANCH   6  13
BRANCH   6  16
ATOM     16  CB  LEU A   3     -35.893  22.511   3.895  0.00  0.00    +0.051 C 
BRANCH  16  17
ATOM     17  CG  LEU A   3     -35.472  22.776   5.322  0.00  0.00    -0.042 C 
ATOM     18  CD1 LEU A   3     -35.326  24.212   5.737  0.00  0.00    +0.026 C 
ATOM     19  CD2 LEU A   3     -35.205  21.773   6.173  0.00  0.00    -0.009 C 
ENDBRANCH  16  17
ENDBRANCH   6  16
ENDBRANCH   3   6
ENDBRANCH   1   4
BRANCH   1  21
ATOM     20  O   ALA A   1     -40.531  20.965   1.515  0.00  0.00    -0.277 OA
ATOM     21  N   PHE A   2     -39.284  22.805   0.849  0.00  0.00    -0.300 N 
ATOM     22  C   ALA A   1     -39.682  21.475   0.787  0.00  0.00    +0.202 C 
ATOM     23  H   PHE A   2     -38.594  23.120   0.222  0.00  0.00    +0.150 HD
BRANCH  22  24
ATOM     24  CA  ALA A   1     -38.929  20.699  -0.287  0.00  0.00    +0.013 C 
ATOM     25  CB  ALA A   1     -39.911  20.064  -1.265  0.00  0.00    -0.015 C 
BRANCH  24  26
ATOM     26  N   ALA A   1     -38.127  19.668   0.366  0.00  0.00    +0.387 N 
ATOM     27  H1  ALA A   1     -37.568  20.092   1.107  0.00  0.00    -0.089 HD
ATOM     28  H2  ALA A   1     -37.511  19.231  -0.319  0.00  0.00    -0.089 HD
ATOM     29  H3  ALA A   1     -38.745  18.963   0.768  0.00  0.00    -0.089 HD
ENDBRANCH  24  26
ENDBRANCH  22  24
ENDBRANCH   1  21
BRANCH   1  30
ATOM     30  CB  PHE A   2     -40.347  25.019   1.109  0.00  0.00    +0.055 C 
BRANCH  30  31
ATOM     31  CG  PHE A   2     -41.700  25.453   1.621  0.00  0.00    -0.020 C 
ATOM     32  CD1 PHE A   2     -42.861  24.924   1.058  0.00  0.00    -0.004 C 
ATOM     33  CD2 PHE A   2     -41.787  26.384   2.657  0.00  0.00    -0.004 C 
ATOM     34  CE1 PHE A   2     -44.110  25.326   1.532  0.00  0.00    -0.000 C 
ATOM     35  CE2 PHE A   2     -43.037  26.784   3.130  0.00  0.00    -0.000 C 
ATOM     36  CZ  PHE A   2     -44.198  26.255   2.567  0.00  0.00    -0.000 C 
ENDBRANCH  30  31
ENDBRANCH   1  30
TORSDOF 11
ENDMDL
MODEL 6
REMARK VINA RESULT:      -5.8      2.335      7.177
REMARK  Name = 192542
REMARK  11 active torsions:
REMARK  status: ('A' for Active; 'I' for Inactive)
REMARK    1  A    between atoms: CA_1  and  C_4
REMARK    2  A    between atoms: CA_1  and  N_21
REMARK    3  A    between atoms: CA_1  and  CB_30
REMARK    4  A    between atoms: N_3  and  CA_6
REMARK    5  A    between atoms: CA_6  and  C_13
REMARK    6  A    between atoms: CA_6  and  CB_16
REMARK    7  A    between atoms: CA_9  and  C_15
REMARK    8  A    between atoms: CB_16  and  CG_17
REMARK    9  A    between atoms: C_22  and  CA_24
REMARK   10  A    between atoms: CA_24  and  N_26
REMARK   11  A    between atoms: CB_30  and  CG_31
REMARK                            x       y       z     vdW  Elec       q    Type
REMARK                         _______ _______ _______ _____ _____    ______ ____
ROOT
ATOM      1  CA  PHE A   2     -34.880  24.521   2.796  0.00  0.00    +0.153 C 
ENDROOT
BRANCH   1   4
ATOM      2  O   PHE A   2     -34.011  23.789   0.655  0.00  0.00    -0.273 OA
ATOM      3  N   LEU A   3     -35.182  22.264   1.960  0.00  0.00    -0.297 N 
ATOM      4  C   PHE A   2     -34.645  23.518   1.672  0.00  0.00    +0.241 C 
ATOM      5  H   LEU A   3     -35.674  22.152   2.806  0.00  0.00    +0.150 HD
BRANCH   3   6
ATOM      6  CA  LEU A   3     -35.060  21.128   1.093  0.00  0.00    +0.153 C 
BRANCH   6  13
ATOM      7  O   LEU A   3     -37.360  20.795   1.612  0.00  0.00    -0.273 OA
ATOM      8  N   PRO A   4     -36.720  20.493  -0.591  0.00  0.00    -0.273 N 
ATOM      9  CA  PRO A   4     -38.061  20.309  -1.130  0.00  0.00    +0.140 C 
ATOM     10  CB  PRO A   4     -37.897  20.461  -2.639  0.00  0.00    +0.030 C 
ATOM     11  CG  PRO A   4     -36.464  19.996  -2.889  0.00  0.00    +0.024 C 
ATOM     12  CD  PRO A   4     -35.718  20.482  -1.655  0.00  0.00    +0.094 C 
ATOM     13  C   LEU A   3     -36.488  20.796   0.741  0.00  0.00    +0.244 C 
BRANCH   9  15
ATOM     14  O   PRO A   4     -39.621  18.485  -0.994  0.00  0.00    -0.286 OA
ATOM     15  C   PRO A   4     -38.501  18.926  -0.756  0.00  0.00    +0.227 C 
ENDBRANCH   9  15
ENDBRANCH   6  13
BRANCH   6  16
ATOM     16  CB  LEU A   3     -34.389  19.932   1.759  0.00  0.00    +0.051 C 
BRANCH  16  17
ATOM     17  CG  LEU A   3     -33.133  19.486   1.044  0.00  0.00    -0.042 C 
ATOM     18  CD1 LEU A   3     -32.646  18.093   1.324  0.00  0.00    +0.026 C 
ATOM     19  CD2 LEU A   3     -32.463  20.309   0.223  0.00  0.00    -0.009 C 
ENDBRANCH  16  17
ENDBRANCH   6  16
ENDBRANCH   3   6
ENDBRANCH   1   4
BRANCH   1  21
ATOM     20  O   ALA A   1     -36.959  23.263   4.337  0.00  0.00    -0.277 OA
ATOM     21  N   PHE A   2     -36.283  24.850   2.787  0.00  0.00    -0.300 N 
ATOM     22  C   ALA A   1     -37.220  24.186   3.569  0.00  0.00    +0.202 C 
ATOM     23  H   PHE A   2     -36.591  25.579   2.200  0.00  0.00    +0.150 HD
BRANCH  22  24
ATOM     24  CA  ALA A   1     -38.630  24.721   3.356  0.00  0.00    +0.013 C 
ATOM     25  CB  ALA A   1     -39.191  24.220   2.030  0.00  0.00    -0.015 C 
BRANCH  24  26
ATOM     26  N   ALA A   1     -38.574  26.181   3.361  0.00  0.00    +0.387 N 
ATOM     27  H1  ALA A   1     -38.329  26.507   4.297  0.00  0.00    -0.089 HD
ATOM     28  H2  ALA A   1     -39.484  26.558   3.097  0.00  0.00    -0.089 HD
ATOM     29  H3  ALA A   1     -37.868  26.495   2.697  0.00  0.00    -0.089 HD
ENDBRANCH  24  26
ENDBRANCH  22  24
ENDBRANCH   1  21
BRANCH   1  30
ATOM     30  CB  PHE A   2     -33.993  25.757   2.600  0.00  0.00    +0.055 C 
BRANCH  30  31
ATOM     31  CG  PHE A   2     -33.538  26.362   3.907  0.00  0.00    -0.020 C 
ATOM     32  CD1 PHE A   2     -32.672  27.454   3.905  0.00  0.00    -0.004 C 
ATOM     33  CD2 PHE A   2     -33.986  25.827   5.115  0.00  0.00    -0.004 C 
ATOM     34  CE1 PHE A   2     -32.252  28.013   5.113  0.00  0.00    -0.000 C 
ATOM     35  CE2 PHE A   2     -33.566  26.386   6.322  0.00  0.00    -0.000 C 
ATOM     36  CZ  PHE A   2     -32.699  27.479   6.321  0.00  0.00    -0.000 C 
ENDBRANCH  30  31
ENDBRANCH   1  30
TORSDOF 11
ENDMDL
MODEL 7
REMARK VINA RESULT:      -5.8      2.095      8.305
REMARK  Name = 192542
REMARK  11 active torsions:
REMARK  status: ('A' for Active; 'I' for Inactive)
REMARK    1  A    between atoms: CA_1  and  C_4
REMARK    2  A    between atoms: CA_1  and  N_21
REMARK    3  A    between atoms: CA_1  and  CB_30
REMARK    4  A    between atoms: N_3  and  CA_6
REMARK    5  A    between atoms: CA_6  and  C_13
REMARK    6  A    between atoms: CA_6  and  CB_16
REMARK    7  A    between atoms: CA_9  and  C_15
REMARK    8  A    between atoms: CB_16  and  CG_17
REMARK    9  A    between atoms: C_22  and  CA_24
REMARK   10  A    between atoms: CA_24  and  N_26
REMARK   11  A    between atoms: CB_30  and  CG_31
REMARK                            x       y       z     vdW  Elec       q    Type
REMARK                         _______ _______ _______ _____ _____    ______ ____
ROOT
ATOM      1  CA  PHE A   2     -37.448  21.894   2.150  0.00  0.00    +0.153 C 
ENDROOT
BRANCH   1   4
ATOM      2  O   PHE A   2     -35.870  20.143   2.713  0.00  0.00    -0.273 OA
ATOM      3  N   LEU A   3     -36.840  20.129   0.601  0.00  0.00    -0.297 N 
ATOM      4  C   PHE A   2     -36.615  20.646   1.877  0.00  0.00    +0.241 C 
ATOM      5  H   LEU A   3     -37.458  20.611   0.006  0.00  0.00    +0.150 HD
BRANCH   3   6
ATOM      6  CA  LEU A   3     -36.220  18.933   0.108  0.00  0.00    +0.153 C 
BRANCH   6  13
ATOM      7  O   LEU A   3     -35.261  20.070  -1.752  0.00  0.00    -0.273 OA
ATOM      8  N   PRO A   4     -33.802  19.158  -0.206  0.00  0.00    -0.273 N 
ATOM      9  CA  PRO A   4     -32.584  19.714  -0.779  0.00  0.00    +0.140 C 
ATOM     10  CB  PRO A   4     -31.528  19.536   0.307  0.00  0.00    +0.030 C 
ATOM     11  CG  PRO A   4     -32.002  18.298   1.063  0.00  0.00    +0.024 C 
ATOM     12  CD  PRO A   4     -33.517  18.423   1.024  0.00  0.00    +0.094 C 
ATOM     13  C   LEU A   3     -35.061  19.447  -0.709  0.00  0.00    +0.244 C 
BRANCH   9  15
ATOM     14  O   PRO A   4     -31.119  18.703  -2.396  0.00  0.00    -0.286 OA
ATOM     15  C   PRO A   4     -32.263  18.909  -2.002  0.00  0.00    +0.227 C 
ENDBRANCH   9  15
ENDBRANCH   6  13
BRANCH   6  16
ATOM     16  CB  LEU A   3     -37.145  18.090  -0.762  0.00  0.00    +0.051 C 
BRANCH  16  17
ATOM     17  CG  LEU A   3     -37.104  16.619  -0.415  0.00  0.00    -0.042 C 
ATOM     18  CD1 LEU A   3     -35.755  15.962  -0.382  0.00  0.00    +0.026 C 
ATOM     19  CD2 LEU A   3     -38.227  15.922  -0.181  0.00  0.00    -0.009 C 
ENDBRANCH  16  17
ENDBRANCH   6  16
ENDBRANCH   3   6
ENDBRANCH   1   4
BRANCH   1  21
ATOM     20  O   ALA A   1     -35.720  24.109   2.775  0.00  0.00    -0.277 OA
ATOM     21  N   PHE A   2     -37.089  22.367   3.463  0.00  0.00    -0.300 N 
ATOM     22  C   ALA A   1     -36.243  23.450   3.671  0.00  0.00    +0.202 C 
ATOM     23  H   PHE A   2     -37.458  21.901   4.248  0.00  0.00    +0.150 HD
BRANCH  22  24
ATOM     24  CA  ALA A   1     -36.017  23.728   5.152  0.00  0.00    +0.013 C 
ATOM     25  CB  ALA A   1     -34.682  24.432   5.359  0.00  0.00    -0.015 C 
BRANCH  24  26
ATOM     26  N   ALA A   1     -36.034  22.454   5.867  0.00  0.00    +0.387 N 
ATOM     27  H1  ALA A   1     -35.159  22.341   6.380  0.00  0.00    -0.089 HD
ATOM     28  H2  ALA A   1     -36.139  21.690   5.200  0.00  0.00    -0.089 HD
ATOM     29  H3  ALA A   1     -36.815  22.444   6.522  0.00  0.00    -0.089 HD
ENDBRANCH  24  26
ENDBRANCH  22  24
ENDBRANCH   1  21
BRANCH   1  30
ATOM     30  CB  PHE A   2     -38.943  21.570   2.040  0.00  0.00    +0.055 C 
BRANCH  30  31
ATOM     31  CG  PHE A   2     -39.760  22.746   1.559  0.00  0.00    -0.020 C 
ATOM     32  CD1 PHE A   2     -40.351  22.714   0.296  0.00  0.00    -0.004 C 
ATOM     33  CD2 PHE A   2     -39.923  23.863   2.378  0.00  0.00    -0.004 C 
ATOM     34  CE1 PHE A   2     -41.106  23.800  -0.148  0.00  0.00    -0.000 C 
ATOM     35  CE2 PHE A   2     -40.679  24.948   1.934  0.00  0.00    -0.000 C 
ATOM     36  CZ  PHE A   2     -41.270  24.916   0.671  0.00  0.00    -0.000 C 
ENDBRANCH  30  31
ENDBRANCH   1  30
TORSDOF 11
ENDMDL
MODEL 8
REMARK VINA RESULT:      -5.8      4.787      7.857
REMARK  Name = 192542
REMARK  11 active torsions:
REMARK  status: ('A' for Active; 'I' for Inactive)
REMARK    1  A    between atoms: CA_1  and  C_4
REMARK    2  A    between atoms: CA_1  and  N_21
REMARK    3  A    between atoms: CA_1  and  CB_30
REMARK    4  A    between atoms: N_3  and  CA_6
REMARK    5  A    between atoms: CA_6  and  C_13
REMARK    6  A    between atoms: CA_6  and  CB_16
REMARK    7  A    between atoms: CA_9  and  C_15
REMARK    8  A    between atoms: CB_16  and  CG_17
REMARK    9  A    between atoms: C_22  and  CA_24
REMARK   10  A    between atoms: CA_24  and  N_26
REMARK   11  A    between atoms: CB_30  and  CG_31
REMARK                            x       y       z     vdW  Elec       q    Type
REMARK                         _______ _______ _______ _____ _____    ______ ____
ROOT
ATOM      1  CA  PHE A   2     -37.191  25.831   3.017  0.00  0.00    +0.153 C 
ENDROOT
BRANCH   1   4
ATOM      2  O   PHE A   2     -36.737  27.404   1.230  0.00  0.00    -0.273 OA
ATOM      3  N   LEU A   3     -35.427  27.491   3.148  0.00  0.00    -0.297 N 
ATOM      4  C   PHE A   2     -36.440  26.973   2.342  0.00  0.00    +0.241 C 
ATOM      5  H   LEU A   3     -35.270  27.071   4.024  0.00  0.00    +0.150 HD
BRANCH   3   6
ATOM      6  CA  LEU A   3     -34.601  28.601   2.771  0.00  0.00    +0.153 C 
BRANCH   6  13
ATOM      7  O   LEU A   3     -33.290  27.965   4.655  0.00  0.00    -0.273 OA
ATOM      8  N   PRO A   4     -32.154  28.522   2.718  0.00  0.00    -0.273 N 
ATOM      9  CA  PRO A   4     -30.827  28.151   3.190  0.00  0.00    +0.140 C 
ATOM     10  CB  PRO A   4     -29.968  28.093   1.931  0.00  0.00    +0.030 C 
ATOM     11  CG  PRO A   4     -30.635  29.103   1.000  0.00  0.00    +0.024 C 
ATOM     12  CD  PRO A   4     -32.115  28.950   1.321  0.00  0.00    +0.094 C 
ATOM     13  C   LEU A   3     -33.296  28.327   3.478  0.00  0.00    +0.244 C 
BRANCH   9  15
ATOM     14  O   PRO A   4     -29.718  29.017   5.140  0.00  0.00    -0.286 OA
ATOM     15  C   PRO A   4     -30.371  29.231   4.124  0.00  0.00    +0.227 C 
ENDBRANCH   9  15
ENDBRANCH   6  13
BRANCH   6  16
ATOM     16  CB  LEU A   3     -35.165  29.948   3.210  0.00  0.00    +0.051 C 
BRANCH  16  17
ATOM     17  CG  LEU A   3     -35.294  30.933   2.070  0.00  0.00    -0.042 C 
ATOM     18  CD1 LEU A   3     -34.222  31.977   1.944  0.00  0.00    +0.026 C 
ATOM     19  CD2 LEU A   3     -36.340  30.900   1.229  0.00  0.00    -0.009 C 
ENDBRANCH  16  17
ENDBRANCH   6  16
ENDBRANCH   3   6
ENDBRANCH   1   4
BRANCH   1  21
ATOM     20  O   ALA A   1     -39.421  24.015   2.890  0.00  0.00    -0.277 OA
ATOM     21  N   PHE A   2     -38.590  26.178   3.011  0.00  0.00    -0.300 N 
ATOM     22  C   ALA A   1     -39.604  25.229   2.947  0.00  0.00    +0.202 C 
ATOM     23  H   PHE A   2     -38.838  27.130   3.053  0.00  0.00    +0.150 HD
BRANCH  22  24
ATOM     24  CA  ALA A   1     -40.987  25.866   2.939  0.00  0.00    +0.013 C 
ATOM     25  CB  ALA A   1     -41.170  26.717   1.688  0.00  0.00    -0.015 C 
BRANCH  24  26
ATOM     26  N   ALA A   1     -41.121  26.693   4.136  0.00  0.00    +0.387 N 
ATOM     27  H1  ALA A   1     -41.800  27.435   3.963  0.00  0.00    -0.089 HD
ATOM     28  H2  ALA A   1     -40.217  27.105   4.368  0.00  0.00    -0.089 HD
ATOM     29  H3  ALA A   1     -41.441  26.115   4.913  0.00  0.00    -0.089 HD
ENDBRANCH  24  26
ENDBRANCH  22  24
ENDBRANCH   1  21
BRANCH   1  30
ATOM     30  CB  PHE A   2     -36.655  25.608   4.437  0.00  0.00    +0.055 C 
BRANCH  30  31
ATOM     31  CG  PHE A   2     -36.114  24.214   4.644  0.00  0.00    -0.020 C 
ATOM     32  CD1 PHE A   2     -36.188  23.277   3.613  0.00  0.00    -0.004 C 
ATOM     33  CD2 PHE A   2     -35.539  23.864   5.866  0.00  0.00    -0.004 C 
ATOM     34  CE1 PHE A   2     -35.686  21.989   3.805  0.00  0.00    -0.000 C 
ATOM     35  CE2 PHE A   2     -35.038  22.576   6.056  0.00  0.00    -0.000 C 
ATOM     36  CZ  PHE A   2     -35.112  21.639   5.026  0.00  0.00    -0.000 C 
ENDBRANCH  30  31
ENDBRANCH   1  30
TORSDOF 11
ENDMDL
MODEL 9
REMARK VINA RESULT:      -5.8      2.801      8.078
REMARK  Name = 192542
REMARK  11 active torsions:
REMARK  status: ('A' for Active; 'I' for Inactive)
REMARK    1  A    between atoms: CA_1  and  C_4
REMARK    2  A    between atoms: CA_1  and  N_21
REMARK    3  A    between atoms: CA_1  and  CB_30
REMARK    4  A    between atoms: N_3  and  CA_6
REMARK    5  A    between atoms: CA_6  and  C_13
REMARK    6  A    between atoms: CA_6  and  CB_16
REMARK    7  A    between atoms: CA_9  and  C_15
REMARK    8  A    between atoms: CB_16  and  CG_17
REMARK    9  A    between atoms: C_22  and  CA_24
REMARK   10  A    between atoms: CA_24  and  N_26
REMARK   11  A    between atoms: CB_30  and  CG_31
REMARK                            x       y       z     vdW  Elec       q    Type
REMARK                         _______ _______ _______ _____ _____    ______ ____
ROOT
ATOM      1  CA  PHE A   2     -36.848  20.515   2.010  0.00  0.00    +0.153 C 
ENDROOT
BRANCH   1   4
ATOM      2  O   PHE A   2     -36.434  20.589  -0.377  0.00  0.00    -0.273 OA
ATOM      3  N   LEU A   3     -36.931  18.541   0.603  0.00  0.00    -0.297 N 
ATOM      4  C   PHE A   2     -36.726  19.920   0.612  0.00  0.00    +0.241 C 
ATOM      5  H   LEU A   3     -37.161  18.099   1.452  0.00  0.00    +0.150 HD
BRANCH   3   6
ATOM      6  CA  LEU A   3     -36.826  17.729  -0.575  0.00  0.00    +0.153 C 
BRANCH   6  13
ATOM      7  O   LEU A   3     -37.429  15.720   0.554  0.00  0.00    -0.273 OA
ATOM      8  N   PRO A   4     -38.912  16.529  -1.027  0.00  0.00    -0.273 N 
ATOM      9  CA  PRO A   4     -39.977  15.571  -0.762  0.00  0.00    +0.140 C 
ATOM     10  CB  PRO A   4     -41.206  16.157  -1.448  0.00  0.00    +0.030 C 
ATOM     11  CG  PRO A   4     -40.618  16.957  -2.608  0.00  0.00    +0.024 C 
ATOM     12  CD  PRO A   4     -39.323  17.508  -2.031  0.00  0.00    +0.094 C 
ATOM     13  C   LEU A   3     -37.741  16.566  -0.286  0.00  0.00    +0.244 C 
BRANCH   9  15
ATOM     14  O   PRO A   4     -39.411  13.234  -0.739  0.00  0.00    -0.286 OA
ATOM     15  C   PRO A   4     -39.564  14.269  -1.380  0.00  0.00    +0.227 C 
ENDBRANCH   9  15
ENDBRANCH   6  13
BRANCH   6  16
ATOM     16  CB  LEU A   3     -35.409  17.231  -0.839  0.00  0.00    +0.051 C 
BRANCH  16  17
ATOM     17  CG  LEU A   3     -34.762  17.897  -2.033  0.00  0.00    -0.042 C 
ATOM     18  CD1 LEU A   3     -33.271  18.066  -1.997  0.00  0.00    +0.026 C 
ATOM     19  CD2 LEU A   3     -35.492  18.349  -3.064  0.00  0.00    -0.009 C 
ENDBRANCH  16  17
ENDBRANCH   6  16
ENDBRANCH   3   6
ENDBRANCH   1   4
BRANCH   1  21
ATOM     20  O   ALA A   1     -39.681  21.027   1.989  0.00  0.00    -0.277 OA
ATOM     21  N   PHE A   2     -37.495  21.796   1.874  0.00  0.00    -0.300 N 
ATOM     22  C   ALA A   1     -38.876  21.949   1.874  0.00  0.00    +0.202 C 
ATOM     23  H   PHE A   2     -36.932  22.597   1.775  0.00  0.00    +0.150 HD
BRANCH  22  24
ATOM     24  CA  ALA A   1     -39.293  23.404   1.699  0.00  0.00    +0.013 C 
ATOM     25  CB  ALA A   1     -38.887  24.219   2.921  0.00  0.00    -0.015 C 
BRANCH  24  26
ATOM     26  N   ALA A   1     -40.741  23.449   1.519  0.00  0.00    +0.387 N 
ATOM     27  H1  ALA A   1     -41.104  22.498   1.441  0.00  0.00    -0.089 HD
ATOM     28  H2  ALA A   1     -40.963  23.968   0.669  0.00  0.00    -0.089 HD
ATOM     29  H3  ALA A   1     -41.169  23.910   2.322  0.00  0.00    -0.089 HD
ENDBRANCH  24  26
ENDBRANCH  22  24
ENDBRANCH   1  21
BRANCH   1  30
ATOM     30  CB  PHE A   2     -35.465  20.629   2.662  0.00  0.00    +0.055 C 
BRANCH  30  31
ATOM     31  CG  PHE A   2     -35.391  21.743   3.680  0.00  0.00    -0.020 C 
ATOM     32  CD1 PHE A   2     -35.255  23.065   3.258  0.00  0.00    -0.004 C 
ATOM     33  CD2 PHE A   2     -35.457  21.447   5.041  0.00  0.00    -0.004 C 
ATOM     34  CE1 PHE A   2     -35.186  24.093   4.198  0.00  0.00    -0.000 C 
ATOM     35  CE2 PHE A   2     -35.389  22.476   5.981  0.00  0.00    -0.000 C 
ATOM     36  CZ  PHE A   2     -35.253  23.799   5.559  0.00  0.00    -0.000 C 
ENDBRANCH  30  31
ENDBRANCH   1  30
TORSDOF 11
ENDMDL
