MODEL 1
REMARK VINA RESULT:      -6.8      0.000      0.000
REMARK  Name = 5748390
REMARK  11 active torsions:
REMARK  status: ('A' for Active; 'I' for Inactive)
REMARK    1  A    between atoms: CA_1  and  N_2
REMARK    2  A    between atoms: CA_1  and  C_19
REMARK    3  A    between atoms: CA_1  and  C_22
REMARK    4  A    between atoms: N_2  and  CA_5
REMARK    5  A    between atoms: CA_5  and  C_13
REMARK    6  A    between atoms: CA_9  and  C_15
REMARK    7  A    between atoms: C_15  and  O_16
REMARK    8  A    between atoms: C_19  and  O_20
REMARK    9  A    between atoms: C_22  and  C_23
REMARK   10  A    between atoms: C_23  and  C_26
REMARK   11  A    between atoms: N_25  and  C_28
REMARK                            x       y       z     vdW  Elec       q    Type
REMARK                         _______ _______ _______ _____ _____    ______ ____
ROOT
ATOM      1  CA  UNL     1     -38.405  22.207   1.539  0.00  0.00    +0.041 C 
ENDROOT
BRANCH   1   2
ATOM      2  N   UNL     1     -38.039  22.655   2.878  0.00  0.00    +0.399 N 
ATOM      3  H1  UNL     1     -38.822  22.489   3.510  0.00  0.00    -0.083 HD
ATOM      4  H2  UNL     1     -37.217  22.133   3.181  0.00  0.00    -0.083 HD
BRANCH   2   5
ATOM      5  CA  UNL     1     -37.714  24.072   2.885  0.00  0.00    +0.018 C 
ATOM      6  CB  UNL     1     -38.913  24.903   3.300  0.00  0.00    -0.014 C 
BRANCH   5  13
ATOM      7  O   UNL     1     -36.641  23.724   4.982  0.00  0.00    -0.277 OA
ATOM      8  N   UNL     1     -35.545  25.060   3.443  0.00  0.00    -0.273 N 
ATOM      9  CA  UNL     1     -34.312  25.214   4.204  0.00  0.00    +0.174 C 
ATOM     10  CB  UNL     1     -33.303  25.761   3.201  0.00  0.00    +0.033 C 
ATOM     11  CG  UNL     1     -34.170  26.540   2.215  0.00  0.00    +0.024 C 
ATOM     12  CD  UNL     1     -35.444  25.711   2.140  0.00  0.00    +0.094 C 
ATOM     13  C   UNL     1     -36.591  24.259   3.873  0.00  0.00    +0.206 C 
BRANCH   9  15
ATOM     14  OXT UNL     1     -33.782  26.554   6.145  0.00  0.00    -0.248 OA
ATOM     15  C   UNL     1     -34.592  26.193   5.304  0.00  0.00    +0.332 C 
BRANCH  15  16
ATOM     16  O   UNL     1     -35.875  26.627   5.244  0.00  0.00    -0.479 OA
ATOM     17  H   UNL     1     -36.066  27.540   5.334  0.00  0.00    +0.295 HD
ENDBRANCH  15  16
ENDBRANCH   9  15
ENDBRANCH   5  13
ENDBRANCH   2   5
ENDBRANCH   1   2
BRANCH   1  19
ATOM     18  OXT UNL     1     -40.730  22.700   1.004  0.00  0.00    -0.253 OA
ATOM     19  C   UNL     1     -39.906  21.981   1.555  0.00  0.00    +0.293 C 
BRANCH  19  20
ATOM     20  O   UNL     1     -40.251  20.859   2.237  0.00  0.00    -0.482 OA
ATOM     21  H   UNL     1     -40.299  20.875   3.172  0.00  0.00    +0.295 HD
ENDBRANCH  19  20
ENDBRANCH   1  19
BRANCH   1  22
ATOM     22  C   UNL     1     -37.643  20.920   1.189  0.00  0.00    -0.001 C 
BRANCH  22  23
ATOM     23  C   UNL     1     -36.677  20.447   2.278  0.00  0.00    +0.084 C 
BRANCH  23  26
ATOM     24  O   UNL     1     -34.674  21.770   2.071  0.00  0.00    -0.275 OA
ATOM     25  N   UNL     1     -34.629  19.504   1.458  0.00  0.00    -0.284 N 
ATOM     26  C   UNL     1     -35.209  20.673   1.941  0.00  0.00    +0.226 C 
ATOM     27  H   UNL     1     -35.219  18.718   1.399  0.00  0.00    +0.155 HD
BRANCH  25  28
ATOM     28  C   UNL     1     -33.290  19.314   1.040  0.00  0.00    +0.050 C 
ATOM     29  C   UNL     1     -32.616  18.170   1.429  0.00  0.00    +0.015 C 
ATOM     30  C   UNL     1     -32.684  20.278   0.251  0.00  0.00    +0.015 C 
ATOM     31  C   UNL     1     -31.296  17.982   1.018  0.00  0.00    +0.001 C 
ATOM     32  C   UNL     1     -31.364  20.090  -0.161  0.00  0.00    +0.001 C 
ATOM     33  C   UNL     1     -30.670  18.943   0.223  0.00  0.00    +0.000 C 
ENDBRANCH  25  28
ENDBRANCH  23  26
ENDBRANCH  22  23
ENDBRANCH   1  22
TORSDOF 11
ENDMDL
MODEL 2
REMARK VINA RESULT:      -6.8      1.870      2.596
REMARK  Name = 5748390
REMARK  11 active torsions:
REMARK  status: ('A' for Active; 'I' for Inactive)
REMARK    1  A    between atoms: CA_1  and  N_2
REMARK    2  A    between atoms: CA_1  and  C_19
REMARK    3  A    between atoms: CA_1  and  C_22
REMARK    4  A    between atoms: N_2  and  CA_5
REMARK    5  A    between atoms: CA_5  and  C_13
REMARK    6  A    between atoms: CA_9  and  C_15
REMARK    7  A    between atoms: C_15  and  O_16
REMARK    8  A    between atoms: C_19  and  O_20
REMARK    9  A    between atoms: C_22  and  C_23
REMARK   10  A    between atoms: C_23  and  C_26
REMARK   11  A    between atoms: N_25  and  C_28
REMARK                            x       y       z     vdW  Elec       q    Type
REMARK                         _______ _______ _______ _____ _____    ______ ____
ROOT
ATOM      1  CA  UNL     1     -38.381  21.885   1.014  0.00  0.00    +0.041 C 
ENDROOT
BRANCH   1   2
ATOM      2  N   UNL     1     -37.601  23.117   0.977  0.00  0.00    +0.399 N 
ATOM      3  H1  UNL     1     -37.482  23.406   0.006  0.00  0.00    -0.083 HD
ATOM      4  H2  UNL     1     -38.101  23.833   1.505  0.00  0.00    -0.083 HD
BRANCH   2   5
ATOM      5  CA  UNL     1     -36.292  22.926   1.580  0.00  0.00    +0.018 C 
ATOM      6  CB  UNL     1     -35.187  23.226   0.587  0.00  0.00    -0.014 C 
BRANCH   5  13
ATOM      7  O   UNL     1     -36.535  25.054   2.619  0.00  0.00    -0.277 OA
ATOM      8  N   UNL     1     -35.735  23.324   3.930  0.00  0.00    -0.273 N 
ATOM      9  CA  UNL     1     -35.742  24.054   5.191  0.00  0.00    +0.174 C 
ATOM     10  CB  UNL     1     -35.598  22.978   6.262  0.00  0.00    +0.033 C 
ATOM     11  CG  UNL     1     -34.811  21.877   5.556  0.00  0.00    +0.024 C 
ATOM     12  CD  UNL     1     -35.337  21.933   4.129  0.00  0.00    +0.094 C 
ATOM     13  C   UNL     1     -36.207  23.874   2.749  0.00  0.00    +0.206 C 
BRANCH   9  15
ATOM     14  OXT UNL     1     -33.475  24.721   4.681  0.00  0.00    -0.248 OA
ATOM     15  C   UNL     1     -34.564  24.981   5.170  0.00  0.00    +0.332 C 
BRANCH  15  16
ATOM     16  O   UNL     1     -34.868  26.155   5.776  0.00  0.00    -0.479 OA
ATOM     17  H   UNL     1     -34.645  26.290   6.676  0.00  0.00    +0.295 HD
ENDBRANCH  15  16
ENDBRANCH   9  15
ENDBRANCH   5  13
ENDBRANCH   2   5
ENDBRANCH   1   2
BRANCH   1  19
ATOM     18  OXT UNL     1     -39.897  23.251   2.346  0.00  0.00    -0.253 OA
ATOM     19  C   UNL     1     -39.560  22.148   1.933  0.00  0.00    +0.293 C 
BRANCH  19  20
ATOM     20  O   UNL     1     -40.237  21.011   2.240  0.00  0.00    -0.482 OA
ATOM     21  H   UNL     1     -39.770  20.245   2.507  0.00  0.00    +0.295 HD
ENDBRANCH  19  20
ENDBRANCH   1  19
BRANCH   1  22
ATOM     22  C   UNL     1     -37.512  20.727   1.525  0.00  0.00    -0.001 C 
BRANCH  22  23
ATOM     23  C   UNL     1     -37.364  19.569   0.534  0.00  0.00    +0.084 C 
BRANCH  23  26
ATOM     24  O   UNL     1     -35.795  19.416  -1.287  0.00  0.00    -0.275 OA
ATOM     25  N   UNL     1     -35.006  19.360   0.924  0.00  0.00    -0.284 N 
ATOM     26  C   UNL     1     -35.973  19.451  -0.073  0.00  0.00    +0.226 C 
ATOM     27  H   UNL     1     -35.335  19.382   1.851  0.00  0.00    +0.155 HD
BRANCH  25  28
ATOM     28  C   UNL     1     -33.606  19.238   0.759  0.00  0.00    +0.050 C 
ATOM     29  C   UNL     1     -32.905  20.262   0.146  0.00  0.00    +0.015 C 
ATOM     30  C   UNL     1     -32.967  18.096   1.215  0.00  0.00    +0.015 C 
ATOM     31  C   UNL     1     -31.525  20.143  -0.017  0.00  0.00    +0.001 C 
ATOM     32  C   UNL     1     -31.586  17.976   1.052  0.00  0.00    +0.001 C 
ATOM     33  C   UNL     1     -30.865  18.999   0.436  0.00  0.00    +0.000 C 
ENDBRANCH  25  28
ENDBRANCH  23  26
ENDBRANCH  22  23
ENDBRANCH   1  22
TORSDOF 11
ENDMDL
MODEL 3
REMARK VINA RESULT:      -6.7      3.638      7.060
REMARK  Name = 5748390
REMARK  11 active torsions:
REMARK  status: ('A' for Active; 'I' for Inactive)
REMARK    1  A    between atoms: CA_1  and  N_2
REMARK    2  A    between atoms: CA_1  and  C_19
REMARK    3  A    between atoms: CA_1  and  C_22
REMARK    4  A    between atoms: N_2  and  CA_5
REMARK    5  A    between atoms: CA_5  and  C_13
REMARK    6  A    between atoms: CA_9  and  C_15
REMARK    7  A    between atoms: C_15  and  O_16
REMARK    8  A    between atoms: C_19  and  O_20
REMARK    9  A    between atoms: C_22  and  C_23
REMARK   10  A    between atoms: C_23  and  C_26
REMARK   11  A    between atoms: N_25  and  C_28
REMARK                            x       y       z     vdW  Elec       q    Type
REMARK                         _______ _______ _______ _____ _____    ______ ____
ROOT
ATOM      1  CA  UNL     1     -35.406  22.785   4.728  0.00  0.00    +0.041 C 
ENDROOT
BRANCH   1   2
ATOM      2  N   UNL     1     -36.750  22.544   4.218  0.00  0.00    +0.399 N 
ATOM      3  H1  UNL     1     -36.964  21.549   4.301  0.00  0.00    -0.083 HD
ATOM      4  H2  UNL     1     -37.409  23.098   4.766  0.00  0.00    -0.083 HD
BRANCH   2   5
ATOM      5  CA  UNL     1     -36.861  22.939   2.824  0.00  0.00    +0.018 C 
ATOM      6  CB  UNL     1     -37.606  21.893   2.019  0.00  0.00    -0.014 C 
BRANCH   5  13
ATOM      7  O   UNL     1     -38.667  24.368   3.428  0.00  0.00    -0.277 OA
ATOM      8  N   UNL     1     -37.050  25.246   2.025  0.00  0.00    -0.273 N 
ATOM      9  CA  UNL     1     -37.558  26.611   2.018  0.00  0.00    +0.174 C 
ATOM     10  CB  UNL     1     -36.419  27.446   1.443  0.00  0.00    +0.033 C 
ATOM     11  CG  UNL     1     -35.691  26.468   0.525  0.00  0.00    +0.024 C 
ATOM     12  CD  UNL     1     -35.808  25.142   1.264  0.00  0.00    +0.094 C 
ATOM     13  C   UNL     1     -37.616  24.244   2.798  0.00  0.00    +0.206 C 
BRANCH   9  15
ATOM     14  OXT UNL     1     -38.740  26.542  -0.090  0.00  0.00    -0.248 OA
ATOM     15  C   UNL     1     -38.765  26.627   1.128  0.00  0.00    +0.332 C 
BRANCH  15  16
ATOM     16  O   UNL     1     -39.899  26.755   1.862  0.00  0.00    -0.479 OA
ATOM     17  H   UNL     1     -40.089  27.565   2.293  0.00  0.00    +0.295 HD
ENDBRANCH  15  16
ENDBRANCH   9  15
ENDBRANCH   5  13
ENDBRANCH   2   5
ENDBRANCH   1   2
BRANCH   1  19
ATOM     18  OXT UNL     1     -35.160  22.186   7.077  0.00  0.00    -0.253 OA
ATOM     19  C   UNL     1     -35.214  21.842   5.903  0.00  0.00    +0.293 C 
BRANCH  19  20
ATOM     20  O   UNL     1     -35.130  20.544   5.513  0.00  0.00    -0.482 OA
ATOM     21  H   UNL     1     -35.683  20.223   4.828  0.00  0.00    +0.295 HD
ENDBRANCH  19  20
ENDBRANCH   1  19
BRANCH   1  22
ATOM     22  C   UNL     1     -35.258  24.254   5.151  0.00  0.00    -0.001 C 
BRANCH  22  23
ATOM     23  C   UNL     1     -34.093  24.985   4.480  0.00  0.00    +0.084 C 
BRANCH  23  26
ATOM     24  O   UNL     1     -35.132  27.144   4.734  0.00  0.00    -0.275 OA
ATOM     25  N   UNL     1     -32.794  26.968   4.853  0.00  0.00    -0.284 N 
ATOM     26  C   UNL     1     -34.094  26.490   4.713  0.00  0.00    +0.226 C 
ATOM     27  H   UNL     1     -32.076  26.298   4.785  0.00  0.00    +0.155 HD
BRANCH  25  28
ATOM     28  C   UNL     1     -32.386  28.303   5.080  0.00  0.00    +0.050 C 
ATOM     29  C   UNL     1     -32.427  29.210   4.035  0.00  0.00    +0.015 C 
ATOM     30  C   UNL     1     -31.954  28.674   6.343  0.00  0.00    +0.015 C 
ATOM     31  C   UNL     1     -32.024  30.527   4.258  0.00  0.00    +0.001 C 
ATOM     32  C   UNL     1     -31.551  29.991   6.567  0.00  0.00    +0.001 C 
ATOM     33  C   UNL     1     -31.586  30.918   5.524  0.00  0.00    +0.000 C 
ENDBRANCH  25  28
ENDBRANCH  23  26
ENDBRANCH  22  23
ENDBRANCH   1  22
TORSDOF 11
ENDMDL
MODEL 4
REMARK VINA RESULT:      -6.7      2.859      7.497
REMARK  Name = 5748390
REMARK  11 active torsions:
REMARK  status: ('A' for Active; 'I' for Inactive)
REMARK    1  A    between atoms: CA_1  and  N_2
REMARK    2  A    between atoms: CA_1  and  C_19
REMARK    3  A    between atoms: CA_1  and  C_22
REMARK    4  A    between atoms: N_2  and  CA_5
REMARK    5  A    between atoms: CA_5  and  C_13
REMARK    6  A    between atoms: CA_9  and  C_15
REMARK    7  A    between atoms: C_15  and  O_16
REMARK    8  A    between atoms: C_19  and  O_20
REMARK    9  A    between atoms: C_22  and  C_23
REMARK   10  A    between atoms: C_23  and  C_26
REMARK   11  A    between atoms: N_25  and  C_28
REMARK                            x       y       z     vdW  Elec       q    Type
REMARK                         _______ _______ _______ _____ _____    ______ ____
ROOT
ATOM      1  CA  UNL     1     -35.173  22.789   4.546  0.00  0.00    +0.041 C 
ENDROOT
BRANCH   1   2
ATOM      2  N   UNL     1     -36.447  23.228   3.990  0.00  0.00    +0.399 N 
ATOM      3  H1  UNL     1     -37.158  23.196   4.722  0.00  0.00    -0.083 HD
ATOM      4  H2  UNL     1     -36.337  24.180   3.639  0.00  0.00    -0.083 HD
BRANCH   2   5
ATOM      5  CA  UNL     1     -36.861  22.374   2.889  0.00  0.00    +0.018 C 
ATOM      6  CB  UNL     1     -38.274  22.700   2.448  0.00  0.00    -0.014 C 
BRANCH   5  13
ATOM      7  O   UNL     1     -35.832  23.733   1.226  0.00  0.00    -0.277 OA
ATOM      8  N   UNL     1     -35.130  21.533   1.375  0.00  0.00    -0.273 N 
ATOM      9  CA  UNL     1     -34.042  21.640   0.413  0.00  0.00    +0.174 C 
ATOM     10  CB  UNL     1     -33.205  20.385   0.634  0.00  0.00    +0.033 C 
ATOM     11  CG  UNL     1     -34.222  19.363   1.135  0.00  0.00    +0.024 C 
ATOM     12  CD  UNL     1     -35.174  20.202   1.976  0.00  0.00    +0.094 C 
ATOM     13  C   UNL     1     -35.897  22.623   1.757  0.00  0.00    +0.206 C 
BRANCH   9  15
ATOM     14  OXT UNL     1     -35.096  20.686  -1.542  0.00  0.00    -0.248 OA
ATOM     15  C   UNL     1     -34.661  21.663  -0.953  0.00  0.00    +0.332 C 
BRANCH  15  16
ATOM     16  O   UNL     1     -34.669  22.924  -1.452  0.00  0.00    -0.479 OA
ATOM     17  H   UNL     1     -34.527  23.655  -0.883  0.00  0.00    +0.295 HD
ENDBRANCH  15  16
ENDBRANCH   9  15
ENDBRANCH   5  13
ENDBRANCH   2   5
ENDBRANCH   1   2
BRANCH   1  19
ATOM     18  OXT UNL     1     -36.122  22.170   6.704  0.00  0.00    -0.253 OA
ATOM     19  C   UNL     1     -35.503  21.853   5.696  0.00  0.00    +0.293 C 
BRANCH  19  20
ATOM     20  O   UNL     1     -35.053  20.590   5.477  0.00  0.00    -0.482 OA
ATOM     21  H   UNL     1     -35.397  20.087   4.766  0.00  0.00    +0.295 HD
ENDBRANCH  19  20
ENDBRANCH   1  19
BRANCH   1  22
ATOM     22  C   UNL     1     -34.359  24.002   5.020  0.00  0.00    -0.001 C 
BRANCH  22  23
ATOM     23  C   UNL     1     -34.135  25.066   3.942  0.00  0.00    +0.084 C 
BRANCH  23  26
ATOM     24  O   UNL     1     -35.191  27.051   4.809  0.00  0.00    -0.275 OA
ATOM     25  N   UNL     1     -32.867  27.032   4.475  0.00  0.00    -0.284 N 
ATOM     26  C   UNL     1     -34.150  26.493   4.473  0.00  0.00    +0.226 C 
ATOM     27  H   UNL     1     -32.149  26.444   4.147  0.00  0.00    +0.155 HD
BRANCH  25  28
ATOM     28  C   UNL     1     -32.475  28.325   4.893  0.00  0.00    +0.050 C 
ATOM     29  C   UNL     1     -31.970  28.500   6.170  0.00  0.00    +0.015 C 
ATOM     30  C   UNL     1     -32.605  29.389   4.016  0.00  0.00    +0.015 C 
ATOM     31  C   UNL     1     -31.584  29.774   6.584  0.00  0.00    +0.001 C 
ATOM     32  C   UNL     1     -32.218  30.665   4.428  0.00  0.00    +0.001 C 
ATOM     33  C   UNL     1     -31.708  30.858   5.713  0.00  0.00    +0.000 C 
ENDBRANCH  25  28
ENDBRANCH  23  26
ENDBRANCH  22  23
ENDBRANCH   1  22
TORSDOF 11
ENDMDL
MODEL 5
REMARK VINA RESULT:      -6.6      3.030      7.614
REMARK  Name = 5748390
REMARK  11 active torsions:
REMARK  status: ('A' for Active; 'I' for Inactive)
REMARK    1  A    between atoms: CA_1  and  N_2
REMARK    2  A    between atoms: CA_1  and  C_19
REMARK    3  A    between atoms: CA_1  and  C_22
REMARK    4  A    between atoms: N_2  and  CA_5
REMARK    5  A    between atoms: CA_5  and  C_13
REMARK    6  A    between atoms: CA_9  and  C_15
REMARK    7  A    between atoms: C_15  and  O_16
REMARK    8  A    between atoms: C_19  and  O_20
REMARK    9  A    between atoms: C_22  and  C_23
REMARK   10  A    between atoms: C_23  and  C_26
REMARK   11  A    between atoms: N_25  and  C_28
REMARK                            x       y       z     vdW  Elec       q    Type
REMARK                         _______ _______ _______ _____ _____    ______ ____
ROOT
ATOM      1  CA  UNL     1     -35.346  22.830   4.715  0.00  0.00    +0.041 C 
ENDROOT
BRANCH   1   2
ATOM      2  N   UNL     1     -36.711  22.733   4.211  0.00  0.00    +0.399 N 
ATOM      3  H1  UNL     1     -37.110  21.839   4.501  0.00  0.00    -0.083 HD
ATOM      4  H2  UNL     1     -37.254  23.508   4.593  0.00  0.00    -0.083 HD
BRANCH   2   5
ATOM      5  CA  UNL     1     -36.741  22.818   2.760  0.00  0.00    +0.018 C 
ATOM      6  CB  UNL     1     -35.900  21.725   2.133  0.00  0.00    -0.014 C 
BRANCH   5  13
ATOM      7  O   UNL     1     -38.675  21.544   2.208  0.00  0.00    -0.277 OA
ATOM      8  N   UNL     1     -38.869  23.848   2.123  0.00  0.00    -0.273 N 
ATOM      9  CA  UNL     1     -40.304  23.885   1.873  0.00  0.00    +0.174 C 
ATOM     10  CB  UNL     1     -40.708  25.329   2.150  0.00  0.00    +0.033 C 
ATOM     11  CG  UNL     1     -39.446  26.121   1.820  0.00  0.00    +0.024 C 
ATOM     12  CD  UNL     1     -38.325  25.195   2.271  0.00  0.00    +0.094 C 
ATOM     13  C   UNL     1     -38.181  22.665   2.343  0.00  0.00    +0.206 C 
BRANCH   9  15
ATOM     14  OXT UNL     1     -40.265  24.239  -0.519  0.00  0.00    -0.248 OA
ATOM     15  C   UNL     1     -40.511  23.515   0.434  0.00  0.00    +0.332 C 
BRANCH  15  16
ATOM     16  O   UNL     1     -41.015  22.261   0.331  0.00  0.00    -0.479 OA
ATOM     17  H   UNL     1     -40.442  21.520   0.374  0.00  0.00    +0.295 HD
ENDBRANCH  15  16
ENDBRANCH   9  15
ENDBRANCH   5  13
ENDBRANCH   2   5
ENDBRANCH   1   2
BRANCH   1  19
ATOM     18  OXT UNL     1     -35.258  22.151   7.054  0.00  0.00    -0.253 OA
ATOM     19  C   UNL     1     -35.240  21.847   5.867  0.00  0.00    +0.293 C 
BRANCH  19  20
ATOM     20  O   UNL     1     -35.147  20.561   5.440  0.00  0.00    -0.482 OA
ATOM     21  H   UNL     1     -35.068  20.375   4.526  0.00  0.00    +0.295 HD
ENDBRANCH  19  20
ENDBRANCH   1  19
BRANCH   1  22
ATOM     22  C   UNL     1     -35.054  24.268   5.169  0.00  0.00    -0.001 C 
BRANCH  22  23
ATOM     23  C   UNL     1     -34.133  25.047   4.226  0.00  0.00    +0.084 C 
BRANCH  23  26
ATOM     24  O   UNL     1     -35.130  27.232   4.422  0.00  0.00    -0.275 OA
ATOM     25  N   UNL     1     -32.819  26.984   4.755  0.00  0.00    -0.284 N 
ATOM     26  C   UNL     1     -34.113  26.548   4.486  0.00  0.00    +0.226 C 
ATOM     27  H   UNL     1     -32.117  26.294   4.742  0.00  0.00    +0.155 HD
BRANCH  25  28
ATOM     28  C   UNL     1     -32.396  28.303   5.044  0.00  0.00    +0.050 C 
ATOM     29  C   UNL     1     -32.421  29.256   4.040  0.00  0.00    +0.015 C 
ATOM     30  C   UNL     1     -31.966  28.611   6.324  0.00  0.00    +0.015 C 
ATOM     31  C   UNL     1     -32.004  30.557   4.324  0.00  0.00    +0.001 C 
ATOM     32  C   UNL     1     -31.549  29.912   6.608  0.00  0.00    +0.001 C 
ATOM     33  C   UNL     1     -31.567  30.885   5.608  0.00  0.00    +0.000 C 
ENDBRANCH  25  28
ENDBRANCH  23  26
ENDBRANCH  22  23
ENDBRANCH   1  22
TORSDOF 11
ENDMDL
MODEL 6
REMARK VINA RESULT:      -6.6      2.998      7.977
REMARK  Name = 5748390
REMARK  11 active torsions:
REMARK  status: ('A' for Active; 'I' for Inactive)
REMARK    1  A    between atoms: CA_1  and  N_2
REMARK    2  A    between atoms: CA_1  and  C_19
REMARK    3  A    between atoms: CA_1  and  C_22
REMARK    4  A    between atoms: N_2  and  CA_5
REMARK    5  A    between atoms: CA_5  and  C_13
REMARK    6  A    between atoms: CA_9  and  C_15
REMARK    7  A    between atoms: C_15  and  O_16
REMARK    8  A    between atoms: C_19  and  O_20
REMARK    9  A    between atoms: C_22  and  C_23
REMARK   10  A    between atoms: C_23  and  C_26
REMARK   11  A    between atoms: N_25  and  C_28
REMARK                            x       y       z     vdW  Elec       q    Type
REMARK                         _______ _______ _______ _____ _____    ______ ____
ROOT
ATOM      1  CA  UNL     1     -35.562  22.784   4.562  0.00  0.00    +0.041 C 
ENDROOT
BRANCH   1   2
ATOM      2  N   UNL     1     -36.696  22.425   3.718  0.00  0.00    +0.399 N 
ATOM      3  H1  UNL     1     -37.045  21.509   4.003  0.00  0.00    -0.083 HD
ATOM      4  H2  UNL     1     -37.420  23.135   3.827  0.00  0.00    -0.083 HD
BRANCH   2   5
ATOM      5  CA  UNL     1     -36.309  22.370   2.318  0.00  0.00    +0.018 C 
ATOM      6  CB  UNL     1     -34.983  23.068   2.091  0.00  0.00    -0.014 C 
BRANCH   5  13
ATOM      7  O   UNL     1     -35.530  20.145   2.651  0.00  0.00    -0.277 OA
ATOM      8  N   UNL     1     -36.865  20.531   0.801  0.00  0.00    -0.273 N 
ATOM      9  CA  UNL     1     -36.991  19.137   0.394  0.00  0.00    +0.174 C 
ATOM     10  CB  UNL     1     -38.144  19.128  -0.603  0.00  0.00    +0.033 C 
ATOM     11  CG  UNL     1     -38.091  20.523  -1.221  0.00  0.00    +0.024 C 
ATOM     12  CD  UNL     1     -37.662  21.404  -0.056  0.00  0.00    +0.094 C 
ATOM     13  C   UNL     1     -36.194  20.912   1.952  0.00  0.00    +0.206 C 
BRANCH   9  15
ATOM     14  OXT UNL     1     -35.327  19.101  -1.360  0.00  0.00    -0.248 OA
ATOM     15  C   UNL     1     -35.694  18.746  -0.250  0.00  0.00    +0.332 C 
BRANCH  15  16
ATOM     16  O   UNL     1     -34.978  17.937   0.569  0.00  0.00    -0.479 OA
ATOM     17  H   UNL     1     -35.117  17.966   1.495  0.00  0.00    +0.295 HD
ENDBRANCH  15  16
ENDBRANCH   9  15
ENDBRANCH   5  13
ENDBRANCH   2   5
ENDBRANCH   1   2
BRANCH   1  19
ATOM     18  OXT UNL     1     -36.013  22.081   6.851  0.00  0.00    -0.253 OA
ATOM     19  C   UNL     1     -35.576  21.823   5.737  0.00  0.00    +0.293 C 
BRANCH  19  20
ATOM     20  O   UNL     1     -35.065  20.607   5.412  0.00  0.00    -0.482 OA
ATOM     21  H   UNL     1     -35.486  19.826   5.714  0.00  0.00    +0.295 HD
ENDBRANCH  19  20
ENDBRANCH   1  19
BRANCH   1  22
ATOM     22  C   UNL     1     -35.693  24.243   5.024  0.00  0.00    -0.001 C 
BRANCH  22  23
ATOM     23  C   UNL     1     -34.389  24.855   5.543  0.00  0.00    +0.084 C 
BRANCH  23  26
ATOM     24  O   UNL     1     -35.159  26.997   4.753  0.00  0.00    -0.275 OA
ATOM     25  N   UNL     1     -32.982  26.797   5.608  0.00  0.00    -0.284 N 
ATOM     26  C   UNL     1     -34.250  26.344   5.256  0.00  0.00    +0.226 C 
ATOM     27  H   UNL     1     -32.368  26.124   5.980  0.00  0.00    +0.155 HD
BRANCH  25  28
ATOM     28  C   UNL     1     -32.473  28.112   5.492  0.00  0.00    +0.050 C 
ATOM     29  C   UNL     1     -32.475  28.732   4.254  0.00  0.00    +0.015 C 
ATOM     30  C   UNL     1     -31.983  28.751   6.619  0.00  0.00    +0.015 C 
ATOM     31  C   UNL     1     -31.974  30.029   4.139  0.00  0.00    +0.001 C 
ATOM     32  C   UNL     1     -31.482  30.048   6.505  0.00  0.00    +0.001 C 
ATOM     33  C   UNL     1     -31.477  30.687   5.265  0.00  0.00    +0.000 C 
ENDBRANCH  25  28
ENDBRANCH  23  26
ENDBRANCH  22  23
ENDBRANCH   1  22
TORSDOF 11
ENDMDL
MODEL 7
REMARK VINA RESULT:      -6.5      3.164      6.730
REMARK  Name = 5748390
REMARK  11 active torsions:
REMARK  status: ('A' for Active; 'I' for Inactive)
REMARK    1  A    between atoms: CA_1  and  N_2
REMARK    2  A    between atoms: CA_1  and  C_19
REMARK    3  A    between atoms: CA_1  and  C_22
REMARK    4  A    between atoms: N_2  and  CA_5
REMARK    5  A    between atoms: CA_5  and  C_13
REMARK    6  A    between atoms: CA_9  and  C_15
REMARK    7  A    between atoms: C_15  and  O_16
REMARK    8  A    between atoms: C_19  and  O_20
REMARK    9  A    between atoms: C_22  and  C_23
REMARK   10  A    between atoms: C_23  and  C_26
REMARK   11  A    between atoms: N_25  and  C_28
REMARK                            x       y       z     vdW  Elec       q    Type
REMARK                         _______ _______ _______ _____ _____    ______ ____
ROOT
ATOM      1  CA  UNL     1     -35.541  22.528   3.770  0.00  0.00    +0.041 C 
ENDROOT
BRANCH   1   2
ATOM      2  N   UNL     1     -36.985  22.700   3.866  0.00  0.00    +0.399 N 
ATOM      3  H1  UNL     1     -37.399  21.845   4.238  0.00  0.00    -0.083 HD
ATOM      4  H2  UNL     1     -37.177  23.489   4.484  0.00  0.00    -0.083 HD
BRANCH   2   5
ATOM      5  CA  UNL     1     -37.567  22.981   2.563  0.00  0.00    +0.018 C 
ATOM      6  CB  UNL     1     -38.497  21.865   2.130  0.00  0.00    -0.014 C 
BRANCH   5  13
ATOM      7  O   UNL     1     -38.864  24.574   3.767  0.00  0.00    -0.277 OA
ATOM      8  N   UNL     1     -38.401  25.048   1.550  0.00  0.00    -0.273 N 
ATOM      9  CA  UNL     1     -38.962  26.393   1.547  0.00  0.00    +0.174 C 
ATOM     10  CB  UNL     1     -38.428  27.032   0.270  0.00  0.00    +0.033 C 
ATOM     11  CG  UNL     1     -38.240  25.844  -0.670  0.00  0.00    +0.024 C 
ATOM     12  CD  UNL     1     -37.790  24.729   0.263  0.00  0.00    +0.094 C 
ATOM     13  C   UNL     1     -38.335  24.271   2.696  0.00  0.00    +0.206 C 
BRANCH   9  15
ATOM     14  OXT UNL     1     -41.053  25.206   1.289  0.00  0.00    -0.248 OA
ATOM     15  C   UNL     1     -40.454  26.247   1.515  0.00  0.00    +0.332 C 
BRANCH  15  16
ATOM     16  O   UNL     1     -41.056  27.435   1.769  0.00  0.00    -0.479 OA
ATOM     17  H   UNL     1     -40.630  28.236   1.533  0.00  0.00    +0.295 HD
ENDBRANCH  15  16
ENDBRANCH   9  15
ENDBRANCH   5  13
ENDBRANCH   2   5
ENDBRANCH   1   2
BRANCH   1  19
ATOM     18  OXT UNL     1     -35.172  20.260   2.958  0.00  0.00    -0.253 OA
ATOM     19  C   UNL     1     -35.274  21.039   3.898  0.00  0.00    +0.293 C 
BRANCH  19  20
ATOM     20  O   UNL     1     -35.132  20.650   5.192  0.00  0.00    -0.482 OA
ATOM     21  H   UNL     1     -35.170  21.285   5.879  0.00  0.00    +0.295 HD
ENDBRANCH  19  20
ENDBRANCH   1  19
BRANCH   1  22
ATOM     22  C   UNL     1     -34.841  23.325   4.881  0.00  0.00    -0.001 C 
BRANCH  22  23
ATOM     23  C   UNL     1     -35.750  24.319   5.608  0.00  0.00    +0.084 C 
BRANCH  23  26
ATOM     24  O   UNL     1     -36.116  26.674   5.255  0.00  0.00    -0.275 OA
ATOM     25  N   UNL     1     -33.930  25.881   5.583  0.00  0.00    -0.284 N 
ATOM     26  C   UNL     1     -35.313  25.771   5.469  0.00  0.00    +0.226 C 
ATOM     27  H   UNL     1     -33.438  25.042   5.732  0.00  0.00    +0.155 HD
BRANCH  25  28
ATOM     28  C   UNL     1     -33.151  27.060   5.509  0.00  0.00    +0.050 C 
ATOM     29  C   UNL     1     -33.010  27.703   4.291  0.00  0.00    +0.015 C 
ATOM     30  C   UNL     1     -32.545  27.544   6.657  0.00  0.00    +0.015 C 
ATOM     31  C   UNL     1     -32.241  28.864   4.217  0.00  0.00    +0.001 C 
ATOM     32  C   UNL     1     -31.776  28.707   6.584  0.00  0.00    +0.001 C 
ATOM     33  C   UNL     1     -31.624  29.367   5.364  0.00  0.00    +0.000 C 
ENDBRANCH  25  28
ENDBRANCH  23  26
ENDBRANCH  22  23
ENDBRANCH   1  22
TORSDOF 11
ENDMDL
MODEL 8
REMARK VINA RESULT:      -6.5      1.544      2.227
REMARK  Name = 5748390
REMARK  11 active torsions:
REMARK  status: ('A' for Active; 'I' for Inactive)
REMARK    1  A    between atoms: CA_1  and  N_2
REMARK    2  A    between atoms: CA_1  and  C_19
REMARK    3  A    between atoms: CA_1  and  C_22
REMARK    4  A    between atoms: N_2  and  CA_5
REMARK    5  A    between atoms: CA_5  and  C_13
REMARK    6  A    between atoms: CA_9  and  C_15
REMARK    7  A    between atoms: C_15  and  O_16
REMARK    8  A    between atoms: C_19  and  O_20
REMARK    9  A    between atoms: C_22  and  C_23
REMARK   10  A    between atoms: C_23  and  C_26
REMARK   11  A    between atoms: N_25  and  C_28
REMARK                            x       y       z     vdW  Elec       q    Type
REMARK                         _______ _______ _______ _____ _____    ______ ____
ROOT
ATOM      1  CA  UNL     1     -38.332  22.317   1.325  0.00  0.00    +0.041 C 
ENDROOT
BRANCH   1   2
ATOM      2  N   UNL     1     -37.867  23.697   1.402  0.00  0.00    +0.399 N 
ATOM      3  H1  UNL     1     -38.218  24.211   0.593  0.00  0.00    -0.083 HD
ATOM      4  H2  UNL     1     -38.217  24.109   2.268  0.00  0.00    -0.083 HD
BRANCH   2   5
ATOM      5  CA  UNL     1     -36.415  23.761   1.412  0.00  0.00    +0.018 C 
ATOM      6  CB  UNL     1     -35.858  23.712   0.004  0.00  0.00    -0.014 C 
BRANCH   5  13
ATOM      7  O   UNL     1     -35.996  26.104   1.413  0.00  0.00    -0.277 OA
ATOM      8  N   UNL     1     -35.749  24.987   3.424  0.00  0.00    -0.273 N 
ATOM      9  CA  UNL     1     -35.526  26.169   4.246  0.00  0.00    +0.174 C 
ATOM     10  CB  UNL     1     -35.707  25.684   5.680  0.00  0.00    +0.033 C 
ATOM     11  CG  UNL     1     -35.295  24.216   5.613  0.00  0.00    +0.024 C 
ATOM     12  CD  UNL     1     -35.789  23.777   4.242  0.00  0.00    +0.094 C 
ATOM     13  C   UNL     1     -36.040  25.063   2.071  0.00  0.00    +0.206 C 
BRANCH   9  15
ATOM     14  OXT UNL     1     -33.170  25.892   3.780  0.00  0.00    -0.248 OA
ATOM     15  C   UNL     1     -34.123  26.629   3.986  0.00  0.00    +0.332 C 
BRANCH  15  16
ATOM     16  O   UNL     1     -34.050  27.983   4.014  0.00  0.00    -0.479 OA
ATOM     17  H   UNL     1     -34.720  28.479   4.440  0.00  0.00    +0.295 HD
ENDBRANCH  15  16
ENDBRANCH   9  15
ENDBRANCH   5  13
ENDBRANCH   2   5
ENDBRANCH   1   2
BRANCH   1  19
ATOM     18  OXT UNL     1     -40.513  23.320   1.747  0.00  0.00    -0.253 OA
ATOM     19  C   UNL     1     -39.793  22.329   1.740  0.00  0.00    +0.293 C 
BRANCH  19  20
ATOM     20  O   UNL     1     -40.239  21.095   2.089  0.00  0.00    -0.482 OA
ATOM     21  H   UNL     1     -40.978  20.722   1.650  0.00  0.00    +0.295 HD
ENDBRANCH  19  20
ENDBRANCH   1  19
BRANCH   1  22
ATOM     22  C   UNL     1     -37.489  21.425   2.249  0.00  0.00    -0.001 C 
BRANCH  22  23
ATOM     23  C   UNL     1     -36.849  20.224   1.548  0.00  0.00    +0.084 C 
BRANCH  23  26
ATOM     24  O   UNL     1     -34.899  20.297   2.959  0.00  0.00    -0.275 OA
ATOM     25  N   UNL     1     -34.679  19.623   0.721  0.00  0.00    -0.284 N 
ATOM     26  C   UNL     1     -35.368  20.049   1.853  0.00  0.00    +0.226 C 
ATOM     27  H   UNL     1     -35.217  19.497  -0.093  0.00  0.00    +0.155 HD
BRANCH  25  28
ATOM     28  C   UNL     1     -33.295  19.352   0.605  0.00  0.00    +0.050 C 
ATOM     29  C   UNL     1     -32.479  20.262  -0.045  0.00  0.00    +0.015 C 
ATOM     30  C   UNL     1     -32.787  18.182   1.145  0.00  0.00    +0.015 C 
ATOM     31  C   UNL     1     -31.115  19.995  -0.160  0.00  0.00    +0.001 C 
ATOM     32  C   UNL     1     -31.422  17.915   1.031  0.00  0.00    +0.001 C 
ATOM     33  C   UNL     1     -30.585  18.821   0.378  0.00  0.00    +0.000 C 
ENDBRANCH  25  28
ENDBRANCH  23  26
ENDBRANCH  22  23
ENDBRANCH   1  22
TORSDOF 11
ENDMDL
MODEL 9
REMARK VINA RESULT:      -6.4      2.731      3.741
REMARK  Name = 5748390
REMARK  11 active torsions:
REMARK  status: ('A' for Active; 'I' for Inactive)
REMARK    1  A    between atoms: CA_1  and  N_2
REMARK    2  A    between atoms: CA_1  and  C_19
REMARK    3  A    between atoms: CA_1  and  C_22
REMARK    4  A    between atoms: N_2  and  CA_5
REMARK    5  A    between atoms: CA_5  and  C_13
REMARK    6  A    between atoms: CA_9  and  C_15
REMARK    7  A    between atoms: C_15  and  O_16
REMARK    8  A    between atoms: C_19  and  O_20
REMARK    9  A    between atoms: C_22  and  C_23
REMARK   10  A    between atoms: C_23  and  C_26
REMARK   11  A    between atoms: N_25  and  C_28
REMARK                            x       y       z     vdW  Elec       q    Type
REMARK                         _______ _______ _______ _____ _____    ______ ____
ROOT
ATOM      1  CA  UNL     1     -35.812  23.356   4.488  0.00  0.00    +0.041 C 
ENDROOT
BRANCH   1   2
ATOM      2  N   UNL     1     -34.655  24.239   4.569  0.00  0.00    +0.399 N 
ATOM      3  H1  UNL     1     -34.143  24.039   5.429  0.00  0.00    -0.083 HD
ATOM      4  H2  UNL     1     -34.063  24.075   3.754  0.00  0.00    -0.083 HD
BRANCH   2   5
ATOM      5  CA  UNL     1     -35.060  25.635   4.572  0.00  0.00    +0.018 C 
ATOM      6  CB  UNL     1     -36.192  25.871   5.552  0.00  0.00    -0.014 C 
BRANCH   5  13
ATOM      7  O   UNL     1     -33.362  26.309   6.098  0.00  0.00    -0.277 OA
ATOM      8  N   UNL     1     -33.369  27.315   4.014  0.00  0.00    -0.273 N 
ATOM      9  CA  UNL     1     -32.120  28.047   4.179  0.00  0.00    +0.174 C 
ATOM     10  CB  UNL     1     -31.744  28.492   2.770  0.00  0.00    +0.033 C 
ATOM     11  CG  UNL     1     -33.093  28.630   2.069  0.00  0.00    +0.024 C 
ATOM     12  CD  UNL     1     -33.917  27.502   2.674  0.00  0.00    +0.094 C 
ATOM     13  C   UNL     1     -33.852  26.441   4.975  0.00  0.00    +0.206 C 
BRANCH   9  15
ATOM     14  OXT UNL     1     -32.890  30.276   4.710  0.00  0.00    -0.248 OA
ATOM     15  C   UNL     1     -32.408  29.215   5.074  0.00  0.00    +0.332 C 
BRANCH  15  16
ATOM     16  O   UNL     1     -32.054  28.935   6.353  0.00  0.00    -0.479 OA
ATOM     17  H   UNL     1     -31.149  28.925   6.597  0.00  0.00    +0.295 HD
ENDBRANCH  15  16
ENDBRANCH   9  15
ENDBRANCH   5  13
ENDBRANCH   2   5
ENDBRANCH   1   2
BRANCH   1  19
ATOM     18  OXT UNL     1     -35.367  22.214   6.595  0.00  0.00    -0.253 OA
ATOM     19  C   UNL     1     -35.508  22.164   5.379  0.00  0.00    +0.293 C 
BRANCH  19  20
ATOM     20  O   UNL     1     -35.433  21.003   4.678  0.00  0.00    -0.482 OA
ATOM     21  H   UNL     1     -36.003  20.291   4.888  0.00  0.00    +0.295 HD
ENDBRANCH  19  20
ENDBRANCH   1  19
BRANCH   1  22
ATOM     22  C   UNL     1     -36.047  22.928   3.032  0.00  0.00    -0.001 C 
BRANCH  22  23
ATOM     23  C   UNL     1     -34.874  23.225   2.094  0.00  0.00    +0.084 C 
BRANCH  23  26
ATOM     24  O   UNL     1     -34.349  22.334  -0.082  0.00  0.00    -0.275 OA
ATOM     25  N   UNL     1     -34.652  20.864   1.724  0.00  0.00    -0.284 N 
ATOM     26  C   UNL     1     -34.580  22.107   1.102  0.00  0.00    +0.226 C 
ATOM     27  H   UNL     1     -34.874  20.871   2.683  0.00  0.00    +0.155 HD
BRANCH  25  28
ATOM     28  C   UNL     1     -34.443  19.594   1.138  0.00  0.00    +0.050 C 
ATOM     29  C   UNL     1     -33.257  18.922   1.382  0.00  0.00    +0.015 C 
ATOM     30  C   UNL     1     -35.430  19.048   0.334  0.00  0.00    +0.015 C 
ATOM     31  C   UNL     1     -33.050  17.670   0.805  0.00  0.00    +0.001 C 
ATOM     32  C   UNL     1     -35.224  17.795  -0.244  0.00  0.00    +0.001 C 
ATOM     33  C   UNL     1     -34.034  17.105  -0.009  0.00  0.00    +0.000 C 
ENDBRANCH  25  28
ENDBRANCH  23  26
ENDBRANCH  22  23
ENDBRANCH   1  22
TORSDOF 11
ENDMDL
