MODEL 1
REMARK VINA RESULT:      -7.2      0.000      0.000
REMARK  Name = 191225
REMARK  6 active torsions:
REMARK  status: ('A' for Active; 'I' for Inactive)
REMARK    1  A    between atoms: C_2  and  O_3
REMARK    2  A    between atoms: C_2  and  C_19
REMARK    3  A    between atoms: O_3  and  C_10
REMARK    4  A    between atoms: C_19  and  N_20
REMARK    5  A    between atoms: C_19  and  C_24
REMARK    6  A    between atoms: C_24  and  C_26
REMARK                            x       y       z     vdW  Elec       q    Type
REMARK                         _______ _______ _______ _____ _____    ______ ____
ROOT
ATOM      1  O   UNL     1     -40.392  22.038   1.824  0.00  0.00    -0.252 OA
ATOM      2  C   UNL     1     -39.245  22.301   2.165  0.00  0.00    +0.299 C 
ENDROOT
BRANCH   2   3
ATOM      3  O   UNL     1     -38.850  23.337   2.963  0.00  0.00    -0.417 OA
BRANCH   3  10
ATOM      4  O   UNL     1     -41.822  26.773   0.052  0.00  0.00    -0.266 OA
ATOM      5  O   UNL     1     -42.904  28.875   4.049  0.00  0.00    -0.247 OA
ATOM      6  N   UNL     1     -40.170  24.880   1.754  0.00  0.00    -0.278 N 
ATOM      7  N   UNL     1     -40.042  25.086   3.976  0.00  0.00    -0.270 N 
ATOM      8  N   UNL     1     -41.505  27.043   4.139  0.00  0.00    -0.294 N 
ATOM      9  N   UNL     1     -42.359  27.820   2.057  0.00  0.00    -0.273 N 
ATOM     10  C   UNL     1     -39.656  24.398   2.927  0.00  0.00    +0.330 C 
ATOM     11  C   UNL     1     -40.943  25.955   2.082  0.00  0.00    +0.135 A 
ATOM     12  C   UNL     1     -40.843  26.053   3.446  0.00  0.00    +0.131 A 
ATOM     13  C   UNL     1     -41.719  26.843   1.273  0.00  0.00    +0.277 A 
ATOM     14  C   UNL     1     -42.298  27.975   3.463  0.00  0.00    +0.328 A 
ATOM     15  H   UNL     1     -40.013  24.520   0.850  0.00  0.00    +0.152 HD
ATOM     16  H   UNL     1     -39.810  24.937   4.922  0.00  0.00    +0.153 HD
ATOM     17  H   UNL     1     -41.419  27.094   5.119  0.00  0.00    +0.172 HD
ATOM     18  H   UNL     1     -42.914  28.472   1.571  0.00  0.00    +0.173 HD
ENDBRANCH   3  10
ENDBRANCH   2   3
BRANCH   2  19
ATOM     19  C   UNL     1     -38.014  21.518   1.736  0.00  0.00    +0.036 C 
BRANCH  19  20
ATOM     20  N   UNL     1     -38.404  20.597   0.668  0.00  0.00    +0.389 N 
ATOM     21  H   UNL     1     -37.808  20.750  -0.146  0.00  0.00    -0.088 HD
ATOM     22  H   UNL     1     -39.377  20.765   0.413  0.00  0.00    -0.088 HD
ATOM     23  H   UNL     1     -38.297  19.636   0.992  0.00  0.00    -0.088 HD
ENDBRANCH  19  20
BRANCH  19  24
ATOM     24  C   UNL     1     -36.872  22.445   1.283  0.00  0.00    -0.005 C 
BRANCH  24  26
ATOM     25  N   UNL     1     -35.157  20.337   3.420  0.00  0.00    -0.270 NA
ATOM     26  C   UNL     1     -35.543  22.203   1.973  0.00  0.00    +0.046 C 
ATOM     27  C   UNL     1     -35.510  22.641   3.401  0.00  0.00    -0.007 C 
ATOM     28  C   UNL     1     -35.302  20.711   2.183  0.00  0.00    +0.130 C 
ATOM     29  C   UNL     1     -35.278  21.508   4.191  0.00  0.00    +0.071 C 
ATOM     30  C   UNL     1     -35.657  23.896   3.961  0.00  0.00    -0.024 C 
ATOM     31  C   UNL     1     -35.193  21.608   5.569  0.00  0.00    +0.014 C 
ATOM     32  C   UNL     1     -35.573  24.005   5.350  0.00  0.00    +0.052 C 
ATOM     33  C   UNL     1     -35.343  22.871   6.148  0.00  0.00    -0.020 C 
ENDBRANCH  24  26
ENDBRANCH  19  24
ENDBRANCH   2  19
TORSDOF 6
ENDMDL
MODEL 2
REMARK VINA RESULT:      -7.2      6.696      9.017
REMARK  Name = 191225
REMARK  6 active torsions:
REMARK  status: ('A' for Active; 'I' for Inactive)
REMARK    1  A    between atoms: C_2  and  O_3
REMARK    2  A    between atoms: C_2  and  C_19
REMARK    3  A    between atoms: O_3  and  C_10
REMARK    4  A    between atoms: C_19  and  N_20
REMARK    5  A    between atoms: C_19  and  C_24
REMARK    6  A    between atoms: C_24  and  C_26
REMARK                            x       y       z     vdW  Elec       q    Type
REMARK                         _______ _______ _______ _____ _____    ______ ____
ROOT
ATOM      1  O   UNL     1     -33.332  26.231   3.198  0.00  0.00    -0.252 OA
ATOM      2  C   UNL     1     -33.711  26.801   4.214  0.00  0.00    +0.299 C 
ENDROOT
BRANCH   2   3
ATOM      3  O   UNL     1     -33.504  28.112   4.536  0.00  0.00    -0.417 OA
BRANCH   3  10
ATOM      4  O   UNL     1     -28.135  28.323   4.047  0.00  0.00    -0.266 OA
ATOM      5  O   UNL     1     -28.008  29.708   8.476  0.00  0.00    -0.247 OA
ATOM      6  N   UNL     1     -31.148  28.226   4.397  0.00  0.00    -0.278 N 
ATOM      7  N   UNL     1     -32.137  28.759   6.330  0.00  0.00    -0.270 N 
ATOM      8  N   UNL     1     -30.073  29.278   7.541  0.00  0.00    -0.294 N 
ATOM      9  N   UNL     1     -28.080  29.016   6.265  0.00  0.00    -0.273 N 
ATOM     10  C   UNL     1     -32.319  28.363   5.091  0.00  0.00    +0.330 C 
ATOM     11  C   UNL     1     -30.145  28.562   5.258  0.00  0.00    +0.135 A 
ATOM     12  C   UNL     1     -30.782  28.883   6.429  0.00  0.00    +0.131 A 
ATOM     13  C   UNL     1     -28.726  28.605   5.084  0.00  0.00    +0.277 A 
ATOM     14  C   UNL     1     -28.677  29.360   7.501  0.00  0.00    +0.328 A 
ATOM     15  H   UNL     1     -31.050  27.942   3.458  0.00  0.00    +0.152 HD
ATOM     16  H   UNL     1     -32.816  28.928   7.022  0.00  0.00    +0.153 HD
ATOM     17  H   UNL     1     -30.551  29.503   8.372  0.00  0.00    +0.172 HD
ATOM     18  H   UNL     1     -27.097  29.071   6.226  0.00  0.00    +0.173 HD
ENDBRANCH   3  10
ENDBRANCH   2   3
BRANCH   2  19
ATOM     19  C   UNL     1     -34.481  26.136   5.344  0.00  0.00    +0.036 C 
BRANCH  19  20
ATOM     20  N   UNL     1     -35.907  26.395   5.144  0.00  0.00    +0.389 N 
ATOM     21  H   UNL     1     -36.185  26.063   4.220  0.00  0.00    -0.088 HD
ATOM     22  H   UNL     1     -36.083  27.398   5.211  0.00  0.00    -0.088 HD
ATOM     23  H   UNL     1     -36.445  25.906   5.858  0.00  0.00    -0.088 HD
ENDBRANCH  19  20
BRANCH  19  24
ATOM     24  C   UNL     1     -34.196  24.626   5.423  0.00  0.00    -0.005 C 
BRANCH  24  26
ATOM     25  N   UNL     1     -35.319  21.357   5.431  0.00  0.00    -0.270 NA
ATOM     26  C   UNL     1     -35.402  23.736   5.189  0.00  0.00    +0.046 C 
ATOM     27  C   UNL     1     -35.415  23.068   3.852  0.00  0.00    -0.007 C 
ATOM     28  C   UNL     1     -35.337  22.490   6.068  0.00  0.00    +0.130 C 
ATOM     29  C   UNL     1     -35.369  21.685   4.064  0.00  0.00    +0.071 C 
ATOM     30  C   UNL     1     -35.471  23.605   2.580  0.00  0.00    -0.024 C 
ATOM     31  C   UNL     1     -35.373  20.803   2.997  0.00  0.00    +0.014 C 
ATOM     32  C   UNL     1     -35.475  22.722   1.498  0.00  0.00    +0.052 C 
ATOM     33  C   UNL     1     -35.426  21.332   1.705  0.00  0.00    -0.020 C 
ENDBRANCH  24  26
ENDBRANCH  19  24
ENDBRANCH   2  19
TORSDOF 6
ENDMDL
MODEL 3
REMARK VINA RESULT:      -7.1      3.431      5.335
REMARK  Name = 191225
REMARK  6 active torsions:
REMARK  status: ('A' for Active; 'I' for Inactive)
REMARK    1  A    between atoms: C_2  and  O_3
REMARK    2  A    between atoms: C_2  and  C_19
REMARK    3  A    between atoms: O_3  and  C_10
REMARK    4  A    between atoms: C_19  and  N_20
REMARK    5  A    between atoms: C_19  and  C_24
REMARK    6  A    between atoms: C_24  and  C_26
REMARK                            x       y       z     vdW  Elec       q    Type
REMARK                         _______ _______ _______ _____ _____    ______ ____
ROOT
ATOM      1  O   UNL     1     -38.856  24.119   1.124  0.00  0.00    -0.252 OA
ATOM      2  C   UNL     1     -38.508  23.571   2.163  0.00  0.00    +0.299 C 
ENDROOT
BRANCH   2   3
ATOM      3  O   UNL     1     -38.555  24.105   3.419  0.00  0.00    -0.417 OA
BRANCH   3  10
ATOM      4  O   UNL     1     -34.995  28.032   2.415  0.00  0.00    -0.266 OA
ATOM      5  O   UNL     1     -32.809  26.742   6.303  0.00  0.00    -0.247 OA
ATOM      6  N   UNL     1     -36.957  25.804   3.043  0.00  0.00    -0.278 N 
ATOM      7  N   UNL     1     -36.740  24.506   4.851  0.00  0.00    -0.270 N 
ATOM      8  N   UNL     1     -34.710  25.582   5.699  0.00  0.00    -0.294 N 
ATOM      9  N   UNL     1     -33.906  27.380   4.362  0.00  0.00    -0.273 N 
ATOM     10  C   UNL     1     -37.455  24.764   3.780  0.00  0.00    +0.330 C 
ATOM     11  C   UNL     1     -35.841  26.241   3.695  0.00  0.00    +0.135 A 
ATOM     12  C   UNL     1     -35.737  25.428   4.794  0.00  0.00    +0.131 A 
ATOM     13  C   UNL     1     -34.921  27.293   3.391  0.00  0.00    +0.277 A 
ATOM     14  C   UNL     1     -33.743  26.575   5.515  0.00  0.00    +0.328 A 
ATOM     15  H   UNL     1     -37.331  26.165   2.207  0.00  0.00    +0.152 HD
ATOM     16  H   UNL     1     -36.893  23.813   5.534  0.00  0.00    +0.153 HD
ATOM     17  H   UNL     1     -34.655  24.986   6.482  0.00  0.00    +0.172 HD
ATOM     18  H   UNL     1     -33.231  28.083   4.223  0.00  0.00    +0.173 HD
ENDBRANCH   3  10
ENDBRANCH   2   3
BRANCH   2  19
ATOM     19  C   UNL     1     -37.922  22.170   2.250  0.00  0.00    +0.036 C 
BRANCH  19  20
ATOM     20  N   UNL     1     -39.020  21.207   2.161  0.00  0.00    +0.389 N 
ATOM     21  H   UNL     1     -38.640  20.276   1.985  0.00  0.00    -0.088 HD
ATOM     22  H   UNL     1     -39.643  21.471   1.398  0.00  0.00    -0.088 HD
ATOM     23  H   UNL     1     -39.539  21.202   3.039  0.00  0.00    -0.088 HD
ENDBRANCH  19  20
BRANCH  19  24
ATOM     24  C   UNL     1     -36.870  21.919   1.155  0.00  0.00    -0.005 C 
BRANCH  24  26
ATOM     25  N   UNL     1     -33.759  22.881  -0.003  0.00  0.00    -0.270 NA
ATOM     26  C   UNL     1     -35.440  22.218   1.564  0.00  0.00    +0.046 C 
ATOM     27  C   UNL     1     -34.487  21.096   1.307  0.00  0.00    -0.007 C 
ATOM     28  C   UNL     1     -34.818  23.264   0.644  0.00  0.00    +0.130 C 
ATOM     29  C   UNL     1     -33.531  21.549   0.390  0.00  0.00    +0.071 C 
ATOM     30  C   UNL     1     -34.446  19.815   1.824  0.00  0.00    -0.024 C 
ATOM     31  C   UNL     1     -32.509  20.719  -0.038  0.00  0.00    +0.014 C 
ATOM     32  C   UNL     1     -33.417  18.972   1.397  0.00  0.00    +0.052 C 
ATOM     33  C   UNL     1     -32.457  19.420   0.474  0.00  0.00    -0.020 C 
ENDBRANCH  24  26
ENDBRANCH  19  24
ENDBRANCH   2  19
TORSDOF 6
ENDMDL
MODEL 4
REMARK VINA RESULT:      -7.1      3.254      4.960
REMARK  Name = 191225
REMARK  6 active torsions:
REMARK  status: ('A' for Active; 'I' for Inactive)
REMARK    1  A    between atoms: C_2  and  O_3
REMARK    2  A    between atoms: C_2  and  C_19
REMARK    3  A    between atoms: O_3  and  C_10
REMARK    4  A    between atoms: C_19  and  N_20
REMARK    5  A    between atoms: C_19  and  C_24
REMARK    6  A    between atoms: C_24  and  C_26
REMARK                            x       y       z     vdW  Elec       q    Type
REMARK                         _______ _______ _______ _____ _____    ______ ____
ROOT
ATOM      1  O   UNL     1     -38.394  21.450  -0.203  0.00  0.00    -0.252 OA
ATOM      2  C   UNL     1     -37.916  21.093   0.867  0.00  0.00    +0.299 C 
ENDROOT
BRANCH   2   3
ATOM      3  O   UNL     1     -38.377  21.416   2.112  0.00  0.00    -0.417 OA
BRANCH   3  10
ATOM      4  O   UNL     1     -38.031  26.798   1.971  0.00  0.00    -0.266 OA
ATOM      5  O   UNL     1     -35.106  26.483   5.562  0.00  0.00    -0.247 OA
ATOM      6  N   UNL     1     -38.175  23.770   2.109  0.00  0.00    -0.278 N 
ATOM      7  N   UNL     1     -37.027  22.595   3.626  0.00  0.00    -0.270 N 
ATOM      8  N   UNL     1     -35.976  24.525   4.707  0.00  0.00    -0.294 N 
ATOM      9  N   UNL     1     -36.568  26.632   3.769  0.00  0.00    -0.273 N 
ATOM     10  C   UNL     1     -37.864  22.537   2.616  0.00  0.00    +0.330 C 
ATOM     11  C   UNL     1     -37.485  24.681   2.854  0.00  0.00    +0.135 A 
ATOM     12  C   UNL     1     -36.795  23.931   3.772  0.00  0.00    +0.131 A 
ATOM     13  C   UNL     1     -37.423  26.108   2.782  0.00  0.00    +0.277 A 
ATOM     14  C   UNL     1     -35.830  25.915   4.741  0.00  0.00    +0.328 A 
ATOM     15  H   UNL     1     -38.779  23.961   1.355  0.00  0.00    +0.152 HD
ATOM     16  H   UNL     1     -36.657  21.851   4.154  0.00  0.00    +0.153 HD
ATOM     17  H   UNL     1     -35.490  23.967   5.356  0.00  0.00    +0.172 HD
ATOM     18  H   UNL     1     -36.471  27.612   3.784  0.00  0.00    +0.173 HD
ENDBRANCH   3  10
ENDBRANCH   2   3
BRANCH   2  19
ATOM     19  C   UNL     1     -36.677  20.223   1.015  0.00  0.00    +0.036 C 
BRANCH  19  20
ATOM     20  N   UNL     1     -37.060  18.834   0.766  0.00  0.00    +0.389 N 
ATOM     21  H   UNL     1     -36.239  18.234   0.859  0.00  0.00    -0.088 HD
ATOM     22  H   UNL     1     -37.438  18.748  -0.177  0.00  0.00    -0.088 HD
ATOM     23  H   UNL     1     -37.767  18.549   1.443  0.00  0.00    -0.088 HD
ENDBRANCH  19  20
BRANCH  19  24
ATOM     24  C   UNL     1     -35.547  20.668   0.071  0.00  0.00    -0.005 C 
BRANCH  24  26
ATOM     25  N   UNL     1     -32.283  21.686  -0.438  0.00  0.00    -0.270 NA
ATOM     26  C   UNL     1     -34.257  21.065   0.763  0.00  0.00    +0.046 C 
ATOM     27  C   UNL     1     -33.238  19.974   0.822  0.00  0.00    -0.007 C 
ATOM     28  C   UNL     1     -33.473  22.067  -0.079  0.00  0.00    +0.130 C 
ATOM     29  C   UNL     1     -32.112  20.400   0.107  0.00  0.00    +0.071 C 
ATOM     30  C   UNL     1     -33.277  18.739   1.441  0.00  0.00    -0.024 C 
ATOM     31  C   UNL     1     -30.995  19.590  -0.008  0.00  0.00    +0.014 C 
ATOM     32  C   UNL     1     -32.155  17.916   1.329  0.00  0.00    +0.052 C 
ATOM     33  C   UNL     1     -31.023  18.338   0.610  0.00  0.00    -0.020 C 
ENDBRANCH  24  26
ENDBRANCH  19  24
ENDBRANCH   2  19
TORSDOF 6
ENDMDL
MODEL 5
REMARK VINA RESULT:      -7.0      3.959      5.613
REMARK  Name = 191225
REMARK  6 active torsions:
REMARK  status: ('A' for Active; 'I' for Inactive)
REMARK    1  A    between atoms: C_2  and  O_3
REMARK    2  A    between atoms: C_2  and  C_19
REMARK    3  A    between atoms: O_3  and  C_10
REMARK    4  A    between atoms: C_19  and  N_20
REMARK    5  A    between atoms: C_19  and  C_24
REMARK    6  A    between atoms: C_24  and  C_26
REMARK                            x       y       z     vdW  Elec       q    Type
REMARK                         _______ _______ _______ _____ _____    ______ ____
ROOT
ATOM      1  O   UNL     1     -36.760  21.976   0.589  0.00  0.00    -0.252 OA
ATOM      2  C   UNL     1     -36.859  21.550   1.733  0.00  0.00    +0.299 C 
ENDROOT
BRANCH   2   3
ATOM      3  O   UNL     1     -37.491  22.162   2.778  0.00  0.00    -0.417 OA
BRANCH   3  10
ATOM      4  O   UNL     1     -35.849  27.294   2.512  0.00  0.00    -0.266 OA
ATOM      5  O   UNL     1     -33.672  26.575   6.549  0.00  0.00    -0.247 OA
ATOM      6  N   UNL     1     -36.733  24.399   2.728  0.00  0.00    -0.278 N 
ATOM      7  N   UNL     1     -36.147  23.105   4.455  0.00  0.00    -0.270 N 
ATOM      8  N   UNL     1     -34.844  24.814   5.628  0.00  0.00    -0.294 N 
ATOM      9  N   UNL     1     -34.762  26.926   4.533  0.00  0.00    -0.273 N 
ATOM     10  C   UNL     1     -36.808  23.168   3.322  0.00  0.00    +0.330 C 
ATOM     11  C   UNL     1     -35.968  25.178   3.546  0.00  0.00    +0.135 A 
ATOM     12  C   UNL     1     -35.627  24.358   4.591  0.00  0.00    +0.131 A 
ATOM     13  C   UNL     1     -35.556  26.543   3.436  0.00  0.00    +0.277 A 
ATOM     14  C   UNL     1     -34.375  26.131   5.638  0.00  0.00    +0.328 A 
ATOM     15  H   UNL     1     -37.151  24.669   1.878  0.00  0.00    +0.152 HD
ATOM     16  H   UNL     1     -36.052  22.336   5.062  0.00  0.00    +0.153 HD
ATOM     17  H   UNL     1     -34.611  24.207   6.368  0.00  0.00    +0.172 HD
ATOM     18  H   UNL     1     -34.437  27.856   4.530  0.00  0.00    +0.173 HD
ENDBRANCH   3  10
ENDBRANCH   2   3
BRANCH   2  19
ATOM     19  C   UNL     1     -36.265  20.237   2.223  0.00  0.00    +0.036 C 
BRANCH  19  20
ATOM     20  N   UNL     1     -36.812  19.153   1.407  0.00  0.00    +0.389 N 
ATOM     21  H   UNL     1     -37.492  18.626   1.955  0.00  0.00    -0.088 HD
ATOM     22  H   UNL     1     -36.056  18.533   1.115  0.00  0.00    -0.088 HD
ATOM     23  H   UNL     1     -37.268  19.545   0.583  0.00  0.00    -0.088 HD
ENDBRANCH  19  20
BRANCH  19  24
ATOM     24  C   UNL     1     -34.727  20.250   2.175  0.00  0.00    -0.005 C 
BRANCH  24  26
ATOM     25  N   UNL     1     -31.983  18.492   1.023  0.00  0.00    -0.270 NA
ATOM     26  C   UNL     1     -34.121  19.564   0.965  0.00  0.00    +0.046 C 
ATOM     27  C   UNL     1     -33.099  20.386   0.249  0.00  0.00    -0.007 C 
ATOM     28  C   UNL     1     -33.227  18.403   1.389  0.00  0.00    +0.130 C 
ATOM     29  C   UNL     1     -31.878  19.704   0.316  0.00  0.00    +0.071 C 
ATOM     30  C   UNL     1     -33.217  21.598  -0.405  0.00  0.00    -0.024 C 
ATOM     31  C   UNL     1     -30.739  20.229  -0.270  0.00  0.00    +0.014 C 
ATOM     32  C   UNL     1     -32.072  22.134  -0.998  0.00  0.00    +0.052 C 
ATOM     33  C   UNL     1     -30.843  21.455  -0.931  0.00  0.00    -0.020 C 
ENDBRANCH  24  26
ENDBRANCH  19  24
ENDBRANCH   2  19
TORSDOF 6
ENDMDL
MODEL 6
REMARK VINA RESULT:      -7.0      4.508      6.463
REMARK  Name = 191225
REMARK  6 active torsions:
REMARK  status: ('A' for Active; 'I' for Inactive)
REMARK    1  A    between atoms: C_2  and  O_3
REMARK    2  A    between atoms: C_2  and  C_19
REMARK    3  A    between atoms: O_3  and  C_10
REMARK    4  A    between atoms: C_19  and  N_20
REMARK    5  A    between atoms: C_19  and  C_24
REMARK    6  A    between atoms: C_24  and  C_26
REMARK                            x       y       z     vdW  Elec       q    Type
REMARK                         _______ _______ _______ _____ _____    ______ ____
ROOT
ATOM      1  O   UNL     1     -36.753  21.295  -0.845  0.00  0.00    -0.252 OA
ATOM      2  C   UNL     1     -36.845  20.907   0.313  0.00  0.00    +0.299 C 
ENDROOT
BRANCH   2   3
ATOM      3  O   UNL     1     -37.549  21.506   1.318  0.00  0.00    -0.417 OA
BRANCH   3  10
ATOM      4  O   UNL     1     -36.003  22.402   6.409  0.00  0.00    -0.266 OA
ATOM      5  O   UNL     1     -33.238  25.741   4.748  0.00  0.00    -0.247 OA
ATOM      6  N   UNL     1     -36.826  21.956   3.522  0.00  0.00    -0.278 N 
ATOM      7  N   UNL     1     -35.979  23.168   1.846  0.00  0.00    -0.270 N 
ATOM      8  N   UNL     1     -34.523  24.558   3.241  0.00  0.00    -0.294 N 
ATOM      9  N   UNL     1     -34.622  24.072   5.569  0.00  0.00    -0.273 N 
ATOM     10  C   UNL     1     -36.802  22.200   2.176  0.00  0.00    +0.330 C 
ATOM     11  C   UNL     1     -35.951  22.835   4.091  0.00  0.00    +0.135 A 
ATOM     12  C   UNL     1     -35.451  23.560   3.040  0.00  0.00    +0.131 A 
ATOM     13  C   UNL     1     -35.569  23.038   5.454  0.00  0.00    +0.277 A 
ATOM     14  C   UNL     1     -34.067  24.855   4.529  0.00  0.00    +0.328 A 
ATOM     15  H   UNL     1     -37.368  21.278   3.988  0.00  0.00    +0.152 HD
ATOM     16  H   UNL     1     -35.787  23.526   0.948  0.00  0.00    +0.153 HD
ATOM     17  H   UNL     1     -34.178  25.066   2.471  0.00  0.00    +0.172 HD
ATOM     18  H   UNL     1     -34.307  24.274   6.481  0.00  0.00    +0.173 HD
ENDBRANCH   3  10
ENDBRANCH   2   3
BRANCH   2  19
ATOM     19  C   UNL     1     -36.158  19.668   0.868  0.00  0.00    +0.036 C 
BRANCH  19  20
ATOM     20  N   UNL     1     -37.062  18.530   0.705  0.00  0.00    +0.389 N 
ATOM     21  H   UNL     1     -36.516  17.675   0.599  0.00  0.00    -0.088 HD
ATOM     22  H   UNL     1     -37.640  18.670  -0.123  0.00  0.00    -0.088 HD
ATOM     23  H   UNL     1     -37.660  18.451   1.528  0.00  0.00    -0.088 HD
ENDBRANCH  19  20
BRANCH  19  24
ATOM     24  C   UNL     1     -34.805  19.406   0.184  0.00  0.00    -0.005 C 
BRANCH  24  26
ATOM     25  N   UNL     1     -32.064  21.406  -0.480  0.00  0.00    -0.270 NA
ATOM     26  C   UNL     1     -33.625  20.129   0.807  0.00  0.00    +0.046 C 
ATOM     27  C   UNL     1     -32.328  19.400   0.677  0.00  0.00    -0.007 C 
ATOM     28  C   UNL     1     -33.269  21.379   0.008  0.00  0.00    +0.130 C 
ATOM     29  C   UNL     1     -31.462  20.199  -0.080  0.00  0.00    +0.071 C 
ATOM     30  C   UNL     1     -31.933  18.172   1.173  0.00  0.00    -0.024 C 
ATOM     31  C   UNL     1     -30.174  19.779  -0.363  0.00  0.00    +0.014 C 
ATOM     32  C   UNL     1     -30.635  17.741   0.891  0.00  0.00    +0.052 C 
ATOM     33  C   UNL     1     -29.762  18.538   0.129  0.00  0.00    -0.020 C 
ENDBRANCH  24  26
ENDBRANCH  19  24
ENDBRANCH   2  19
TORSDOF 6
ENDMDL
MODEL 7
REMARK VINA RESULT:      -7.0      4.464      9.108
REMARK  Name = 191225
REMARK  6 active torsions:
REMARK  status: ('A' for Active; 'I' for Inactive)
REMARK    1  A    between atoms: C_2  and  O_3
REMARK    2  A    between atoms: C_2  and  C_19
REMARK    3  A    between atoms: O_3  and  C_10
REMARK    4  A    between atoms: C_19  and  N_20
REMARK    5  A    between atoms: C_19  and  C_24
REMARK    6  A    between atoms: C_24  and  C_26
REMARK                            x       y       z     vdW  Elec       q    Type
REMARK                         _______ _______ _______ _____ _____    ______ ____
ROOT
ATOM      1  O   UNL     1     -35.203  20.249   3.363  0.00  0.00    -0.252 OA
ATOM      2  C   UNL     1     -35.291  20.638   2.205  0.00  0.00    +0.299 C 
ENDROOT
BRANCH   2   3
ATOM      3  O   UNL     1     -34.308  20.600   1.257  0.00  0.00    -0.417 OA
BRANCH   3  10
ATOM      4  O   UNL     1     -35.403  15.576  -0.376  0.00  0.00    -0.266 OA
ATOM      5  O   UNL     1     -30.866  14.686   0.049  0.00  0.00    -0.247 OA
ATOM      6  N   UNL     1     -34.712  18.382   0.550  0.00  0.00    -0.278 N 
ATOM      7  N   UNL     1     -32.617  18.987   1.044  0.00  0.00    -0.270 N 
ATOM      8  N   UNL     1     -31.599  16.813   0.560  0.00  0.00    -0.294 N 
ATOM      9  N   UNL     1     -33.131  15.138  -0.160  0.00  0.00    -0.273 N 
ATOM     10  C   UNL     1     -33.869  19.376   0.968  0.00  0.00    +0.330 C 
ATOM     11  C   UNL     1     -33.938  17.278   0.344  0.00  0.00    +0.135 A 
ATOM     12  C   UNL     1     -32.665  17.681   0.654  0.00  0.00    +0.131 A 
ATOM     13  C   UNL     1     -34.273  15.958  -0.093  0.00  0.00    +0.277 A 
ATOM     14  C   UNL     1     -31.795  15.492   0.145  0.00  0.00    +0.328 A 
ATOM     15  H   UNL     1     -35.687  18.451   0.423  0.00  0.00    +0.152 HD
ATOM     16  H   UNL     1     -31.831  19.514   1.316  0.00  0.00    +0.153 HD
ATOM     17  H   UNL     1     -30.694  17.124   0.789  0.00  0.00    +0.172 HD
ATOM     18  H   UNL     1     -33.279  14.210  -0.454  0.00  0.00    +0.173 HD
ENDBRANCH   3  10
ENDBRANCH   2   3
BRANCH   2  19
ATOM     19  C   UNL     1     -36.532  21.273   1.596  0.00  0.00    +0.036 C 
BRANCH  19  20
ATOM     20  N   UNL     1     -37.709  20.615   2.163  0.00  0.00    +0.389 N 
ATOM     21  H   UNL     1     -37.410  19.862   2.784  0.00  0.00    -0.088 HD
ATOM     22  H   UNL     1     -38.279  20.229   1.410  0.00  0.00    -0.088 HD
ATOM     23  H   UNL     1     -38.257  21.295   2.691  0.00  0.00    -0.088 HD
ENDBRANCH  19  20
BRANCH  19  24
ATOM     24  C   UNL     1     -36.575  22.793   1.833  0.00  0.00    -0.005 C 
BRANCH  24  26
ATOM     25  N   UNL     1     -37.951  25.450   3.562  0.00  0.00    -0.270 NA
ATOM     26  C   UNL     1     -37.203  23.216   3.147  0.00  0.00    +0.046 C 
ATOM     27  C   UNL     1     -36.264  23.924   4.070  0.00  0.00    -0.007 C 
ATOM     28  C   UNL     1     -38.208  24.343   2.932  0.00  0.00    +0.130 C 
ATOM     29  C   UNL     1     -36.760  25.218   4.273  0.00  0.00    +0.071 C 
ATOM     30  C   UNL     1     -35.103  23.489   4.679  0.00  0.00    -0.024 C 
ATOM     31  C   UNL     1     -36.093  26.112   5.094  0.00  0.00    +0.014 C 
ATOM     32  C   UNL     1     -34.425  24.385   5.508  0.00  0.00    +0.052 C 
ATOM     33  C   UNL     1     -34.916  25.686   5.714  0.00  0.00    -0.020 C 
ENDBRANCH  24  26
ENDBRANCH  19  24
ENDBRANCH   2  19
TORSDOF 6
ENDMDL
MODEL 8
REMARK VINA RESULT:      -6.9      3.035      8.073
REMARK  Name = 191225
REMARK  6 active torsions:
REMARK  status: ('A' for Active; 'I' for Inactive)
REMARK    1  A    between atoms: C_2  and  O_3
REMARK    2  A    between atoms: C_2  and  C_19
REMARK    3  A    between atoms: O_3  and  C_10
REMARK    4  A    between atoms: C_19  and  N_20
REMARK    5  A    between atoms: C_19  and  C_24
REMARK    6  A    between atoms: C_24  and  C_26
REMARK                            x       y       z     vdW  Elec       q    Type
REMARK                         _______ _______ _______ _____ _____    ______ ____
ROOT
ATOM      1  O   UNL     1     -38.984  25.333   0.612  0.00  0.00    -0.252 OA
ATOM      2  C   UNL     1     -39.666  25.805   1.514  0.00  0.00    +0.299 C 
ENDROOT
BRANCH   2   3
ATOM      3  O   UNL     1     -39.208  26.385   2.662  0.00  0.00    -0.417 OA
BRANCH   3  10
ATOM      4  O   UNL     1     -34.766  26.312   5.724  0.00  0.00    -0.266 OA
ATOM      5  O   UNL     1     -35.007  21.678   5.576  0.00  0.00    -0.247 OA
ATOM      6  N   UNL     1     -37.264  26.275   4.001  0.00  0.00    -0.278 N 
ATOM      7  N   UNL     1     -38.224  24.366   3.344  0.00  0.00    -0.270 N 
ATOM      8  N   UNL     1     -36.627  22.878   4.454  0.00  0.00    -0.294 N 
ATOM      9  N   UNL     1     -34.894  23.993   5.645  0.00  0.00    -0.273 N 
ATOM     10  C   UNL     1     -38.278  25.677   3.303  0.00  0.00    +0.330 C 
ATOM     11  C   UNL     1     -36.508  25.268   4.526  0.00  0.00    +0.135 A 
ATOM     12  C   UNL     1     -37.122  24.115   4.107  0.00  0.00    +0.131 A 
ATOM     13  C   UNL     1     -35.331  25.295   5.338  0.00  0.00    +0.277 A 
ATOM     14  C   UNL     1     -35.480  22.768   5.246  0.00  0.00    +0.328 A 
ATOM     15  H   UNL     1     -37.110  27.243   4.103  0.00  0.00    +0.152 HD
ATOM     16  H   UNL     1     -38.836  23.718   2.925  0.00  0.00    +0.153 HD
ATOM     17  H   UNL     1     -37.085  22.064   4.141  0.00  0.00    +0.172 HD
ATOM     18  H   UNL     1     -34.085  23.927   6.203  0.00  0.00    +0.173 HD
ENDBRANCH   3  10
ENDBRANCH   2   3
BRANCH   2  19
ATOM     19  C   UNL     1     -41.187  25.815   1.534  0.00  0.00    +0.036 C 
BRANCH  19  20
ATOM     20  N   UNL     1     -41.659  24.470   1.208  0.00  0.00    +0.389 N 
ATOM     21  H   UNL     1     -41.182  23.789   1.800  0.00  0.00    -0.088 HD
ATOM     22  H   UNL     1     -41.460  24.267   0.228  0.00  0.00    -0.088 HD
ATOM     23  H   UNL     1     -42.665  24.414   1.369  0.00  0.00    -0.088 HD
ENDBRANCH  19  20
BRANCH  19  24
ATOM     24  C   UNL     1     -41.740  26.286   2.891  0.00  0.00    -0.005 C 
BRANCH  24  26
ATOM     25  N   UNL     1     -43.990  28.157   4.730  0.00  0.00    -0.270 NA
ATOM     26  C   UNL     1     -42.984  27.150   2.807  0.00  0.00    +0.046 C 
ATOM     27  C   UNL     1     -44.245  26.439   3.176  0.00  0.00    -0.007 C 
ATOM     28  C   UNL     1     -42.986  28.208   3.906  0.00  0.00    +0.130 C 
ATOM     29  C   UNL     1     -44.783  27.077   4.300  0.00  0.00    +0.071 C 
ATOM     30  C   UNL     1     -44.869  25.353   2.591  0.00  0.00    -0.024 C 
ATOM     31  C   UNL     1     -45.964  26.634   4.870  0.00  0.00    +0.014 C 
ATOM     32  C   UNL     1     -46.061  24.901   3.160  0.00  0.00    +0.052 C 
ATOM     33  C   UNL     1     -46.604  25.536   4.291  0.00  0.00    -0.020 C 
ENDBRANCH  24  26
ENDBRANCH  19  24
ENDBRANCH   2  19
TORSDOF 6
ENDMDL
MODEL 9
REMARK VINA RESULT:      -6.8      3.363      5.380
REMARK  Name = 191225
REMARK  6 active torsions:
REMARK  status: ('A' for Active; 'I' for Inactive)
REMARK    1  A    between atoms: C_2  and  O_3
REMARK    2  A    between atoms: C_2  and  C_19
REMARK    3  A    between atoms: O_3  and  C_10
REMARK    4  A    between atoms: C_19  and  N_20
REMARK    5  A    between atoms: C_19  and  C_24
REMARK    6  A    between atoms: C_24  and  C_26
REMARK                            x       y       z     vdW  Elec       q    Type
REMARK                         _______ _______ _______ _____ _____    ______ ____
ROOT
ATOM      1  O   UNL     1     -35.065  20.617   4.208  0.00  0.00    -0.252 OA
ATOM      2  C   UNL     1     -35.412  21.787   4.093  0.00  0.00    +0.299 C 
ENDROOT
BRANCH   2   3
ATOM      3  O   UNL     1     -35.451  22.513   2.937  0.00  0.00    -0.417 OA
BRANCH   3  10
ATOM      4  O   UNL     1     -38.894  24.583  -0.665  0.00  0.00    -0.266 OA
ATOM      5  O   UNL     1     -41.501  20.796  -0.019  0.00  0.00    -0.247 OA
ATOM      6  N   UNL     1     -37.006  23.358   1.370  0.00  0.00    -0.278 N 
ATOM      7  N   UNL     1     -37.420  21.385   2.337  0.00  0.00    -0.270 N 
ATOM      8  N   UNL     1     -39.539  20.970   1.182  0.00  0.00    -0.294 N 
ATOM      9  N   UNL     1     -40.194  22.684  -0.335  0.00  0.00    -0.273 N 
ATOM     10  C   UNL     1     -36.589  22.398   2.253  0.00  0.00    +0.330 C 
ATOM     11  C   UNL     1     -38.190  22.921   0.854  0.00  0.00    +0.135 A 
ATOM     12  C   UNL     1     -38.415  21.714   1.465  0.00  0.00    +0.131 A 
ATOM     13  C   UNL     1     -39.075  23.506  -0.106  0.00  0.00    +0.277 A 
ATOM     14  C   UNL     1     -40.483  21.433   0.260  0.00  0.00    +0.328 A 
ATOM     15  H   UNL     1     -36.540  24.198   1.151  0.00  0.00    +0.152 HD
ATOM     16  H   UNL     1     -37.342  20.579   2.897  0.00  0.00    +0.153 HD
ATOM     17  H   UNL     1     -39.679  20.106   1.633  0.00  0.00    +0.172 HD
ATOM     18  H   UNL     1     -40.853  23.019  -0.986  0.00  0.00    +0.173 HD
ENDBRANCH   3  10
ENDBRANCH   2   3
BRANCH   2  19
ATOM     19  C   UNL     1     -35.852  22.677   5.245  0.00  0.00    +0.036 C 
BRANCH  19  20
ATOM     20  N   UNL     1     -35.944  21.855   6.451  0.00  0.00    +0.389 N 
ATOM     21  H   UNL     1     -35.823  20.873   6.202  0.00  0.00    -0.088 HD
ATOM     22  H   UNL     1     -36.859  21.986   6.883  0.00  0.00    -0.088 HD
ATOM     23  H   UNL     1     -35.214  22.132   7.108  0.00  0.00    -0.088 HD
ENDBRANCH  19  20
BRANCH  19  24
ATOM     24  C   UNL     1     -34.895  23.864   5.451  0.00  0.00    -0.005 C 
BRANCH  24  26
ATOM     25  N   UNL     1     -36.826  25.972   3.509  0.00  0.00    -0.270 NA
ATOM     26  C   UNL     1     -35.551  25.231   5.392  0.00  0.00    +0.046 C 
ATOM     27  C   UNL     1     -34.785  26.240   4.601  0.00  0.00    -0.007 C 
ATOM     28  C   UNL     1     -36.820  25.189   4.546  0.00  0.00    +0.130 C 
ATOM     29  C   UNL     1     -35.585  26.634   3.521  0.00  0.00    +0.071 C 
ATOM     30  C   UNL     1     -33.525  26.772   4.801  0.00  0.00    -0.024 C 
ATOM     31  C   UNL     1     -35.134  27.572   2.609  0.00  0.00    +0.014 C 
ATOM     32  C   UNL     1     -33.063  27.719   3.885  0.00  0.00    +0.052 C 
ATOM     33  C   UNL     1     -33.861  28.116   2.797  0.00  0.00    -0.020 C 
ENDBRANCH  24  26
ENDBRANCH  19  24
ENDBRANCH   2  19
TORSDOF 6
ENDMDL
