MODEL 1
REMARK VINA RESULT:      -6.2      0.000      0.000
REMARK  Name = 5487158
REMARK  13 active torsions:
REMARK  status: ('A' for Active; 'I' for Inactive)
REMARK    1  A    between atoms: C_1  and  N_2
REMARK    2  A    between atoms: C_1  and  C_7
REMARK    3  A    between atoms: C_1  and  C_21
REMARK    4  A    between atoms: C_7  and  C_8
REMARK    5  A    between atoms: C_8  and  C_9
REMARK    6  A    between atoms: C_9  and  C_11
REMARK    7  A    between atoms: C_9  and  C_14
REMARK    8  A    between atoms: C_11  and  O_12
REMARK    9  A    between atoms: C_14  and  C_15
REMARK   10  A    between atoms: C_21  and  C_22
REMARK   11  A    between atoms: C_22  and  C_23
REMARK   12  A    between atoms: C_23  and  N_24
REMARK   13  A    between atoms: N_24  and  C_27
REMARK                            x       y       z     vdW  Elec       q    Type
REMARK                         _______ _______ _______ _____ _____    ______ ____
ROOT
ATOM      1  C   UNL     1     -35.947  22.649   3.533  0.00  0.00    -0.006 C 
ENDROOT
BRANCH   1   2
ATOM      2  N   UNL     1     -37.381  22.470   3.314  0.00  0.00    +0.386 N 
ATOM      3  H   UNL     1     -37.882  23.287   3.664  0.00  0.00    -0.089 HD
ATOM      4  H   UNL     1     -37.699  21.638   3.810  0.00  0.00    -0.089 HD
ATOM      5  H   UNL     1     -37.561  22.361   2.316  0.00  0.00    -0.089 HD
ENDBRANCH   1   2
BRANCH   1   7
ATOM      6  O   UNL     1     -34.697  22.632   1.477  0.00  0.00    -0.298 OA
ATOM      7  C   UNL     1     -35.256  21.973   2.353  0.00  0.00    +0.131 C 
BRANCH   7   8
ATOM      8  C   UNL     1     -35.230  20.447   2.373  0.00  0.00    +0.074 C 
BRANCH   8   9
ATOM      9  C   UNL     1     -34.650  19.772   1.120  0.00  0.00    +0.110 C 
BRANCH   9  11
ATOM     10  O   UNL     1     -35.725  18.919  -0.902  0.00  0.00    -0.250 OA
ATOM     11  C   UNL     1     -35.756  19.109   0.307  0.00  0.00    +0.314 C 
BRANCH  11  12
ATOM     12  O   UNL     1     -36.806  18.731   1.082  0.00  0.00    -0.480 OA
ATOM     13  H   UNL     1     -37.599  19.230   1.072  0.00  0.00    +0.295 HD
ENDBRANCH  11  12
ENDBRANCH   9  11
BRANCH   9  14
ATOM     14  C   UNL     1     -33.497  18.803   1.457  0.00  0.00    +0.038 C 
BRANCH  14  15
ATOM     15  C   UNL     1     -32.203  19.153   0.757  0.00  0.00    -0.022 C 
ATOM     16  C   UNL     1     -31.122  18.273   0.809  0.00  0.00    -0.004 C 
ATOM     17  C   UNL     1     -32.091  20.356   0.060  0.00  0.00    -0.004 C 
ATOM     18  C   UNL     1     -29.928  18.597   0.163  0.00  0.00    -0.000 C 
ATOM     19  C   UNL     1     -30.897  20.679  -0.586  0.00  0.00    -0.000 C 
ATOM     20  C   UNL     1     -29.816  19.799  -0.533  0.00  0.00    -0.000 C 
ENDBRANCH  14  15
ENDBRANCH   9  14
ENDBRANCH   8   9
ENDBRANCH   7   8
ENDBRANCH   1   7
BRANCH   1  21
ATOM     21  C   UNL     1     -35.516  22.047   4.877  0.00  0.00    -0.013 C 
BRANCH  21  22
ATOM     22  C   UNL     1     -35.041  23.124   5.863  0.00  0.00    +0.025 C 
BRANCH  22  23
ATOM     23  C   UNL     1     -34.441  24.335   5.157  0.00  0.00    +0.129 C 
BRANCH  23  24
ATOM     24  N   UNL     1     -35.046  25.564   5.673  0.00  0.00    -0.240 NA
BRANCH  24  27
ATOM     25  N   UNL     1     -37.184  25.933   4.641  0.00  0.00    -0.370 N 
ATOM     26  N   UNL     1     -35.406  27.269   4.145  0.00  0.00    -0.370 N 
ATOM     27  C   UNL     1     -35.853  26.195   4.878  0.00  0.00    +0.189 C 
ATOM     28  H   UNL     1     -37.629  25.187   5.105  0.00  0.00    +0.159 HD
ATOM     29  H   UNL     1     -37.691  26.491   4.008  0.00  0.00    +0.159 HD
ATOM     30  H   UNL     1     -34.469  27.562   4.222  0.00  0.00    +0.159 HD
ATOM     31  H   UNL     1     -36.022  27.745   3.542  0.00  0.00    +0.159 HD
ENDBRANCH  24  27
ENDBRANCH  23  24
ENDBRANCH  22  23
ENDBRANCH  21  22
ENDBRANCH   1  21
TORSDOF 13
ENDMDL
MODEL 2
REMARK VINA RESULT:      -6.0      3.407      5.576
REMARK  Name = 5487158
REMARK  13 active torsions:
REMARK  status: ('A' for Active; 'I' for Inactive)
REMARK    1  A    between atoms: C_1  and  N_2
REMARK    2  A    between atoms: C_1  and  C_7
REMARK    3  A    between atoms: C_1  and  C_21
REMARK    4  A    between atoms: C_7  and  C_8
REMARK    5  A    between atoms: C_8  and  C_9
REMARK    6  A    between atoms: C_9  and  C_11
REMARK    7  A    between atoms: C_9  and  C_14
REMARK    8  A    between atoms: C_11  and  O_12
REMARK    9  A    between atoms: C_14  and  C_15
REMARK   10  A    between atoms: C_21  and  C_22
REMARK   11  A    between atoms: C_22  and  C_23
REMARK   12  A    between atoms: C_23  and  N_24
REMARK   13  A    between atoms: N_24  and  C_27
REMARK                            x       y       z     vdW  Elec       q    Type
REMARK                         _______ _______ _______ _____ _____    ______ ____
ROOT
ATOM      1  C   UNL     1     -34.435  26.718   3.114  0.00  0.00    -0.006 C 
ENDROOT
BRANCH   1   2
ATOM      2  N   UNL     1     -35.227  27.799   3.699  0.00  0.00    +0.386 N 
ATOM      3  H   UNL     1     -36.056  27.960   3.127  0.00  0.00    -0.089 HD
ATOM      4  H   UNL     1     -34.666  28.650   3.735  0.00  0.00    -0.089 HD
ATOM      5  H   UNL     1     -35.510  27.538   4.644  0.00  0.00    -0.089 HD
ENDBRANCH   1   2
BRANCH   1   7
ATOM      6  O   UNL     1     -33.207  25.391   4.702  0.00  0.00    -0.298 OA
ATOM      7  C   UNL     1     -34.301  25.661   4.204  0.00  0.00    +0.131 C 
BRANCH   7   8
ATOM      8  C   UNL     1     -35.601  25.029   4.694  0.00  0.00    +0.074 C 
BRANCH   8   9
ATOM      9  C   UNL     1     -36.434  24.302   3.627  0.00  0.00    +0.110 C 
BRANCH   9  11
ATOM     10  O   UNL     1     -38.866  24.179   3.417  0.00  0.00    -0.250 OA
ATOM     11  C   UNL     1     -37.857  24.849   3.592  0.00  0.00    +0.314 C 
BRANCH  11  12
ATOM     12  O   UNL     1     -37.894  26.193   3.790  0.00  0.00    -0.480 OA
ATOM     13  H   UNL     1     -37.096  26.674   3.889  0.00  0.00    +0.295 HD
ENDBRANCH  11  12
ENDBRANCH   9  11
BRANCH   9  14
ATOM     14  C   UNL     1     -36.392  22.768   3.794  0.00  0.00    +0.038 C 
BRANCH  14  15
ATOM     15  C   UNL     1     -35.571  22.078   2.727  0.00  0.00    -0.022 C 
ATOM     16  C   UNL     1     -34.969  22.827   1.717  0.00  0.00    -0.004 C 
ATOM     17  C   UNL     1     -35.417  20.692   2.755  0.00  0.00    -0.004 C 
ATOM     18  C   UNL     1     -34.212  22.190   0.733  0.00  0.00    -0.000 C 
ATOM     19  C   UNL     1     -34.660  20.055   1.771  0.00  0.00    -0.000 C 
ATOM     20  C   UNL     1     -34.058  20.805   0.761  0.00  0.00    -0.000 C 
ENDBRANCH  14  15
ENDBRANCH   9  14
ENDBRANCH   8   9
ENDBRANCH   7   8
ENDBRANCH   1   7
BRANCH   1  21
ATOM     21  C   UNL     1     -33.070  27.233   2.637  0.00  0.00    -0.013 C 
BRANCH  21  22
ATOM     22  C   UNL     1     -32.853  28.708   3.005  0.00  0.00    +0.025 C 
BRANCH  22  23
ATOM     23  C   UNL     1     -31.865  28.882   4.153  0.00  0.00    +0.129 C 
BRANCH  23  24
ATOM     24  N   UNL     1     -32.563  28.758   5.434  0.00  0.00    -0.240 NA
BRANCH  24  27
ATOM     25  N   UNL     1     -30.616  28.351   6.782  0.00  0.00    -0.370 N 
ATOM     26  N   UNL     1     -32.554  27.212   7.161  0.00  0.00    -0.370 N 
ATOM     27  C   UNL     1     -31.924  28.162   6.392  0.00  0.00    +0.189 C 
ATOM     28  H   UNL     1     -30.052  29.007   6.311  0.00  0.00    +0.159 HD
ATOM     29  H   UNL     1     -30.246  27.831   7.532  0.00  0.00    +0.159 HD
ATOM     30  H   UNL     1     -33.495  26.982   6.986  0.00  0.00    +0.159 HD
ATOM     31  H   UNL     1     -32.064  26.762   7.887  0.00  0.00    +0.159 HD
ENDBRANCH  24  27
ENDBRANCH  23  24
ENDBRANCH  22  23
ENDBRANCH  21  22
ENDBRANCH   1  21
TORSDOF 13
ENDMDL
MODEL 3
REMARK VINA RESULT:      -6.0      2.054      3.216
REMARK  Name = 5487158
REMARK  13 active torsions:
REMARK  status: ('A' for Active; 'I' for Inactive)
REMARK    1  A    between atoms: C_1  and  N_2
REMARK    2  A    between atoms: C_1  and  C_7
REMARK    3  A    between atoms: C_1  and  C_21
REMARK    4  A    between atoms: C_7  and  C_8
REMARK    5  A    between atoms: C_8  and  C_9
REMARK    6  A    between atoms: C_9  and  C_11
REMARK    7  A    between atoms: C_9  and  C_14
REMARK    8  A    between atoms: C_11  and  O_12
REMARK    9  A    between atoms: C_14  and  C_15
REMARK   10  A    between atoms: C_21  and  C_22
REMARK   11  A    between atoms: C_22  and  C_23
REMARK   12  A    between atoms: C_23  and  N_24
REMARK   13  A    between atoms: N_24  and  C_27
REMARK                            x       y       z     vdW  Elec       q    Type
REMARK                         _______ _______ _______ _____ _____    ______ ____
ROOT
ATOM      1  C   UNL     1     -35.742  22.738   5.152  0.00  0.00    -0.006 C 
ENDROOT
BRANCH   1   2
ATOM      2  N   UNL     1     -35.989  21.905   6.328  0.00  0.00    +0.386 N 
ATOM      3  H   UNL     1     -35.417  21.063   6.274  0.00  0.00    -0.089 HD
ATOM      4  H   UNL     1     -36.975  21.646   6.359  0.00  0.00    -0.089 HD
ATOM      5  H   UNL     1     -35.749  22.428   7.170  0.00  0.00    -0.089 HD
ENDBRANCH   1   2
BRANCH   1   7
ATOM      6  O   UNL     1     -35.112  20.624   4.190  0.00  0.00    -0.298 OA
ATOM      7  C   UNL     1     -35.519  21.769   3.995  0.00  0.00    +0.131 C 
BRANCH   7   8
ATOM      8  C   UNL     1     -35.909  22.274   2.609  0.00  0.00    +0.074 C 
BRANCH   8   9
ATOM      9  C   UNL     1     -34.748  22.494   1.625  0.00  0.00    +0.110 C 
BRANCH   9  11
ATOM     10  O   UNL     1     -35.309  24.333   0.116  0.00  0.00    -0.250 OA
ATOM     11  C   UNL     1     -34.737  23.933   1.122  0.00  0.00    +0.314 C 
BRANCH  11  12
ATOM     12  O   UNL     1     -34.014  24.753   1.930  0.00  0.00    -0.480 OA
ATOM     13  H   UNL     1     -34.229  25.663   1.986  0.00  0.00    +0.295 HD
ENDBRANCH  11  12
ENDBRANCH   9  11
BRANCH   9  14
ATOM     14  C   UNL     1     -34.749  21.463   0.478  0.00  0.00    +0.038 C 
BRANCH  14  15
ATOM     15  C   UNL     1     -33.649  20.433   0.604  0.00  0.00    -0.022 C 
ATOM     16  C   UNL     1     -32.413  20.654  -0.003  0.00  0.00    -0.004 C 
ATOM     17  C   UNL     1     -33.872  19.262   1.328  0.00  0.00    -0.004 C 
ATOM     18  C   UNL     1     -31.399  19.704   0.114  0.00  0.00    -0.000 C 
ATOM     19  C   UNL     1     -32.857  18.311   1.445  0.00  0.00    -0.000 C 
ATOM     20  C   UNL     1     -31.621  18.533   0.838  0.00  0.00    -0.000 C 
ENDBRANCH  14  15
ENDBRANCH   9  14
ENDBRANCH   8   9
ENDBRANCH   7   8
ENDBRANCH   1   7
BRANCH   1  21
ATOM     21  C   UNL     1     -34.536  23.660   5.375  0.00  0.00    -0.013 C 
BRANCH  21  22
ATOM     22  C   UNL     1     -34.906  25.140   5.209  0.00  0.00    +0.025 C 
BRANCH  22  23
ATOM     23  C   UNL     1     -36.382  25.337   4.880  0.00  0.00    +0.129 C 
BRANCH  23  24
ATOM     24  N   UNL     1     -36.521  25.927   3.547  0.00  0.00    -0.240 NA
BRANCH  24  27
ATOM     25  N   UNL     1     -38.917  26.108   3.525  0.00  0.00    -0.370 N 
ATOM     26  N   UNL     1     -37.787  25.384   1.683  0.00  0.00    -0.370 N 
ATOM     27  C   UNL     1     -37.683  25.824   2.981  0.00  0.00    +0.189 C 
ATOM     28  H   UNL     1     -38.982  26.432   4.453  0.00  0.00    +0.159 HD
ATOM     29  H   UNL     1     -39.732  25.986   2.987  0.00  0.00    +0.159 HD
ATOM     30  H   UNL     1     -36.976  25.147   1.177  0.00  0.00    +0.159 HD
ATOM     31  H   UNL     1     -38.672  25.307   1.258  0.00  0.00    +0.159 HD
ENDBRANCH  24  27
ENDBRANCH  23  24
ENDBRANCH  22  23
ENDBRANCH  21  22
ENDBRANCH   1  21
TORSDOF 13
ENDMDL
MODEL 4
REMARK VINA RESULT:      -6.0      4.624      6.695
REMARK  Name = 5487158
REMARK  13 active torsions:
REMARK  status: ('A' for Active; 'I' for Inactive)
REMARK    1  A    between atoms: C_1  and  N_2
REMARK    2  A    between atoms: C_1  and  C_7
REMARK    3  A    between atoms: C_1  and  C_21
REMARK    4  A    between atoms: C_7  and  C_8
REMARK    5  A    between atoms: C_8  and  C_9
REMARK    6  A    between atoms: C_9  and  C_11
REMARK    7  A    between atoms: C_9  and  C_14
REMARK    8  A    between atoms: C_11  and  O_12
REMARK    9  A    between atoms: C_14  and  C_15
REMARK   10  A    between atoms: C_21  and  C_22
REMARK   11  A    between atoms: C_22  and  C_23
REMARK   12  A    between atoms: C_23  and  N_24
REMARK   13  A    between atoms: N_24  and  C_27
REMARK                            x       y       z     vdW  Elec       q    Type
REMARK                         _______ _______ _______ _____ _____    ______ ____
ROOT
ATOM      1  C   UNL     1     -34.515  26.481   3.574  0.00  0.00    -0.006 C 
ENDROOT
BRANCH   1   2
ATOM      2  N   UNL     1     -35.332  27.687   3.701  0.00  0.00    +0.386 N 
ATOM      3  H   UNL     1     -35.444  27.918   4.688  0.00  0.00    -0.089 HD
ATOM      4  H   UNL     1     -36.248  27.521   3.283  0.00  0.00    -0.089 HD
ATOM      5  H   UNL     1     -34.873  28.460   3.219  0.00  0.00    -0.089 HD
ENDBRANCH   1   2
BRANCH   1   7
ATOM      6  O   UNL     1     -35.108  26.285   5.898  0.00  0.00    -0.298 OA
ATOM      7  C   UNL     1     -34.678  25.726   4.889  0.00  0.00    +0.131 C 
BRANCH   7   8
ATOM      8  C   UNL     1     -34.362  24.233   4.853  0.00  0.00    +0.074 C 
BRANCH   8   9
ATOM      9  C   UNL     1     -35.575  23.294   4.764  0.00  0.00    +0.110 C 
BRANCH   9  11
ATOM     10  O   UNL     1     -35.169  22.037   6.820  0.00  0.00    -0.250 OA
ATOM     11  C   UNL     1     -35.350  22.045   5.610  0.00  0.00    +0.314 C 
BRANCH  11  12
ATOM     12  O   UNL     1     -35.379  20.910   4.864  0.00  0.00    -0.480 OA
ATOM     13  H   UNL     1     -34.853  20.174   5.110  0.00  0.00    +0.295 HD
ENDBRANCH  11  12
ENDBRANCH   9  11
BRANCH   9  14
ATOM     14  C   UNL     1     -35.956  22.964   3.306  0.00  0.00    +0.038 C 
BRANCH  14  15
ATOM     15  C   UNL     1     -37.390  23.311   2.973  0.00  0.00    -0.022 C 
ATOM     16  C   UNL     1     -38.203  22.376   2.334  0.00  0.00    -0.004 C 
ATOM     17  C   UNL     1     -37.897  24.567   3.306  0.00  0.00    -0.004 C 
ATOM     18  C   UNL     1     -39.526  22.697   2.028  0.00  0.00    -0.000 C 
ATOM     19  C   UNL     1     -39.220  24.888   2.999  0.00  0.00    -0.000 C 
ATOM     20  C   UNL     1     -40.034  23.952   2.360  0.00  0.00    -0.000 C 
ENDBRANCH  14  15
ENDBRANCH   9  14
ENDBRANCH   8   9
ENDBRANCH   7   8
ENDBRANCH   1   7
BRANCH   1  21
ATOM     21  C   UNL     1     -33.049  26.838   3.291  0.00  0.00    -0.013 C 
BRANCH  21  22
ATOM     22  C   UNL     1     -32.842  28.354   3.165  0.00  0.00    +0.025 C 
BRANCH  22  23
ATOM     23  C   UNL     1     -32.059  28.933   4.339  0.00  0.00    +0.129 C 
BRANCH  23  24
ATOM     24  N   UNL     1     -31.723  27.870   5.287  0.00  0.00    -0.240 NA
BRANCH  24  27
ATOM     25  N   UNL     1     -31.596  29.246   7.252  0.00  0.00    -0.370 N 
ATOM     26  N   UNL     1     -32.579  27.192   7.332  0.00  0.00    -0.370 N 
ATOM     27  C   UNL     1     -31.938  28.117   6.542  0.00  0.00    +0.189 C 
ATOM     28  H   UNL     1     -31.130  29.988   6.802  0.00  0.00    +0.159 HD
ATOM     29  H   UNL     1     -31.816  29.312   8.209  0.00  0.00    +0.159 HD
ATOM     30  H   UNL     1     -32.878  26.337   6.946  0.00  0.00    +0.159 HD
ATOM     31  H   UNL     1     -32.739  27.384   8.284  0.00  0.00    +0.159 HD
ENDBRANCH  24  27
ENDBRANCH  23  24
ENDBRANCH  22  23
ENDBRANCH  21  22
ENDBRANCH   1  21
TORSDOF 13
ENDMDL
MODEL 5
REMARK VINA RESULT:      -5.9      4.618      6.570
REMARK  Name = 5487158
REMARK  13 active torsions:
REMARK  status: ('A' for Active; 'I' for Inactive)
REMARK    1  A    between atoms: C_1  and  N_2
REMARK    2  A    between atoms: C_1  and  C_7
REMARK    3  A    between atoms: C_1  and  C_21
REMARK    4  A    between atoms: C_7  and  C_8
REMARK    5  A    between atoms: C_8  and  C_9
REMARK    6  A    between atoms: C_9  and  C_11
REMARK    7  A    between atoms: C_9  and  C_14
REMARK    8  A    between atoms: C_11  and  O_12
REMARK    9  A    between atoms: C_14  and  C_15
REMARK   10  A    between atoms: C_21  and  C_22
REMARK   11  A    between atoms: C_22  and  C_23
REMARK   12  A    between atoms: C_23  and  N_24
REMARK   13  A    between atoms: N_24  and  C_27
REMARK                            x       y       z     vdW  Elec       q    Type
REMARK                         _______ _______ _______ _____ _____    ______ ____
ROOT
ATOM      1  C   UNL     1     -34.285  27.559   2.475  0.00  0.00    -0.006 C 
ENDROOT
BRANCH   1   2
ATOM      2  N   UNL     1     -35.137  28.449   3.263  0.00  0.00    +0.386 N 
ATOM      3  H   UNL     1     -35.765  27.892   3.842  0.00  0.00    -0.089 HD
ATOM      4  H   UNL     1     -35.684  29.038   2.636  0.00  0.00    -0.089 HD
ATOM      5  H   UNL     1     -34.553  29.036   3.858  0.00  0.00    -0.089 HD
ENDBRANCH   1   2
BRANCH   1   7
ATOM      6  O   UNL     1     -34.785  25.582   1.196  0.00  0.00    -0.298 OA
ATOM      7  C   UNL     1     -35.221  26.525   1.857  0.00  0.00    +0.131 C 
BRANCH   7   8
ATOM      8  C   UNL     1     -36.704  26.681   2.179  0.00  0.00    +0.074 C 
BRANCH   8   9
ATOM      9  C   UNL     1     -37.333  25.548   3.005  0.00  0.00    +0.110 C 
BRANCH   9  11
ATOM     10  O   UNL     1     -39.491  26.583   2.512  0.00  0.00    -0.250 OA
ATOM     11  C   UNL     1     -38.843  25.731   3.106  0.00  0.00    +0.314 C 
BRANCH  11  12
ATOM     12  O   UNL     1     -39.416  24.824   3.940  0.00  0.00    -0.480 OA
ATOM     13  H   UNL     1     -40.258  24.467   3.737  0.00  0.00    +0.295 HD
ENDBRANCH  11  12
ENDBRANCH   9  11
BRANCH   9  14
ATOM     14  C   UNL     1     -36.661  25.385   4.384  0.00  0.00    +0.038 C 
BRANCH  14  15
ATOM     15  C   UNL     1     -36.104  23.998   4.614  0.00  0.00    -0.022 C 
ATOM     16  C   UNL     1     -35.574  23.657   5.858  0.00  0.00    -0.004 C 
ATOM     17  C   UNL     1     -36.122  23.061   3.582  0.00  0.00    -0.004 C 
ATOM     18  C   UNL     1     -35.060  22.376   6.069  0.00  0.00    -0.000 C 
ATOM     19  C   UNL     1     -35.608  21.780   3.793  0.00  0.00    -0.000 C 
ATOM     20  C   UNL     1     -35.078  21.439   5.037  0.00  0.00    -0.000 C 
ENDBRANCH  14  15
ENDBRANCH   9  14
ENDBRANCH   8   9
ENDBRANCH   7   8
ENDBRANCH   1   7
BRANCH   1  21
ATOM     21  C   UNL     1     -33.206  26.911   3.352  0.00  0.00    -0.013 C 
BRANCH  21  22
ATOM     22  C   UNL     1     -31.853  27.624   3.218  0.00  0.00    +0.025 C 
BRANCH  22  23
ATOM     23  C   UNL     1     -31.682  28.745   4.237  0.00  0.00    +0.129 C 
BRANCH  23  24
ATOM     24  N   UNL     1     -32.575  28.524   5.376  0.00  0.00    -0.240 NA
BRANCH  24  27
ATOM     25  N   UNL     1     -30.949  28.948   7.092  0.00  0.00    -0.370 N 
ATOM     26  N   UNL     1     -32.476  27.273   7.325  0.00  0.00    -0.370 N 
ATOM     27  C   UNL     1     -32.014  28.288   6.521  0.00  0.00    +0.189 C 
ATOM     28  H   UNL     1     -30.523  29.699   6.618  0.00  0.00    +0.159 HD
ATOM     29  H   UNL     1     -30.613  28.670   7.975  0.00  0.00    +0.159 HD
ATOM     30  H   UNL     1     -33.237  26.721   7.032  0.00  0.00    +0.159 HD
ATOM     31  H   UNL     1     -32.046  27.097   8.193  0.00  0.00    +0.159 HD
ENDBRANCH  24  27
ENDBRANCH  23  24
ENDBRANCH  22  23
ENDBRANCH  21  22
ENDBRANCH   1  21
TORSDOF 13
ENDMDL
MODEL 6
REMARK VINA RESULT:      -5.9      1.860      2.667
REMARK  Name = 5487158
REMARK  13 active torsions:
REMARK  status: ('A' for Active; 'I' for Inactive)
REMARK    1  A    between atoms: C_1  and  N_2
REMARK    2  A    between atoms: C_1  and  C_7
REMARK    3  A    between atoms: C_1  and  C_21
REMARK    4  A    between atoms: C_7  and  C_8
REMARK    5  A    between atoms: C_8  and  C_9
REMARK    6  A    between atoms: C_9  and  C_11
REMARK    7  A    between atoms: C_9  and  C_14
REMARK    8  A    between atoms: C_11  and  O_12
REMARK    9  A    between atoms: C_14  and  C_15
REMARK   10  A    between atoms: C_21  and  C_22
REMARK   11  A    between atoms: C_22  and  C_23
REMARK   12  A    between atoms: C_23  and  N_24
REMARK   13  A    between atoms: N_24  and  C_27
REMARK                            x       y       z     vdW  Elec       q    Type
REMARK                         _______ _______ _______ _____ _____    ______ ____
ROOT
ATOM      1  C   UNL     1     -36.641  25.003   4.069  0.00  0.00    -0.006 C 
ENDROOT
BRANCH   1   2
ATOM      2  N   UNL     1     -38.096  24.880   4.162  0.00  0.00    +0.386 N 
ATOM      3  H   UNL     1     -38.522  25.796   4.022  0.00  0.00    -0.089 HD
ATOM      4  H   UNL     1     -38.348  24.523   5.083  0.00  0.00    -0.089 HD
ATOM      5  H   UNL     1     -38.428  24.236   3.444  0.00  0.00    -0.089 HD
ENDBRANCH   1   2
BRANCH   1   7
ATOM      6  O   UNL     1     -35.631  24.468   1.951  0.00  0.00    -0.298 OA
ATOM      7  C   UNL     1     -36.213  24.054   2.954  0.00  0.00    +0.131 C 
BRANCH   7   8
ATOM      8  C   UNL     1     -36.469  22.570   3.197  0.00  0.00    +0.074 C 
BRANCH   8   9
ATOM      9  C   UNL     1     -36.440  21.673   1.949  0.00  0.00    +0.110 C 
BRANCH   9  11
ATOM     10  O   UNL     1     -38.209  21.787   0.267  0.00  0.00    -0.250 OA
ATOM     11  C   UNL     1     -37.847  21.479   1.395  0.00  0.00    +0.314 C 
BRANCH  11  12
ATOM     12  O   UNL     1     -38.681  20.906   2.302  0.00  0.00    -0.480 OA
ATOM     13  H   UNL     1     -39.391  20.368   2.012  0.00  0.00    +0.295 HD
ENDBRANCH  11  12
ENDBRANCH   9  11
BRANCH   9  14
ATOM     14  C   UNL     1     -35.713  20.337   2.204  0.00  0.00    +0.038 C 
BRANCH  14  15
ATOM     15  C   UNL     1     -34.400  20.224   1.460  0.00  0.00    -0.022 C 
ATOM     16  C   UNL     1     -33.625  19.071   1.586  0.00  0.00    -0.004 C 
ATOM     17  C   UNL     1     -33.967  21.272   0.649  0.00  0.00    -0.004 C 
ATOM     18  C   UNL     1     -32.414  18.967   0.899  0.00  0.00    -0.000 C 
ATOM     19  C   UNL     1     -32.756  21.168  -0.037  0.00  0.00    -0.000 C 
ATOM     20  C   UNL     1     -31.981  20.015   0.088  0.00  0.00    -0.000 C 
ENDBRANCH  14  15
ENDBRANCH   9  14
ENDBRANCH   8   9
ENDBRANCH   7   8
ENDBRANCH   1   7
BRANCH   1  21
ATOM     21  C   UNL     1     -35.975  24.660   5.408  0.00  0.00    -0.013 C 
BRANCH  21  22
ATOM     22  C   UNL     1     -34.446  24.793   5.339  0.00  0.00    +0.025 C 
BRANCH  22  23
ATOM     23  C   UNL     1     -33.961  26.166   5.790  0.00  0.00    +0.129 C 
BRANCH  23  24
ATOM     24  N   UNL     1     -33.171  26.789   4.726  0.00  0.00    -0.240 NA
BRANCH  24  27
ATOM     25  N   UNL     1     -33.633  26.766   2.369  0.00  0.00    -0.370 N 
ATOM     26  N   UNL     1     -34.822  28.109   3.775  0.00  0.00    -0.370 N 
ATOM     27  C   UNL     1     -33.817  27.177   3.670  0.00  0.00    +0.189 C 
ATOM     28  H   UNL     1     -32.941  26.098   2.156  0.00  0.00    +0.159 HD
ATOM     29  H   UNL     1     -34.193  27.141   1.650  0.00  0.00    +0.159 HD
ATOM     30  H   UNL     1     -35.055  28.485   4.654  0.00  0.00    +0.159 HD
ATOM     31  H   UNL     1     -35.309  28.401   2.971  0.00  0.00    +0.159 HD
ENDBRANCH  24  27
ENDBRANCH  23  24
ENDBRANCH  22  23
ENDBRANCH  21  22
ENDBRANCH   1  21
TORSDOF 13
ENDMDL
MODEL 7
REMARK VINA RESULT:      -5.8      2.390      3.336
REMARK  Name = 5487158
REMARK  13 active torsions:
REMARK  status: ('A' for Active; 'I' for Inactive)
REMARK    1  A    between atoms: C_1  and  N_2
REMARK    2  A    between atoms: C_1  and  C_7
REMARK    3  A    between atoms: C_1  and  C_21
REMARK    4  A    between atoms: C_7  and  C_8
REMARK    5  A    between atoms: C_8  and  C_9
REMARK    6  A    between atoms: C_9  and  C_11
REMARK    7  A    between atoms: C_9  and  C_14
REMARK    8  A    between atoms: C_11  and  O_12
REMARK    9  A    between atoms: C_14  and  C_15
REMARK   10  A    between atoms: C_21  and  C_22
REMARK   11  A    between atoms: C_22  and  C_23
REMARK   12  A    between atoms: C_23  and  N_24
REMARK   13  A    between atoms: N_24  and  C_27
REMARK                            x       y       z     vdW  Elec       q    Type
REMARK                         _______ _______ _______ _____ _____    ______ ____
ROOT
ATOM      1  C   UNL     1     -35.907  23.836   4.994  0.00  0.00    -0.006 C 
ENDROOT
BRANCH   1   2
ATOM      2  N   UNL     1     -36.095  22.540   5.646  0.00  0.00    +0.386 N 
ATOM      3  H   UNL     1     -36.834  22.616   6.344  0.00  0.00    -0.089 HD
ATOM      4  H   UNL     1     -35.226  22.259   6.099  0.00  0.00    -0.089 HD
ATOM      5  H   UNL     1     -36.355  21.844   4.947  0.00  0.00    -0.089 HD
ENDBRANCH   1   2
BRANCH   1   7
ATOM      6  O   UNL     1     -35.184  24.052   2.708  0.00  0.00    -0.298 OA
ATOM      7  C   UNL     1     -35.997  23.566   3.495  0.00  0.00    +0.131 C 
BRANCH   7   8
ATOM      8  C   UNL     1     -37.091  22.600   3.049  0.00  0.00    +0.074 C 
BRANCH   8   9
ATOM      9  C   UNL     1     -36.693  21.600   1.952  0.00  0.00    +0.110 C 
BRANCH   9  11
ATOM     10  O   UNL     1     -37.998  20.596   0.145  0.00  0.00    -0.250 OA
ATOM     11  C   UNL     1     -37.933  20.998   1.300  0.00  0.00    +0.314 C 
BRANCH  11  12
ATOM     12  O   UNL     1     -38.987  20.943   2.156  0.00  0.00    -0.480 OA
ATOM     13  H   UNL     1     -39.637  21.618   2.143  0.00  0.00    +0.295 HD
ENDBRANCH  11  12
ENDBRANCH   9  11
BRANCH   9  14
ATOM     14  C   UNL     1     -35.711  20.526   2.464  0.00  0.00    +0.038 C 
BRANCH  14  15
ATOM     15  C   UNL     1     -34.483  20.381   1.593  0.00  0.00    -0.022 C 
ATOM     16  C   UNL     1     -34.106  21.419   0.742  0.00  0.00    -0.004 C 
ATOM     17  C   UNL     1     -33.729  19.209   1.642  0.00  0.00    -0.004 C 
ATOM     18  C   UNL     1     -32.973  21.285  -0.062  0.00  0.00    -0.000 C 
ATOM     19  C   UNL     1     -32.596  19.075   0.838  0.00  0.00    -0.000 C 
ATOM     20  C   UNL     1     -32.219  20.113  -0.013  0.00  0.00    -0.000 C 
ENDBRANCH  14  15
ENDBRANCH   9  14
ENDBRANCH   8   9
ENDBRANCH   7   8
ENDBRANCH   1   7
BRANCH   1  21
ATOM     21  C   UNL     1     -34.562  24.460   5.389  0.00  0.00    -0.013 C 
BRANCH  21  22
ATOM     22  C   UNL     1     -34.690  25.961   5.684  0.00  0.00    +0.025 C 
BRANCH  22  23
ATOM     23  C   UNL     1     -33.449  26.528   6.365  0.00  0.00    +0.129 C 
BRANCH  23  24
ATOM     24  N   UNL     1     -32.738  27.417   5.445  0.00  0.00    -0.240 NA
BRANCH  24  27
ATOM     25  N   UNL     1     -32.251  29.725   5.900  0.00  0.00    -0.370 N 
ATOM     26  N   UNL     1     -30.920  28.070   6.727  0.00  0.00    -0.370 N 
ATOM     27  C   UNL     1     -32.034  28.367   5.978  0.00  0.00    +0.189 C 
ATOM     28  H   UNL     1     -33.019  30.072   5.391  0.00  0.00    +0.159 HD
ATOM     29  H   UNL     1     -31.638  30.349   6.353  0.00  0.00    +0.159 HD
ATOM     30  H   UNL     1     -30.653  27.132   6.862  0.00  0.00    +0.159 HD
ATOM     31  H   UNL     1     -30.389  28.795   7.129  0.00  0.00    +0.159 HD
ENDBRANCH  24  27
ENDBRANCH  23  24
ENDBRANCH  22  23
ENDBRANCH  21  22
ENDBRANCH   1  21
TORSDOF 13
ENDMDL
MODEL 8
REMARK VINA RESULT:      -5.8      2.112      3.082
REMARK  Name = 5487158
REMARK  13 active torsions:
REMARK  status: ('A' for Active; 'I' for Inactive)
REMARK    1  A    between atoms: C_1  and  N_2
REMARK    2  A    between atoms: C_1  and  C_7
REMARK    3  A    between atoms: C_1  and  C_21
REMARK    4  A    between atoms: C_7  and  C_8
REMARK    5  A    between atoms: C_8  and  C_9
REMARK    6  A    between atoms: C_9  and  C_11
REMARK    7  A    between atoms: C_9  and  C_14
REMARK    8  A    between atoms: C_11  and  O_12
REMARK    9  A    between atoms: C_14  and  C_15
REMARK   10  A    between atoms: C_21  and  C_22
REMARK   11  A    between atoms: C_22  and  C_23
REMARK   12  A    between atoms: C_23  and  N_24
REMARK   13  A    between atoms: N_24  and  C_27
REMARK                            x       y       z     vdW  Elec       q    Type
REMARK                         _______ _______ _______ _____ _____    ______ ____
ROOT
ATOM      1  C   UNL     1     -35.821  22.742   5.132  0.00  0.00    -0.006 C 
ENDROOT
BRANCH   1   2
ATOM      2  N   UNL     1     -35.942  21.918   6.334  0.00  0.00    +0.386 N 
ATOM      3  H   UNL     1     -35.475  22.383   7.113  0.00  0.00    -0.089 HD
ATOM      4  H   UNL     1     -35.506  21.011   6.169  0.00  0.00    -0.089 HD
ATOM      5  H   UNL     1     -36.929  21.786   6.557  0.00  0.00    -0.089 HD
ENDBRANCH   1   2
BRANCH   1   7
ATOM      6  O   UNL     1     -35.151  20.629   4.196  0.00  0.00    -0.298 OA
ATOM      7  C   UNL     1     -35.558  21.771   3.985  0.00  0.00    +0.131 C 
BRANCH   7   8
ATOM      8  C   UNL     1     -35.910  22.270   2.587  0.00  0.00    +0.074 C 
BRANCH   8   9
ATOM      9  C   UNL     1     -34.729  22.425   1.615  0.00  0.00    +0.110 C 
BRANCH   9  11
ATOM     10  O   UNL     1     -33.994  24.205   0.112  0.00  0.00    -0.250 OA
ATOM     11  C   UNL     1     -34.665  23.848   1.071  0.00  0.00    +0.314 C 
BRANCH  11  12
ATOM     12  O   UNL     1     -35.456  24.701   1.773  0.00  0.00    -0.480 OA
ATOM     13  H   UNL     1     -35.489  25.608   1.539  0.00  0.00    +0.295 HD
ENDBRANCH  11  12
ENDBRANCH   9  11
BRANCH   9  14
ATOM     14  C   UNL     1     -34.747  21.362   0.497  0.00  0.00    +0.038 C 
BRANCH  14  15
ATOM     15  C   UNL     1     -33.615  20.365   0.608  0.00  0.00    -0.022 C 
ATOM     16  C   UNL     1     -33.802  19.172   1.307  0.00  0.00    -0.004 C 
ATOM     17  C   UNL     1     -32.384  20.638   0.013  0.00  0.00    -0.004 C 
ATOM     18  C   UNL     1     -32.758  18.252   1.409  0.00  0.00    -0.000 C 
ATOM     19  C   UNL     1     -31.340  19.719   0.115  0.00  0.00    -0.000 C 
ATOM     20  C   UNL     1     -31.527  18.526   0.813  0.00  0.00    -0.000 C 
ENDBRANCH  14  15
ENDBRANCH   9  14
ENDBRANCH   8   9
ENDBRANCH   7   8
ENDBRANCH   1   7
BRANCH   1  21
ATOM     21  C   UNL     1     -34.697  23.775   5.285  0.00  0.00    -0.013 C 
BRANCH  21  22
ATOM     22  C   UNL     1     -35.244  25.181   5.570  0.00  0.00    +0.025 C 
BRANCH  22  23
ATOM     23  C   UNL     1     -34.139  26.230   5.650  0.00  0.00    +0.129 C 
BRANCH  23  24
ATOM     24  N   UNL     1     -33.408  26.281   4.383  0.00  0.00    -0.240 NA
BRANCH  24  27
ATOM     25  N   UNL     1     -33.505  27.174   2.155  0.00  0.00    -0.370 N 
ATOM     26  N   UNL     1     -34.779  28.064   3.822  0.00  0.00    -0.370 N 
ATOM     27  C   UNL     1     -33.851  27.107   3.487  0.00  0.00    +0.189 C 
ATOM     28  H   UNL     1     -32.847  26.542   1.785  0.00  0.00    +0.159 HD
ATOM     29  H   UNL     1     -33.916  27.854   1.573  0.00  0.00    +0.159 HD
ATOM     30  H   UNL     1     -35.112  28.124   4.747  0.00  0.00    +0.159 HD
ATOM     31  H   UNL     1     -35.111  28.689   3.138  0.00  0.00    +0.159 HD
ENDBRANCH  24  27
ENDBRANCH  23  24
ENDBRANCH  22  23
ENDBRANCH  21  22
ENDBRANCH   1  21
TORSDOF 13
ENDMDL
MODEL 9
REMARK VINA RESULT:      -5.7      1.216      1.849
REMARK  Name = 5487158
REMARK  13 active torsions:
REMARK  status: ('A' for Active; 'I' for Inactive)
REMARK    1  A    between atoms: C_1  and  N_2
REMARK    2  A    between atoms: C_1  and  C_7
REMARK    3  A    between atoms: C_1  and  C_21
REMARK    4  A    between atoms: C_7  and  C_8
REMARK    5  A    between atoms: C_8  and  C_9
REMARK    6  A    between atoms: C_9  and  C_11
REMARK    7  A    between atoms: C_9  and  C_14
REMARK    8  A    between atoms: C_11  and  O_12
REMARK    9  A    between atoms: C_14  and  C_15
REMARK   10  A    between atoms: C_21  and  C_22
REMARK   11  A    between atoms: C_22  and  C_23
REMARK   12  A    between atoms: C_23  and  N_24
REMARK   13  A    between atoms: N_24  and  C_27
REMARK                            x       y       z     vdW  Elec       q    Type
REMARK                         _______ _______ _______ _____ _____    ______ ____
ROOT
ATOM      1  C   UNL     1     -36.332  22.916   3.335  0.00  0.00    -0.006 C 
ENDROOT
BRANCH   1   2
ATOM      2  N   UNL     1     -37.641  22.298   3.130  0.00  0.00    +0.386 N 
ATOM      3  H   UNL     1     -37.837  21.656   3.898  0.00  0.00    -0.089 HD
ATOM      4  H   UNL     1     -37.641  21.786   2.249  0.00  0.00    -0.089 HD
ATOM      5  H   UNL     1     -38.358  23.024   3.101  0.00  0.00    -0.089 HD
ENDBRANCH   1   2
BRANCH   1   7
ATOM      6  O   UNL     1     -34.457  23.227   1.859  0.00  0.00    -0.298 OA
ATOM      7  C   UNL     1     -35.595  22.783   2.006  0.00  0.00    +0.131 C 
BRANCH   7   8
ATOM      8  C   UNL     1     -36.315  21.999   0.912  0.00  0.00    +0.074 C 
BRANCH   8   9
ATOM      9  C   UNL     1     -35.790  20.578   0.652  0.00  0.00    +0.110 C 
BRANCH   9  11
ATOM     10  O   UNL     1     -36.851  18.483  -0.026  0.00  0.00    -0.250 OA
ATOM     11  C   UNL     1     -36.948  19.606   0.450  0.00  0.00    +0.314 C 
BRANCH  11  12
ATOM     12  O   UNL     1     -38.131  20.125   0.872  0.00  0.00    -0.480 OA
ATOM     13  H   UNL     1     -38.705  19.610   1.405  0.00  0.00    +0.295 HD
ENDBRANCH  11  12
ENDBRANCH   9  11
BRANCH   9  14
ATOM     14  C   UNL     1     -34.804  20.108   1.742  0.00  0.00    +0.038 C 
BRANCH  14  15
ATOM     15  C   UNL     1     -33.464  19.682   1.185  0.00  0.00    -0.022 C 
ATOM     16  C   UNL     1     -32.754  20.538   0.344  0.00  0.00    -0.004 C 
ATOM     17  C   UNL     1     -32.938  18.433   1.514  0.00  0.00    -0.004 C 
ATOM     18  C   UNL     1     -31.517  20.144  -0.170  0.00  0.00    -0.000 C 
ATOM     19  C   UNL     1     -31.702  18.039   1.000  0.00  0.00    -0.000 C 
ATOM     20  C   UNL     1     -30.992  18.895   0.159  0.00  0.00    -0.000 C 
ENDBRANCH  14  15
ENDBRANCH   9  14
ENDBRANCH   8   9
ENDBRANCH   7   8
ENDBRANCH   1   7
BRANCH   1  21
ATOM     21  C   UNL     1     -35.577  22.236   4.485  0.00  0.00    -0.013 C 
BRANCH  21  22
ATOM     22  C   UNL     1     -35.287  23.210   5.636  0.00  0.00    +0.025 C 
BRANCH  22  23
ATOM     23  C   UNL     1     -35.749  24.630   5.327  0.00  0.00    +0.129 C 
BRANCH  23  24
ATOM     24  N   UNL     1     -34.735  25.591   5.764  0.00  0.00    -0.240 NA
BRANCH  24  27
ATOM     25  N   UNL     1     -33.825  25.714   3.544  0.00  0.00    -0.370 N 
ATOM     26  N   UNL     1     -33.345  27.318   5.090  0.00  0.00    -0.370 N 
ATOM     27  C   UNL     1     -34.021  26.149   4.836  0.00  0.00    +0.189 C 
ATOM     28  H   UNL     1     -34.255  24.885   3.233  0.00  0.00    +0.159 HD
ATOM     29  H   UNL     1     -33.254  26.232   2.931  0.00  0.00    +0.159 HD
ATOM     30  H   UNL     1     -33.401  27.737   5.979  0.00  0.00    +0.159 HD
ATOM     31  H   UNL     1     -32.804  27.738   4.383  0.00  0.00    +0.159 HD
ENDBRANCH  24  27
ENDBRANCH  23  24
ENDBRANCH  22  23
ENDBRANCH  21  22
ENDBRANCH   1  21
TORSDOF 13
ENDMDL
