MODEL 1
REMARK VINA RESULT:      -5.8      0.000      0.000
REMARK  Name = 19365650
REMARK  11 active torsions:
REMARK  status: ('A' for Active; 'I' for Inactive)
REMARK    1  A    between atoms: N_2  and  CA_5
REMARK    2  A    between atoms: C_3  and  CA_19
REMARK    3  A    between atoms: CA_5  and  C_7
REMARK    4  A    between atoms: CA_5  and  CB_10
REMARK    5  A    between atoms: C_7  and  O_8
REMARK    6  A    between atoms: CB_10  and  CG_11
REMARK    7  A    between atoms: CZ_16  and  OH_17
REMARK    8  A    between atoms: CA_19  and  N_20
REMARK    9  A    between atoms: CA_19  and  CB_24
REMARK   10  A    between atoms: CB_24  and  CG_26
REMARK   11  A    between atoms: CG_26  and  OD1_27
REMARK                            x       y       z     vdW  Elec       q    Type
REMARK                         _______ _______ _______ _____ _____    ______ ____
ROOT
ATOM      1  O   ASP A   1     -34.461  23.146   1.534  0.00  0.00    -0.277 OA
ATOM      2  N   TYR A   2     -35.408  21.157   2.258  0.00  0.00    -0.298 N 
ATOM      3  C   ASP A   1     -35.140  22.516   2.342  0.00  0.00    +0.203 C 
ATOM      4  H   TYR A   2     -35.963  20.737   2.954  0.00  0.00    +0.150 HD
ENDROOT
BRANCH   2   5
ATOM      5  CA  TYR A   2     -34.900  20.337   1.183  0.00  0.00    +0.176 C 
BRANCH   5   7
ATOM      6  OXT TYR A   2     -36.129  19.748  -0.815  0.00  0.00    -0.248 OA
ATOM      7  C   TYR A   2     -36.033  19.685   0.406  0.00  0.00    +0.332 C 
BRANCH   7   8
ATOM      8  O   TYR A   2     -36.934  19.018   1.167  0.00  0.00    -0.479 OA
ATOM      9  H   TYR A   2     -37.809  19.343   1.251  0.00  0.00    +0.295 HD
ENDBRANCH   7   8
ENDBRANCH   5   7
BRANCH   5  10
ATOM     10  CB  TYR A   2     -33.942  19.262   1.714  0.00  0.00    +0.057 C 
BRANCH  10  11
ATOM     11  CG  TYR A   2     -32.616  19.247   0.994  0.00  0.00    -0.020 C 
ATOM     12  CD1 TYR A   2     -31.785  18.146   1.121  0.00  0.00    -0.001 C 
ATOM     13  CD2 TYR A   2     -32.252  20.338   0.218  0.00  0.00    -0.001 C 
ATOM     14  CE1 TYR A   2     -30.559  18.133   0.457  0.00  0.00    +0.036 C 
ATOM     15  CE2 TYR A   2     -31.027  20.325  -0.447  0.00  0.00    +0.036 C 
ATOM     16  CZ  TYR A   2     -30.180  19.222  -0.328  0.00  0.00    +0.134 C 
BRANCH  16  17
ATOM     17  OH  TYR A   2     -28.983  19.209  -0.977  0.00  0.00    -0.506 OA
ATOM     18  HH  TYR A   2     -28.837  18.604  -1.678  0.00  0.00    +0.292 HD
ENDBRANCH  16  17
ENDBRANCH  10  11
ENDBRANCH   5  10
ENDBRANCH   2   5
BRANCH   3  19
ATOM     19  CA  ASP A   1     -35.761  23.156   3.581  0.00  0.00    +0.024 C 
BRANCH  19  20
ATOM     20  N   ASP A   1     -37.033  22.466   3.801  0.00  0.00    +0.388 N 
ATOM     21  H1  ASP A   1     -37.499  22.865   4.616  0.00  0.00    -0.089 HD
ATOM     22  H2  ASP A   1     -36.859  21.474   3.959  0.00  0.00    -0.089 HD
ATOM     23  H3  ASP A   1     -37.627  22.581   2.979  0.00  0.00    -0.089 HD
ENDBRANCH  19  20
BRANCH  19  24
ATOM     24  CB  ASP A   1     -34.881  22.989   4.820  0.00  0.00    +0.096 C 
BRANCH  24  26
ATOM     25  OD2 ASP A   1     -36.057  22.110   6.740  0.00  0.00    -0.250 OA
ATOM     26  CG  ASP A   1     -35.419  21.899   5.716  0.00  0.00    +0.312 C 
BRANCH  26  27
ATOM     27  OD1 ASP A   1     -35.097  20.656   5.282  0.00  0.00    -0.480 OA
ATOM     28  HD1 ASP A   1     -35.413  19.903   5.741  0.00  0.00    +0.295 HD
ENDBRANCH  26  27
ENDBRANCH  24  26
ENDBRANCH  19  24
ENDBRANCH   3  19
TORSDOF 11
ENDMDL
MODEL 2
REMARK VINA RESULT:      -5.7      3.789      6.056
REMARK  Name = 19365650
REMARK  11 active torsions:
REMARK  status: ('A' for Active; 'I' for Inactive)
REMARK    1  A    between atoms: N_2  and  CA_5
REMARK    2  A    between atoms: C_3  and  CA_19
REMARK    3  A    between atoms: CA_5  and  C_7
REMARK    4  A    between atoms: CA_5  and  CB_10
REMARK    5  A    between atoms: C_7  and  O_8
REMARK    6  A    between atoms: CB_10  and  CG_11
REMARK    7  A    between atoms: CZ_16  and  OH_17
REMARK    8  A    between atoms: CA_19  and  N_20
REMARK    9  A    between atoms: CA_19  and  CB_24
REMARK   10  A    between atoms: CB_24  and  CG_26
REMARK   11  A    between atoms: CG_26  and  OD1_27
REMARK                            x       y       z     vdW  Elec       q    Type
REMARK                         _______ _______ _______ _____ _____    ______ ____
ROOT
ATOM      1  O   ASP A   1     -37.152  23.671   0.905  0.00  0.00    -0.277 OA
ATOM      2  N   TYR A   2     -37.394  22.411   2.838  0.00  0.00    -0.298 N 
ATOM      3  C   ASP A   1     -37.853  23.223   1.811  0.00  0.00    +0.203 C 
ATOM      4  H   TYR A   2     -38.031  22.100   3.521  0.00  0.00    +0.150 HD
ENDROOT
BRANCH   2   5
ATOM      5  CA  TYR A   2     -36.011  22.006   2.939  0.00  0.00    +0.176 C 
BRANCH   5   7
ATOM      6  OXT TYR A   2     -34.764  19.981   2.496  0.00  0.00    -0.248 OA
ATOM      7  C   TYR A   2     -35.854  20.517   2.669  0.00  0.00    +0.332 C 
BRANCH   7   8
ATOM      8  O   TYR A   2     -37.015  19.818   2.640  0.00  0.00    -0.479 OA
ATOM      9  H   TYR A   2     -37.072  18.989   3.071  0.00  0.00    +0.295 HD
ENDBRANCH   7   8
ENDBRANCH   5   7
BRANCH   5  10
ATOM     10  CB  TYR A   2     -35.433  22.353   4.318  0.00  0.00    +0.057 C 
BRANCH  10  11
ATOM     11  CG  TYR A   2     -34.964  23.784   4.416  0.00  0.00    -0.020 C 
ATOM     12  CD1 TYR A   2     -34.442  24.407   3.295  0.00  0.00    -0.001 C 
ATOM     13  CD2 TYR A   2     -35.063  24.448   5.629  0.00  0.00    -0.001 C 
ATOM     14  CE1 TYR A   2     -34.008  25.729   3.387  0.00  0.00    +0.036 C 
ATOM     15  CE2 TYR A   2     -34.629  25.770   5.721  0.00  0.00    +0.036 C 
ATOM     16  CZ  TYR A   2     -34.102  26.411   4.600  0.00  0.00    +0.134 C 
BRANCH  16  17
ATOM     17  OH  TYR A   2     -33.678  27.702   4.689  0.00  0.00    -0.506 OA
ATOM     18  HH  TYR A   2     -33.400  28.048   5.514  0.00  0.00    +0.292 HD
ENDBRANCH  16  17
ENDBRANCH  10  11
ENDBRANCH   5  10
ENDBRANCH   2   5
BRANCH   3  19
ATOM     19  CA  ASP A   1     -39.342  23.536   1.939  0.00  0.00    +0.024 C 
BRANCH  19  20
ATOM     20  N   ASP A   1     -40.009  22.254   2.167  0.00  0.00    +0.388 N 
ATOM     21  H1  ASP A   1     -39.352  21.493   1.993  0.00  0.00    -0.089 HD
ATOM     22  H2  ASP A   1     -40.805  22.168   1.534  0.00  0.00    -0.089 HD
ATOM     23  H3  ASP A   1     -40.335  22.208   3.133  0.00  0.00    -0.089 HD
ENDBRANCH  19  20
BRANCH  19  24
ATOM     24  CB  ASP A   1     -39.638  24.470   3.113  0.00  0.00    +0.096 C 
BRANCH  24  26
ATOM     25  OD2 ASP A   1     -39.222  26.594   2.036  0.00  0.00    -0.250 OA
ATOM     26  CG  ASP A   1     -38.946  25.799   2.926  0.00  0.00    +0.312 C 
BRANCH  26  27
ATOM     27  OD1 ASP A   1     -37.963  26.012   3.835  0.00  0.00    -0.480 OA
ATOM     28  HD1 ASP A   1     -37.321  26.678   3.684  0.00  0.00    +0.295 HD
ENDBRANCH  26  27
ENDBRANCH  24  26
ENDBRANCH  19  24
ENDBRANCH   3  19
TORSDOF 11
ENDMDL
MODEL 3
REMARK VINA RESULT:      -5.7      5.168      7.802
REMARK  Name = 19365650
REMARK  11 active torsions:
REMARK  status: ('A' for Active; 'I' for Inactive)
REMARK    1  A    between atoms: N_2  and  CA_5
REMARK    2  A    between atoms: C_3  and  CA_19
REMARK    3  A    between atoms: CA_5  and  C_7
REMARK    4  A    between atoms: CA_5  and  CB_10
REMARK    5  A    between atoms: C_7  and  O_8
REMARK    6  A    between atoms: CB_10  and  CG_11
REMARK    7  A    between atoms: CZ_16  and  OH_17
REMARK    8  A    between atoms: CA_19  and  N_20
REMARK    9  A    between atoms: CA_19  and  CB_24
REMARK   10  A    between atoms: CB_24  and  CG_26
REMARK   11  A    between atoms: CG_26  and  OD1_27
REMARK                            x       y       z     vdW  Elec       q    Type
REMARK                         _______ _______ _______ _____ _____    ______ ____
ROOT
ATOM      1  O   ASP A   1     -31.981  26.968   3.680  0.00  0.00    -0.277 OA
ATOM      2  N   TYR A   2     -34.078  27.536   4.493  0.00  0.00    -0.298 N 
ATOM      3  C   ASP A   1     -32.690  27.579   4.477  0.00  0.00    +0.203 C 
ATOM      4  H   TYR A   2     -34.562  28.059   5.172  0.00  0.00    +0.150 HD
ENDROOT
BRANCH   2   5
ATOM      5  CA  TYR A   2     -34.834  26.748   3.549  0.00  0.00    +0.176 C 
BRANCH   5   7
ATOM      6  OXT TYR A   2     -34.543  28.093   1.559  0.00  0.00    -0.248 OA
ATOM      7  C   TYR A   2     -35.309  27.598   2.380  0.00  0.00    +0.332 C 
BRANCH   7   8
ATOM      8  O   TYR A   2     -36.651  27.766   2.307  0.00  0.00    -0.479 OA
ATOM      9  H   TYR A   2     -37.006  28.523   1.884  0.00  0.00    +0.295 HD
ENDBRANCH   7   8
ENDBRANCH   5   7
BRANCH   5  10
ATOM     10  CB  TYR A   2     -36.034  26.073   4.228  0.00  0.00    +0.057 C 
BRANCH  10  11
ATOM     11  CG  TYR A   2     -35.793  24.616   4.536  0.00  0.00    -0.020 C 
ATOM     12  CD1 TYR A   2     -35.978  23.671   3.540  0.00  0.00    -0.001 C 
ATOM     13  CD2 TYR A   2     -35.393  24.249   5.812  0.00  0.00    -0.001 C 
ATOM     14  CE1 TYR A   2     -35.757  22.324   3.826  0.00  0.00    +0.036 C 
ATOM     15  CE2 TYR A   2     -35.171  22.902   6.097  0.00  0.00    +0.036 C 
ATOM     16  CZ  TYR A   2     -35.353  21.939   5.104  0.00  0.00    +0.134 C 
BRANCH  16  17
ATOM     17  OH  TYR A   2     -35.136  20.624   5.382  0.00  0.00    -0.506 OA
ATOM     18  HH  TYR A   2     -34.750  20.066   4.736  0.00  0.00    +0.292 HD
ENDBRANCH  16  17
ENDBRANCH  10  11
ENDBRANCH   5  10
ENDBRANCH   2   5
BRANCH   3  19
ATOM     19  CA  ASP A   1     -32.123  28.455   5.591  0.00  0.00    +0.024 C 
BRANCH  19  20
ATOM     20  N   ASP A   1     -32.173  27.647   6.810  0.00  0.00    +0.388 N 
ATOM     21  H1  ASP A   1     -31.251  27.631   7.246  0.00  0.00    -0.089 HD
ATOM     22  H2  ASP A   1     -32.456  26.695   6.576  0.00  0.00    -0.089 HD
ATOM     23  H3  ASP A   1     -32.849  28.052   7.458  0.00  0.00    -0.089 HD
ENDBRANCH  19  20
BRANCH  19  24
ATOM     24  CB  ASP A   1     -30.675  28.865   5.323  0.00  0.00    +0.096 C 
BRANCH  24  26
ATOM     25  OD2 ASP A   1     -29.156  27.331   6.409  0.00  0.00    -0.250 OA
ATOM     26  CG  ASP A   1     -29.769  28.390   6.434  0.00  0.00    +0.312 C 
BRANCH  26  27
ATOM     27  OD1 ASP A   1     -29.726  29.251   7.480  0.00  0.00    -0.480 OA
ATOM     28  HD1 ASP A   1     -29.293  30.077   7.391  0.00  0.00    +0.295 HD
ENDBRANCH  26  27
ENDBRANCH  24  26
ENDBRANCH  19  24
ENDBRANCH   3  19
TORSDOF 11
ENDMDL
MODEL 4
REMARK VINA RESULT:      -5.7      4.071      6.747
REMARK  Name = 19365650
REMARK  11 active torsions:
REMARK  status: ('A' for Active; 'I' for Inactive)
REMARK    1  A    between atoms: N_2  and  CA_5
REMARK    2  A    between atoms: C_3  and  CA_19
REMARK    3  A    between atoms: CA_5  and  C_7
REMARK    4  A    between atoms: CA_5  and  CB_10
REMARK    5  A    between atoms: C_7  and  O_8
REMARK    6  A    between atoms: CB_10  and  CG_11
REMARK    7  A    between atoms: CZ_16  and  OH_17
REMARK    8  A    between atoms: CA_19  and  N_20
REMARK    9  A    between atoms: CA_19  and  CB_24
REMARK   10  A    between atoms: CB_24  and  CG_26
REMARK   11  A    between atoms: CG_26  and  OD1_27
REMARK                            x       y       z     vdW  Elec       q    Type
REMARK                         _______ _______ _______ _____ _____    ______ ____
ROOT
ATOM      1  O   ASP A   1     -35.342  22.928   1.576  0.00  0.00    -0.277 OA
ATOM      2  N   TYR A   2     -36.447  22.067   3.425  0.00  0.00    -0.298 N 
ATOM      3  C   ASP A   1     -36.233  22.235   2.064  0.00  0.00    +0.203 C 
ATOM      4  H   TYR A   2     -37.187  21.491   3.723  0.00  0.00    +0.150 HD
ENDROOT
BRANCH   2   5
ATOM      5  CA  TYR A   2     -35.620  22.709   4.420  0.00  0.00    +0.176 C 
BRANCH   5   7
ATOM      6  OXT TYR A   2     -35.813  22.265   6.790  0.00  0.00    -0.248 OA
ATOM      7  C   TYR A   2     -35.507  21.856   5.674  0.00  0.00    +0.332 C 
BRANCH   7   8
ATOM      8  O   TYR A   2     -35.046  20.599   5.467  0.00  0.00    -0.479 OA
ATOM      9  H   TYR A   2     -34.128  20.422   5.523  0.00  0.00    +0.295 HD
ENDBRANCH   7   8
ENDBRANCH   5   7
BRANCH   5  10
ATOM     10  CB  TYR A   2     -36.164  24.099   4.777  0.00  0.00    +0.057 C 
BRANCH  10  11
ATOM     11  CG  TYR A   2     -35.108  25.176   4.725  0.00  0.00    -0.020 C 
ATOM     12  CD1 TYR A   2     -34.727  25.695   3.499  0.00  0.00    -0.001 C 
ATOM     13  CD2 TYR A   2     -34.538  25.625   5.906  0.00  0.00    -0.001 C 
ATOM     14  CE1 TYR A   2     -33.751  26.690   3.451  0.00  0.00    +0.036 C 
ATOM     15  CE2 TYR A   2     -33.562  26.620   5.858  0.00  0.00    +0.036 C 
ATOM     16  CZ  TYR A   2     -33.168  27.153   4.631  0.00  0.00    +0.134 C 
BRANCH  16  17
ATOM     17  OH  TYR A   2     -32.216  28.124   4.583  0.00  0.00    -0.506 OA
ATOM     18  HH  TYR A   2     -32.408  28.950   4.183  0.00  0.00    +0.292 HD
ENDBRANCH  16  17
ENDBRANCH  10  11
ENDBRANCH   5  10
ENDBRANCH   2   5
BRANCH   3  19
ATOM     19  CA  ASP A   1     -37.254  21.480   1.217  0.00  0.00    +0.024 C 
BRANCH  19  20
ATOM     20  N   ASP A   1     -37.436  20.180   1.862  0.00  0.00    +0.388 N 
ATOM     21  H1  ASP A   1     -38.334  19.784   1.582  0.00  0.00    -0.089 HD
ATOM     22  H2  ASP A   1     -37.416  20.297   2.875  0.00  0.00    -0.089 HD
ATOM     23  H3  ASP A   1     -36.684  19.551   1.577  0.00  0.00    -0.089 HD
ENDBRANCH  19  20
BRANCH  19  24
ATOM     24  CB  ASP A   1     -38.601  22.202   1.157  0.00  0.00    +0.096 C 
BRANCH  24  26
ATOM     25  OD2 ASP A   1     -40.090  20.620   0.099  0.00  0.00    -0.250 OA
ATOM     26  CG  ASP A   1     -39.738  21.210   1.113  0.00  0.00    +0.312 C 
BRANCH  26  27
ATOM     27  OD1 ASP A   1     -40.350  21.059   2.313  0.00  0.00    -0.480 OA
ATOM     28  HD1 ASP A   1     -39.949  20.539   2.982  0.00  0.00    +0.295 HD
ENDBRANCH  26  27
ENDBRANCH  24  26
ENDBRANCH  19  24
ENDBRANCH   3  19
TORSDOF 11
ENDMDL
MODEL 5
REMARK VINA RESULT:      -5.7      2.214      2.708
REMARK  Name = 19365650
REMARK  11 active torsions:
REMARK  status: ('A' for Active; 'I' for Inactive)
REMARK    1  A    between atoms: N_2  and  CA_5
REMARK    2  A    between atoms: C_3  and  CA_19
REMARK    3  A    between atoms: CA_5  and  C_7
REMARK    4  A    between atoms: CA_5  and  CB_10
REMARK    5  A    between atoms: C_7  and  O_8
REMARK    6  A    between atoms: CB_10  and  CG_11
REMARK    7  A    between atoms: CZ_16  and  OH_17
REMARK    8  A    between atoms: CA_19  and  N_20
REMARK    9  A    between atoms: CA_19  and  CB_24
REMARK   10  A    between atoms: CB_24  and  CG_26
REMARK   11  A    between atoms: CG_26  and  OD1_27
REMARK                            x       y       z     vdW  Elec       q    Type
REMARK                         _______ _______ _______ _____ _____    ______ ____
ROOT
ATOM      1  O   ASP A   1     -35.009  23.711   2.802  0.00  0.00    -0.277 OA
ATOM      2  N   TYR A   2     -36.548  22.037   3.261  0.00  0.00    -0.298 N 
ATOM      3  C   ASP A   1     -35.787  23.155   3.575  0.00  0.00    +0.203 C 
ATOM      4  H   TYR A   2     -37.144  21.660   3.947  0.00  0.00    +0.150 HD
ENDROOT
BRANCH   2   5
ATOM      5  CA  TYR A   2     -36.493  21.409   1.962  0.00  0.00    +0.176 C 
BRANCH   5   7
ATOM      6  OXT TYR A   2     -38.113  21.123   0.189  0.00  0.00    -0.248 OA
ATOM      7  C   TYR A   2     -37.889  21.206   1.392  0.00  0.00    +0.332 C 
BRANCH   7   8
ATOM      8  O   TYR A   2     -38.874  21.115   2.318  0.00  0.00    -0.479 OA
ATOM      9  H   TYR A   2     -39.180  20.274   2.595  0.00  0.00    +0.295 HD
ENDBRANCH   7   8
ENDBRANCH   5   7
BRANCH   5  10
ATOM     10  CB  TYR A   2     -35.753  20.067   2.028  0.00  0.00    +0.057 C 
BRANCH  10  11
ATOM     11  CG  TYR A   2     -34.405  20.104   1.350  0.00  0.00    -0.020 C 
ATOM     12  CD1 TYR A   2     -33.533  19.040   1.511  0.00  0.00    -0.001 C 
ATOM     13  CD2 TYR A   2     -34.063  21.205   0.580  0.00  0.00    -0.001 C 
ATOM     14  CE1 TYR A   2     -32.287  19.075   0.886  0.00  0.00    +0.036 C 
ATOM     15  CE2 TYR A   2     -32.817  21.240  -0.046  0.00  0.00    +0.036 C 
ATOM     16  CZ  TYR A   2     -31.929  20.175   0.107  0.00  0.00    +0.134 C 
BRANCH  16  17
ATOM     17  OH  TYR A   2     -30.713  20.209  -0.504  0.00  0.00    -0.506 OA
ATOM     18  HH  TYR A   2     -30.421  19.474  -1.007  0.00  0.00    +0.292 HD
ENDBRANCH  16  17
ENDBRANCH  10  11
ENDBRANCH   5  10
ENDBRANCH   2   5
BRANCH   3  19
ATOM     19  CA  ASP A   1     -35.995  23.614   5.016  0.00  0.00    +0.024 C 
BRANCH  19  20
ATOM     20  N   ASP A   1     -36.061  22.397   5.826  0.00  0.00    +0.388 N 
ATOM     21  H1  ASP A   1     -35.173  21.898   5.762  0.00  0.00    -0.089 HD
ATOM     22  H2  ASP A   1     -36.813  21.800   5.482  0.00  0.00    -0.089 HD
ATOM     23  H3  ASP A   1     -36.241  22.646   6.799  0.00  0.00    -0.089 HD
ENDBRANCH  19  20
BRANCH  19  24
ATOM     24  CB  ASP A   1     -34.843  24.487   5.517  0.00  0.00    +0.096 C 
BRANCH  24  26
ATOM     25  OD2 ASP A   1     -34.383  26.858   5.430  0.00  0.00    -0.250 OA
ATOM     26  CG  ASP A   1     -35.205  25.950   5.432  0.00  0.00    +0.312 C 
BRANCH  26  27
ATOM     27  OD1 ASP A   1     -36.545  26.158   5.387  0.00  0.00    -0.480 OA
ATOM     28  HD1 ASP A   1     -36.880  27.015   5.210  0.00  0.00    +0.295 HD
ENDBRANCH  26  27
ENDBRANCH  24  26
ENDBRANCH  19  24
ENDBRANCH   3  19
TORSDOF 11
ENDMDL
MODEL 6
REMARK VINA RESULT:      -5.6      3.827      6.388
REMARK  Name = 19365650
REMARK  11 active torsions:
REMARK  status: ('A' for Active; 'I' for Inactive)
REMARK    1  A    between atoms: N_2  and  CA_5
REMARK    2  A    between atoms: C_3  and  CA_19
REMARK    3  A    between atoms: CA_5  and  C_7
REMARK    4  A    between atoms: CA_5  and  CB_10
REMARK    5  A    between atoms: C_7  and  O_8
REMARK    6  A    between atoms: CB_10  and  CG_11
REMARK    7  A    between atoms: CZ_16  and  OH_17
REMARK    8  A    between atoms: CA_19  and  N_20
REMARK    9  A    between atoms: CA_19  and  CB_24
REMARK   10  A    between atoms: CB_24  and  CG_26
REMARK   11  A    between atoms: CG_26  and  OD1_27
REMARK                            x       y       z     vdW  Elec       q    Type
REMARK                         _______ _______ _______ _____ _____    ______ ____
ROOT
ATOM      1  O   ASP A   1     -37.364  24.388   1.745  0.00  0.00    -0.277 OA
ATOM      2  N   TYR A   2     -37.484  22.514   3.106  0.00  0.00    -0.298 N 
ATOM      3  C   ASP A   1     -38.014  23.611   2.443  0.00  0.00    +0.203 C 
ATOM      4  H   TYR A   2     -38.084  21.947   3.643  0.00  0.00    +0.150 HD
ENDROOT
BRANCH   2   5
ATOM      5  CA  TYR A   2     -36.082  22.175   3.037  0.00  0.00    +0.176 C 
BRANCH   5   7
ATOM      6  OXT TYR A   2     -34.800  20.254   2.315  0.00  0.00    -0.248 OA
ATOM      7  C   TYR A   2     -35.888  20.719   2.641  0.00  0.00    +0.332 C 
BRANCH   7   8
ATOM      8  O   TYR A   2     -37.012  19.964   2.683  0.00  0.00    -0.479 OA
ATOM      9  H   TYR A   2     -37.836  20.336   2.436  0.00  0.00    +0.295 HD
ENDBRANCH   7   8
ENDBRANCH   5   7
BRANCH   5  10
ATOM     10  CB  TYR A   2     -35.379  22.454   4.371  0.00  0.00    +0.057 C 
BRANCH  10  11
ATOM     11  CG  TYR A   2     -34.863  23.868   4.481  0.00  0.00    -0.020 C 
ATOM     12  CD1 TYR A   2     -34.987  24.546   5.683  0.00  0.00    -0.001 C 
ATOM     13  CD2 TYR A   2     -34.277  24.465   3.375  0.00  0.00    -0.001 C 
ATOM     14  CE1 TYR A   2     -34.511  25.853   5.784  0.00  0.00    +0.036 C 
ATOM     15  CE2 TYR A   2     -33.801  25.772   3.476  0.00  0.00    +0.036 C 
ATOM     16  CZ  TYR A   2     -33.918  26.466   4.680  0.00  0.00    +0.134 C 
BRANCH  16  17
ATOM     17  OH  TYR A   2     -33.453  27.742   4.779  0.00  0.00    -0.506 OA
ATOM     18  HH  TYR A   2     -32.746  27.939   5.362  0.00  0.00    +0.292 HD
ENDBRANCH  16  17
ENDBRANCH  10  11
ENDBRANCH   5  10
ENDBRANCH   2   5
BRANCH   3  19
ATOM     19  CA  ASP A   1     -39.510  23.777   2.695  0.00  0.00    +0.024 C 
BRANCH  19  20
ATOM     20  N   ASP A   1     -39.632  24.685   3.836  0.00  0.00    +0.388 N 
ATOM     21  H1  ASP A   1     -39.383  24.189   4.693  0.00  0.00    -0.089 HD
ATOM     22  H2  ASP A   1     -40.593  25.020   3.904  0.00  0.00    -0.089 HD
ATOM     23  H3  ASP A   1     -39.003  25.478   3.708  0.00  0.00    -0.089 HD
ENDBRANCH  19  20
BRANCH  19  24
ATOM     24  CB  ASP A   1     -40.236  24.384   1.494  0.00  0.00    +0.096 C 
BRANCH  24  26
ATOM     25  OD2 ASP A   1     -41.719  26.216   2.027  0.00  0.00    -0.250 OA
ATOM     26  CG  ASP A   1     -40.590  25.828   1.756  0.00  0.00    +0.312 C 
BRANCH  26  27
ATOM     27  OD1 ASP A   1     -39.527  26.661   1.633  0.00  0.00    -0.480 OA
ATOM     28  HD1 ASP A   1     -39.243  27.170   2.366  0.00  0.00    +0.295 HD
ENDBRANCH  26  27
ENDBRANCH  24  26
ENDBRANCH  19  24
ENDBRANCH   3  19
TORSDOF 11
ENDMDL
MODEL 7
REMARK VINA RESULT:      -5.5      5.545      7.960
REMARK  Name = 19365650
REMARK  11 active torsions:
REMARK  status: ('A' for Active; 'I' for Inactive)
REMARK    1  A    between atoms: N_2  and  CA_5
REMARK    2  A    between atoms: C_3  and  CA_19
REMARK    3  A    between atoms: CA_5  and  C_7
REMARK    4  A    between atoms: CA_5  and  CB_10
REMARK    5  A    between atoms: C_7  and  O_8
REMARK    6  A    between atoms: CB_10  and  CG_11
REMARK    7  A    between atoms: CZ_16  and  OH_17
REMARK    8  A    between atoms: CA_19  and  N_20
REMARK    9  A    between atoms: CA_19  and  CB_24
REMARK   10  A    between atoms: CB_24  and  CG_26
REMARK   11  A    between atoms: CG_26  and  OD1_27
REMARK                            x       y       z     vdW  Elec       q    Type
REMARK                         _______ _______ _______ _____ _____    ______ ____
ROOT
ATOM      1  O   ASP A   1     -31.438  27.403   3.860  0.00  0.00    -0.277 OA
ATOM      2  N   TYR A   2     -33.479  27.782   4.896  0.00  0.00    -0.298 N 
ATOM      3  C   ASP A   1     -32.115  27.966   4.719  0.00  0.00    +0.203 C 
ATOM      4  H   TYR A   2     -33.937  28.277   5.612  0.00  0.00    +0.150 HD
ENDROOT
BRANCH   2   5
ATOM      5  CA  TYR A   2     -34.249  26.885   4.066  0.00  0.00    +0.176 C 
BRANCH   5   7
ATOM      6  OXT TYR A   2     -34.897  27.135   1.749  0.00  0.00    -0.248 OA
ATOM      7  C   TYR A   2     -34.848  27.618   2.876  0.00  0.00    +0.332 C 
BRANCH   7   8
ATOM      8  O   TYR A   2     -35.335  28.851   3.153  0.00  0.00    -0.479 OA
ATOM      9  H   TYR A   2     -36.205  29.080   2.893  0.00  0.00    +0.295 HD
ENDBRANCH   7   8
ENDBRANCH   5   7
BRANCH   5  10
ATOM     10  CB  TYR A   2     -35.359  26.200   4.874  0.00  0.00    +0.057 C 
BRANCH  10  11
ATOM     11  CG  TYR A   2     -35.388  24.704   4.684  0.00  0.00    -0.020 C 
ATOM     12  CD1 TYR A   2     -35.133  23.876   5.765  0.00  0.00    -0.001 C 
ATOM     13  CD2 TYR A   2     -35.668  24.184   3.429  0.00  0.00    -0.001 C 
ATOM     14  CE1 TYR A   2     -35.159  22.493   5.589  0.00  0.00    +0.036 C 
ATOM     15  CE2 TYR A   2     -35.694  22.801   3.253  0.00  0.00    +0.036 C 
ATOM     16  CZ  TYR A   2     -35.440  21.955   4.333  0.00  0.00    +0.134 C 
BRANCH  16  17
ATOM     17  OH  TYR A   2     -35.466  20.604   4.162  0.00  0.00    -0.506 OA
ATOM     18  HH  TYR A   2     -35.283  20.235   3.320  0.00  0.00    +0.292 HD
ENDBRANCH  16  17
ENDBRANCH  10  11
ENDBRANCH   5  10
ENDBRANCH   2   5
BRANCH   3  19
ATOM     19  CA  ASP A   1     -31.522  28.938   5.737  0.00  0.00    +0.024 C 
BRANCH  19  20
ATOM     20  N   ASP A   1     -31.800  28.365   7.054  0.00  0.00    +0.388 N 
ATOM     21  H1  ASP A   1     -32.346  29.029   7.605  0.00  0.00    -0.089 HD
ATOM     22  H2  ASP A   1     -30.920  28.168   7.532  0.00  0.00    -0.089 HD
ATOM     23  H3  ASP A   1     -32.329  27.500   6.944  0.00  0.00    -0.089 HD
ENDBRANCH  19  20
BRANCH  19  24
ATOM     24  CB  ASP A   1     -30.011  29.099   5.570  0.00  0.00    +0.096 C 
BRANCH  24  26
ATOM     25  OD2 ASP A   1     -28.791  29.379   7.637  0.00  0.00    -0.250 OA
ATOM     26  CG  ASP A   1     -29.283  28.627   6.805  0.00  0.00    +0.312 C 
BRANCH  26  27
ATOM     27  OD1 ASP A   1     -29.205  27.276   6.885  0.00  0.00    -0.480 OA
ATOM     28  HD1 ASP A   1     -29.463  26.747   6.156  0.00  0.00    +0.295 HD
ENDBRANCH  26  27
ENDBRANCH  24  26
ENDBRANCH  19  24
ENDBRANCH   3  19
TORSDOF 11
ENDMDL
MODEL 8
REMARK VINA RESULT:      -5.5      4.876      6.829
REMARK  Name = 19365650
REMARK  11 active torsions:
REMARK  status: ('A' for Active; 'I' for Inactive)
REMARK    1  A    between atoms: N_2  and  CA_5
REMARK    2  A    between atoms: C_3  and  CA_19
REMARK    3  A    between atoms: CA_5  and  C_7
REMARK    4  A    between atoms: CA_5  and  CB_10
REMARK    5  A    between atoms: C_7  and  O_8
REMARK    6  A    between atoms: CB_10  and  CG_11
REMARK    7  A    between atoms: CZ_16  and  OH_17
REMARK    8  A    between atoms: CA_19  and  N_20
REMARK    9  A    between atoms: CA_19  and  CB_24
REMARK   10  A    between atoms: CB_24  and  CG_26
REMARK   11  A    between atoms: CG_26  and  OD1_27
REMARK                            x       y       z     vdW  Elec       q    Type
REMARK                         _______ _______ _______ _____ _____    ______ ____
ROOT
ATOM      1  O   ASP A   1     -36.577  23.141   1.947  0.00  0.00    -0.277 OA
ATOM      2  N   TYR A   2     -36.954  23.674   4.173  0.00  0.00    -0.298 N 
ATOM      3  C   ASP A   1     -37.321  23.539   2.841  0.00  0.00    +0.203 C 
ATOM      4  H   TYR A   2     -37.619  24.002   4.819  0.00  0.00    +0.150 HD
ENDROOT
BRANCH   2   5
ATOM      5  CA  TYR A   2     -35.628  23.348   4.642  0.00  0.00    +0.176 C 
BRANCH   5   7
ATOM      6  OXT TYR A   2     -35.147  20.979   4.563  0.00  0.00    -0.248 OA
ATOM      7  C   TYR A   2     -35.574  21.935   5.202  0.00  0.00    +0.332 C 
BRANCH   7   8
ATOM      8  O   TYR A   2     -36.030  21.809   6.472  0.00  0.00    -0.479 OA
ATOM      9  H   TYR A   2     -35.475  21.449   7.135  0.00  0.00    +0.295 HD
ENDBRANCH   7   8
ENDBRANCH   5   7
BRANCH   5  10
ATOM     10  CB  TYR A   2     -35.155  24.351   5.703  0.00  0.00    +0.057 C 
BRANCH  10  11
ATOM     11  CG  TYR A   2     -34.264  25.430   5.139  0.00  0.00    -0.020 C 
ATOM     12  CD1 TYR A   2     -33.743  26.395   5.986  0.00  0.00    -0.001 C 
ATOM     13  CD2 TYR A   2     -33.982  25.437   3.781  0.00  0.00    -0.001 C 
ATOM     14  CE1 TYR A   2     -32.920  27.392   5.464  0.00  0.00    +0.036 C 
ATOM     15  CE2 TYR A   2     -33.159  26.434   3.259  0.00  0.00    +0.036 C 
ATOM     16  CZ  TYR A   2     -32.628  27.412   4.100  0.00  0.00    +0.134 C 
BRANCH  16  17
ATOM     17  OH  TYR A   2     -31.824  28.385   3.592  0.00  0.00    -0.506 OA
ATOM     18  HH  TYR A   2     -31.267  28.878   4.162  0.00  0.00    +0.292 HD
ENDBRANCH  16  17
ENDBRANCH  10  11
ENDBRANCH   5  10
ENDBRANCH   2   5
BRANCH   3  19
ATOM     19  CA  ASP A   1     -38.763  23.974   2.589  0.00  0.00    +0.024 C 
BRANCH  19  20
ATOM     20  N   ASP A   1     -39.187  24.692   3.791  0.00  0.00    +0.388 N 
ATOM     21  H1  ASP A   1     -39.714  24.062   4.395  0.00  0.00    -0.089 HD
ATOM     22  H2  ASP A   1     -39.777  25.481   3.525  0.00  0.00    -0.089 HD
ATOM     23  H3  ASP A   1     -38.366  25.033   4.290  0.00  0.00    -0.089 HD
ENDBRANCH  19  20
BRANCH  19  24
ATOM     24  CB  ASP A   1     -38.883  24.904   1.381  0.00  0.00    +0.096 C 
BRANCH  24  26
ATOM     25  OD2 ASP A   1     -40.208  26.881   1.800  0.00  0.00    -0.250 OA
ATOM     26  CG  ASP A   1     -39.115  26.328   1.824  0.00  0.00    +0.312 C 
BRANCH  26  27
ATOM     27  OD1 ASP A   1     -37.977  26.945   2.227  0.00  0.00    -0.480 OA
ATOM     28  HD1 ASP A   1     -37.824  27.098   3.139  0.00  0.00    +0.295 HD
ENDBRANCH  26  27
ENDBRANCH  24  26
ENDBRANCH  19  24
ENDBRANCH   3  19
TORSDOF 11
ENDMDL
MODEL 9
REMARK VINA RESULT:      -5.3      4.195      6.438
REMARK  Name = 19365650
REMARK  11 active torsions:
REMARK  status: ('A' for Active; 'I' for Inactive)
REMARK    1  A    between atoms: N_2  and  CA_5
REMARK    2  A    between atoms: C_3  and  CA_19
REMARK    3  A    between atoms: CA_5  and  C_7
REMARK    4  A    between atoms: CA_5  and  CB_10
REMARK    5  A    between atoms: C_7  and  O_8
REMARK    6  A    between atoms: CB_10  and  CG_11
REMARK    7  A    between atoms: CZ_16  and  OH_17
REMARK    8  A    between atoms: CA_19  and  N_20
REMARK    9  A    between atoms: CA_19  and  CB_24
REMARK   10  A    between atoms: CB_24  and  CG_26
REMARK   11  A    between atoms: CG_26  and  OD1_27
REMARK                            x       y       z     vdW  Elec       q    Type
REMARK                         _______ _______ _______ _____ _____    ______ ____
ROOT
ATOM      1  O   ASP A   1     -36.889  23.931   1.717  0.00  0.00    -0.277 OA
ATOM      2  N   TYR A   2     -37.162  22.730   3.683  0.00  0.00    -0.298 N 
ATOM      3  C   ASP A   1     -37.615  23.378   2.542  0.00  0.00    +0.203 C 
ATOM      4  H   TYR A   2     -37.819  22.315   4.288  0.00  0.00    +0.150 HD
ENDROOT
BRANCH   2   5
ATOM      5  CA  TYR A   2     -35.759  22.644   4.015  0.00  0.00    +0.176 C 
BRANCH   5   7
ATOM      6  OXT TYR A   2     -35.139  20.406   3.336  0.00  0.00    -0.248 OA
ATOM      7  C   TYR A   2     -35.338  21.201   4.249  0.00  0.00    +0.332 C 
BRANCH   7   8
ATOM      8  O   TYR A   2     -35.190  20.856   5.551  0.00  0.00    -0.479 OA
ATOM      9  H   TYR A   2     -34.459  21.177   6.040  0.00  0.00    +0.295 HD
ENDBRANCH   7   8
ENDBRANCH   5   7
BRANCH   5  10
ATOM     10  CB  TYR A   2     -35.429  23.494   5.249  0.00  0.00    +0.057 C 
BRANCH  10  11
ATOM     11  CG  TYR A   2     -34.625  24.727   4.917  0.00  0.00    -0.020 C 
ATOM     12  CD1 TYR A   2     -34.178  24.918   3.620  0.00  0.00    -0.001 C 
ATOM     13  CD2 TYR A   2     -34.347  25.645   5.918  0.00  0.00    -0.001 C 
ATOM     14  CE1 TYR A   2     -33.434  26.057   3.314  0.00  0.00    +0.036 C 
ATOM     15  CE2 TYR A   2     -33.603  26.784   5.612  0.00  0.00    +0.036 C 
ATOM     16  CZ  TYR A   2     -33.147  26.991   4.310  0.00  0.00    +0.134 C 
BRANCH  16  17
ATOM     17  OH  TYR A   2     -32.420  28.103   4.010  0.00  0.00    -0.506 OA
ATOM     18  HH  TYR A   2     -31.519  28.022   3.768  0.00  0.00    +0.292 HD
ENDBRANCH  16  17
ENDBRANCH  10  11
ENDBRANCH   5  10
ENDBRANCH   2   5
BRANCH   3  19
ATOM     19  CA  ASP A   1     -39.137  23.361   2.429  0.00  0.00    +0.024 C 
BRANCH  19  20
ATOM     20  N   ASP A   1     -39.571  24.751   2.567  0.00  0.00    +0.388 N 
ATOM     21  H1  ASP A   1     -40.536  24.839   2.249  0.00  0.00    -0.089 HD
ATOM     22  H2  ASP A   1     -38.970  25.353   2.003  0.00  0.00    -0.089 HD
ATOM     23  H3  ASP A   1     -39.510  25.030   3.546  0.00  0.00    -0.089 HD
ENDBRANCH  19  20
BRANCH  19  24
ATOM     24  CB  ASP A   1     -39.609  22.820   1.079  0.00  0.00    +0.096 C 
BRANCH  24  26
ATOM     25  OD2 ASP A   1     -40.043  20.609   0.206  0.00  0.00    -0.250 OA
ATOM     26  CG  ASP A   1     -39.935  21.349   1.175  0.00  0.00    +0.312 C 
BRANCH  26  27
ATOM     27  OD1 ASP A   1     -40.124  20.936   2.453  0.00  0.00    -0.480 OA
ATOM     28  HD1 ASP A   1     -40.497  21.519   3.084  0.00  0.00    +0.295 HD
ENDBRANCH  26  27
ENDBRANCH  24  26
ENDBRANCH  19  24
ENDBRANCH   3  19
TORSDOF 11
ENDMDL
