MODEL 1
REMARK VINA RESULT:      -5.9      0.000      0.000
REMARK  Name = 53931759
REMARK  11 active torsions:
REMARK  status: ('A' for Active; 'I' for Inactive)
REMARK    1  A    between atoms: O_1  and  C_5
REMARK    2  A    between atoms: O_1  and  C_20
REMARK    3  A    between atoms: C_2  and  C_15
REMARK    4  A    between atoms: C_20  and  C_21
REMARK    5  A    between atoms: C_21  and  O_22
REMARK    6  A    between atoms: C_21  and  C_24
REMARK    7  A    between atoms: C_24  and  N_25
REMARK    8  A    between atoms: N_25  and  C_28
REMARK    9  A    between atoms: C_28  and  C_29
REMARK   10  A    between atoms: C_32  and  O_35
REMARK   11  A    between atoms: C_34  and  O_37
REMARK                            x       y       z     vdW  Elec       q    Type
REMARK                         _______ _______ _______ _____ _____    ______ ____
ROOT
ATOM      1  O   UNL     1     -35.428  20.402   1.976  0.00  0.00    -0.473 OA
ENDROOT
BRANCH   1   5
ATOM      2  C   UNL     1     -34.812  24.415   2.858  0.00  0.00    +0.015 C 
ATOM      3  C   UNL     1     -35.017  23.517   3.919  0.00  0.00    +0.004 C 
ATOM      4  C   UNL     1     -35.228  22.147   3.635  0.00  0.00    +0.034 C 
ATOM      5  C   UNL     1     -35.228  21.714   2.298  0.00  0.00    +0.139 C 
ATOM      6  C   UNL     1     -34.816  23.968   1.537  0.00  0.00    +0.004 C 
ATOM      7  C   UNL     1     -35.024  22.620   1.258  0.00  0.00    +0.037 C 
ATOM      8  C   UNL     1     -35.017  23.950   5.255  0.00  0.00    +0.000 C 
ATOM      9  C   UNL     1     -35.432  21.249   4.696  0.00  0.00    +0.003 C 
ATOM     10  C   UNL     1     -35.221  23.044   6.297  0.00  0.00    +0.000 C 
ATOM     11  C   UNL     1     -35.428  21.697   6.017  0.00  0.00    +0.000 C 
BRANCH   2  15
ATOM     12  O   UNL     1     -34.015  29.830   3.378  0.00  0.00    -0.273 OA
ATOM     13  N   UNL     1     -35.601  26.661   3.207  0.00  0.00    -0.184 NA
ATOM     14  N   UNL     1     -35.372  27.981   3.400  0.00  0.00    -0.206 N 
ATOM     15  C   UNL     1     -34.580  25.870   3.076  0.00  0.00    +0.077 C 
ATOM     16  C   UNL     1     -33.157  26.368   3.193  0.00  0.00    +0.057 C 
ATOM     17  C   UNL     1     -33.074  27.766   2.628  0.00  0.00    +0.093 C 
ATOM     18  C   UNL     1     -34.173  28.623   3.192  0.00  0.00    +0.241 C 
ATOM     19  H   UNL     1     -36.127  28.527   3.718  0.00  0.00    +0.177 HD
ENDBRANCH   2  15
ENDBRANCH   1   5
BRANCH   1  20
ATOM     20  C   UNL     1     -34.468  19.799   1.114  0.00  0.00    +0.232 C 
BRANCH  20  21
ATOM     21  C   UNL     1     -35.186  18.823   0.183  0.00  0.00    +0.133 C 
BRANCH  21  22
ATOM     22  O   UNL     1     -34.277  18.423  -0.846  0.00  0.00    -0.383 OA
ATOM     23  H   UNL     1     -34.247  17.454  -0.892  0.00  0.00    +0.210 HD
ENDBRANCH  21  22
BRANCH  21  24
ATOM     24  C   UNL     1     -36.427  19.424  -0.482  0.00  0.00    -0.048 C 
BRANCH  24  25
ATOM     25  N   UNL     1     -37.610  19.311   0.361  0.00  0.00    +0.388 N 
ATOM     26  H   UNL     1     -37.364  19.571   1.317  0.00  0.00    -0.084 HD
ATOM     27  H   UNL     1     -37.942  18.347   0.327  0.00  0.00    -0.084 HD
BRANCH  25  28
ATOM     28  C   UNL     1     -38.673  20.187  -0.113  0.00  0.00    -0.054 C 
BRANCH  28  29
ATOM     29  C   UNL     1     -38.618  21.540   0.545  0.00  0.00    -0.041 C 
ATOM     30  C   UNL     1     -38.377  22.680  -0.224  0.00  0.00    +0.034 C 
ATOM     31  C   UNL     1     -38.810  21.656   1.921  0.00  0.00    -0.003 C 
ATOM     32  C   UNL     1     -38.328  23.934   0.384  0.00  0.00    +0.172 C 
ATOM     33  C   UNL     1     -38.760  22.910   2.530  0.00  0.00    +0.040 C 
ATOM     34  C   UNL     1     -38.519  24.048   1.761  0.00  0.00    +0.172 C 
BRANCH  32  35
ATOM     35  O   UNL     1     -38.093  25.039  -0.377  0.00  0.00    -0.468 OA
ATOM     36  C   UNL     1     -37.363  24.848  -1.587  0.00  0.00    +0.253 C 
ENDBRANCH  32  35
BRANCH  34  37
ATOM     37  O   UNL     1     -38.473  25.268   2.367  0.00  0.00    -0.468 OA
ATOM     38  C   UNL     1     -39.719  25.854   2.740  0.00  0.00    +0.253 C 
ENDBRANCH  34  37
ENDBRANCH  28  29
ENDBRANCH  25  28
ENDBRANCH  24  25
ENDBRANCH  21  24
ENDBRANCH  20  21
ENDBRANCH   1  20
TORSDOF 11
ENDMDL
MODEL 2
REMARK VINA RESULT:      -5.9      1.347      1.732
REMARK  Name = 53931759
REMARK  11 active torsions:
REMARK  status: ('A' for Active; 'I' for Inactive)
REMARK    1  A    between atoms: O_1  and  C_5
REMARK    2  A    between atoms: O_1  and  C_20
REMARK    3  A    between atoms: C_2  and  C_15
REMARK    4  A    between atoms: C_20  and  C_21
REMARK    5  A    between atoms: C_21  and  O_22
REMARK    6  A    between atoms: C_21  and  C_24
REMARK    7  A    between atoms: C_24  and  N_25
REMARK    8  A    between atoms: N_25  and  C_28
REMARK    9  A    between atoms: C_28  and  C_29
REMARK   10  A    between atoms: C_32  and  O_35
REMARK   11  A    between atoms: C_34  and  O_37
REMARK                            x       y       z     vdW  Elec       q    Type
REMARK                         _______ _______ _______ _____ _____    ______ ____
ROOT
ATOM      1  O   UNL     1     -35.561  20.602   1.972  0.00  0.00    -0.473 OA
ENDROOT
BRANCH   1   5
ATOM      2  C   UNL     1     -34.738  24.566   2.904  0.00  0.00    +0.015 C 
ATOM      3  C   UNL     1     -34.960  23.661   3.955  0.00  0.00    +0.004 C 
ATOM      4  C   UNL     1     -35.241  22.307   3.653  0.00  0.00    +0.034 C 
ATOM      5  C   UNL     1     -35.293  21.898   2.311  0.00  0.00    +0.139 C 
ATOM      6  C   UNL     1     -34.794  24.143   1.576  0.00  0.00    +0.004 C 
ATOM      7  C   UNL     1     -35.070  22.811   1.280  0.00  0.00    +0.037 C 
ATOM      8  C   UNL     1     -34.908  24.070   5.297  0.00  0.00    +0.000 C 
ATOM      9  C   UNL     1     -35.462  21.402   4.704  0.00  0.00    +0.003 C 
ATOM     10  C   UNL     1     -35.131  23.156   6.329  0.00  0.00    +0.000 C 
ATOM     11  C   UNL     1     -35.407  21.825   6.032  0.00  0.00    +0.000 C 
BRANCH   2  15
ATOM     12  O   UNL     1     -33.689  29.930   3.496  0.00  0.00    -0.273 OA
ATOM     13  N   UNL     1     -35.409  26.831   3.360  0.00  0.00    -0.184 NA
ATOM     14  N   UNL     1     -35.115  28.135   3.568  0.00  0.00    -0.206 N 
ATOM     15  C   UNL     1     -34.433  26.004   3.140  0.00  0.00    +0.077 C 
ATOM     16  C   UNL     1     -32.986  26.445   3.169  0.00  0.00    +0.057 C 
ATOM     17  C   UNL     1     -32.886  27.852   2.633  0.00  0.00    +0.093 C 
ATOM     18  C   UNL     1     -33.908  28.736   3.292  0.00  0.00    +0.241 C 
ATOM     19  H   UNL     1     -35.824  28.701   3.951  0.00  0.00    +0.177 HD
ENDBRANCH   2  15
ENDBRANCH   1   5
BRANCH   1  20
ATOM     20  C   UNL     1     -35.579  20.291   0.582  0.00  0.00    +0.232 C 
BRANCH  20  21
ATOM     21  C   UNL     1     -36.879  19.557   0.258  0.00  0.00    +0.133 C 
BRANCH  21  22
ATOM     22  O   UNL     1     -36.814  19.091  -1.092  0.00  0.00    -0.383 OA
ATOM     23  H   UNL     1     -37.394  18.319  -1.195  0.00  0.00    +0.210 HD
ENDBRANCH  21  22
BRANCH  21  24
ATOM     24  C   UNL     1     -38.123  20.437   0.402  0.00  0.00    -0.048 C 
BRANCH  24  25
ATOM     25  N   UNL     1     -38.430  20.728   1.796  0.00  0.00    +0.388 N 
ATOM     26  H   UNL     1     -37.670  21.277   2.197  0.00  0.00    -0.084 HD
ATOM     27  H   UNL     1     -38.537  19.846   2.296  0.00  0.00    -0.084 HD
BRANCH  25  28
ATOM     28  C   UNL     1     -39.673  21.481   1.909  0.00  0.00    -0.054 C 
BRANCH  28  29
ATOM     29  C   UNL     1     -39.439  22.965   1.805  0.00  0.00    -0.041 C 
ATOM     30  C   UNL     1     -40.127  23.714   0.851  0.00  0.00    +0.034 C 
ATOM     31  C   UNL     1     -38.537  23.591   2.665  0.00  0.00    -0.003 C 
ATOM     32  C   UNL     1     -39.913  25.089   0.755  0.00  0.00    +0.172 C 
ATOM     33  C   UNL     1     -38.322  24.966   2.569  0.00  0.00    +0.040 C 
ATOM     34  C   UNL     1     -39.011  25.715   1.615  0.00  0.00    +0.172 C 
BRANCH  32  35
ATOM     35  O   UNL     1     -40.592  25.810  -0.180  0.00  0.00    -0.468 OA
ATOM     36  C   UNL     1     -41.848  26.360   0.213  0.00  0.00    +0.253 C 
ENDBRANCH  32  35
BRANCH  34  37
ATOM     37  O   UNL     1     -38.792  27.057   1.532  0.00  0.00    -0.468 OA
ATOM     38  C   UNL     1     -37.698  27.487   0.724  0.00  0.00    +0.253 C 
ENDBRANCH  34  37
ENDBRANCH  28  29
ENDBRANCH  25  28
ENDBRANCH  24  25
ENDBRANCH  21  24
ENDBRANCH  20  21
ENDBRANCH   1  20
TORSDOF 11
ENDMDL
MODEL 3
REMARK VINA RESULT:      -5.9      3.428      7.842
REMARK  Name = 53931759
REMARK  11 active torsions:
REMARK  status: ('A' for Active; 'I' for Inactive)
REMARK    1  A    between atoms: O_1  and  C_5
REMARK    2  A    between atoms: O_1  and  C_20
REMARK    3  A    between atoms: C_2  and  C_15
REMARK    4  A    between atoms: C_20  and  C_21
REMARK    5  A    between atoms: C_21  and  O_22
REMARK    6  A    between atoms: C_21  and  C_24
REMARK    7  A    between atoms: C_24  and  N_25
REMARK    8  A    between atoms: N_25  and  C_28
REMARK    9  A    between atoms: C_28  and  C_29
REMARK   10  A    between atoms: C_32  and  O_35
REMARK   11  A    between atoms: C_34  and  O_37
REMARK                            x       y       z     vdW  Elec       q    Type
REMARK                         _______ _______ _______ _____ _____    ______ ____
ROOT
ATOM      1  O   UNL     1     -32.339  26.976   5.352  0.00  0.00    -0.473 OA
ENDROOT
BRANCH   1   5
ATOM      2  C   UNL     1     -35.745  25.116   3.872  0.00  0.00    +0.015 C 
ATOM      3  C   UNL     1     -34.662  25.324   3.003  0.00  0.00    +0.004 C 
ATOM      4  C   UNL     1     -33.495  25.957   3.492  0.00  0.00    +0.034 C 
ATOM      5  C   UNL     1     -33.444  26.362   4.836  0.00  0.00    +0.139 C 
ATOM      6  C   UNL     1     -35.679  25.525   5.204  0.00  0.00    +0.004 C 
ATOM      7  C   UNL     1     -34.530  26.147   5.685  0.00  0.00    +0.037 C 
ATOM      8  C   UNL     1     -34.713  24.919   1.659  0.00  0.00    +0.000 C 
ATOM      9  C   UNL     1     -32.411  26.164   2.623  0.00  0.00    +0.003 C 
ATOM     10  C   UNL     1     -33.626  25.134   0.810  0.00  0.00    +0.000 C 
ATOM     11  C   UNL     1     -32.478  25.755   1.291  0.00  0.00    +0.000 C 
BRANCH   2  15
ATOM     12  O   UNL     1     -40.266  22.611   1.996  0.00  0.00    -0.273 OA
ATOM     13  N   UNL     1     -37.090  23.160   3.478  0.00  0.00    -0.184 NA
ATOM     14  N   UNL     1     -38.241  22.575   3.071  0.00  0.00    -0.206 N 
ATOM     15  C   UNL     1     -37.006  24.454   3.433  0.00  0.00    +0.077 C 
ATOM     16  C   UNL     1     -38.168  25.320   3.001  0.00  0.00    +0.057 C 
ATOM     17  C   UNL     1     -38.947  24.602   1.926  0.00  0.00    +0.093 C 
ATOM     18  C   UNL     1     -39.237  23.188   2.347  0.00  0.00    +0.241 C 
ATOM     19  H   UNL     1     -38.376  21.631   3.316  0.00  0.00    +0.177 HD
ENDBRANCH   2  15
ENDBRANCH   1   5
BRANCH   1  20
ATOM     20  C   UNL     1     -32.539  27.817   6.485  0.00  0.00    +0.232 C 
BRANCH  20  21
ATOM     21  C   UNL     1     -31.516  28.950   6.445  0.00  0.00    +0.133 C 
BRANCH  21  22
ATOM     22  O   UNL     1     -31.327  29.440   7.775  0.00  0.00    -0.383 OA
ATOM     23  H   UNL     1     -31.657  28.784   8.410  0.00  0.00    +0.210 HD
ENDBRANCH  21  22
BRANCH  21  24
ATOM     24  C   UNL     1     -31.945  30.122   5.559  0.00  0.00    -0.048 C 
BRANCH  24  25
ATOM     25  N   UNL     1     -32.831  29.701   4.483  0.00  0.00    +0.388 N 
ATOM     26  H   UNL     1     -33.580  29.128   4.872  0.00  0.00    -0.084 HD
ATOM     27  H   UNL     1     -32.287  29.166   3.806  0.00  0.00    -0.084 HD
BRANCH  25  28
ATOM     28  C   UNL     1     -33.413  30.852   3.806  0.00  0.00    -0.054 C 
BRANCH  28  29
ATOM     29  C   UNL     1     -34.539  30.453   2.890  0.00  0.00    -0.041 C 
ATOM     30  C   UNL     1     -35.332  31.432   2.291  0.00  0.00    +0.034 C 
ATOM     31  C   UNL     1     -34.789  29.104   2.639  0.00  0.00    -0.003 C 
ATOM     32  C   UNL     1     -36.375  31.063   1.441  0.00  0.00    +0.172 C 
ATOM     33  C   UNL     1     -35.832  28.734   1.790  0.00  0.00    +0.040 C 
ATOM     34  C   UNL     1     -36.624  29.713   1.191  0.00  0.00    +0.172 C 
BRANCH  32  35
ATOM     35  O   UNL     1     -37.140  32.028   0.861  0.00  0.00    -0.468 OA
ATOM     36  C   UNL     1     -38.129  32.649   1.680  0.00  0.00    +0.253 C 
ENDBRANCH  32  35
BRANCH  34  37
ATOM     37  O   UNL     1     -37.639  29.340   0.363  0.00  0.00    -0.468 OA
ATOM     38  C   UNL     1     -37.280  28.885  -0.941  0.00  0.00    +0.253 C 
ENDBRANCH  34  37
ENDBRANCH  28  29
ENDBRANCH  25  28
ENDBRANCH  24  25
ENDBRANCH  21  24
ENDBRANCH  20  21
ENDBRANCH   1  20
TORSDOF 11
ENDMDL
MODEL 4
REMARK VINA RESULT:      -5.9      2.892      6.343
REMARK  Name = 53931759
REMARK  11 active torsions:
REMARK  status: ('A' for Active; 'I' for Inactive)
REMARK    1  A    between atoms: O_1  and  C_5
REMARK    2  A    between atoms: O_1  and  C_20
REMARK    3  A    between atoms: C_2  and  C_15
REMARK    4  A    between atoms: C_20  and  C_21
REMARK    5  A    between atoms: C_21  and  O_22
REMARK    6  A    between atoms: C_21  and  C_24
REMARK    7  A    between atoms: C_24  and  N_25
REMARK    8  A    between atoms: N_25  and  C_28
REMARK    9  A    between atoms: C_28  and  C_29
REMARK   10  A    between atoms: C_32  and  O_35
REMARK   11  A    between atoms: C_34  and  O_37
REMARK                            x       y       z     vdW  Elec       q    Type
REMARK                         _______ _______ _______ _____ _____    ______ ____
ROOT
ATOM      1  O   UNL     1     -36.916  22.961   1.461  0.00  0.00    -0.473 OA
ENDROOT
BRANCH   1   5
ATOM      2  C   UNL     1     -40.104  25.501   2.262  0.00  0.00    +0.015 C 
ATOM      3  C   UNL     1     -39.107  25.934   1.373  0.00  0.00    +0.004 C 
ATOM      4  C   UNL     1     -38.014  25.080   1.090  0.00  0.00    +0.034 C 
ATOM      5  C   UNL     1     -37.951  23.819   1.704  0.00  0.00    +0.139 C 
ATOM      6  C   UNL     1     -40.025  24.245   2.864  0.00  0.00    +0.004 C 
ATOM      7  C   UNL     1     -38.950  23.406   2.585  0.00  0.00    +0.037 C 
ATOM      8  C   UNL     1     -39.170  27.196   0.758  0.00  0.00    +0.000 C 
ATOM      9  C   UNL     1     -37.018  25.513   0.200  0.00  0.00    +0.003 C 
ATOM     10  C   UNL     1     -38.170  27.609  -0.123  0.00  0.00    +0.000 C 
ATOM     11  C   UNL     1     -37.097  26.769  -0.402  0.00  0.00    +0.000 C 
BRANCH   2  15
ATOM     12  O   UNL     1     -44.533  28.402   3.745  0.00  0.00    -0.273 OA
ATOM     13  N   UNL     1     -41.225  27.124   3.639  0.00  0.00    -0.184 NA
ATOM     14  N   UNL     1     -42.309  27.876   3.942  0.00  0.00    -0.206 N 
ATOM     15  C   UNL     1     -41.286  26.340   2.607  0.00  0.00    +0.077 C 
ATOM     16  C   UNL     1     -42.500  26.290   1.706  0.00  0.00    +0.057 C 
ATOM     17  C   UNL     1     -43.742  26.498   2.539  0.00  0.00    +0.093 C 
ATOM     18  C   UNL     1     -43.576  27.692   3.436  0.00  0.00    +0.241 C 
ATOM     19  H   UNL     1     -42.180  28.618   4.575  0.00  0.00    +0.177 HD
ENDBRANCH   2  15
ENDBRANCH   1   5
BRANCH   1  20
ATOM     20  C   UNL     1     -37.244  21.583   1.313  0.00  0.00    +0.232 C 
BRANCH  20  21
ATOM     21  C   UNL     1     -36.184  20.745   2.025  0.00  0.00    +0.133 C 
BRANCH  21  22
ATOM     22  O   UNL     1     -36.830  19.638   2.660  0.00  0.00    -0.383 OA
ATOM     23  H   UNL     1     -37.737  19.888   2.900  0.00  0.00    +0.210 HD
ENDBRANCH  21  22
BRANCH  21  24
ATOM     24  C   UNL     1     -35.411  21.524   3.092  0.00  0.00    -0.048 C 
BRANCH  24  25
ATOM     25  N   UNL     1     -36.255  21.893   4.220  0.00  0.00    +0.388 N 
ATOM     26  H   UNL     1     -36.623  21.046   4.652  0.00  0.00    -0.084 HD
ATOM     27  H   UNL     1     -37.016  22.480   3.879  0.00  0.00    -0.084 HD
BRANCH  25  28
ATOM     28  C   UNL     1     -35.498  22.644   5.213  0.00  0.00    -0.054 C 
BRANCH  28  29
ATOM     29  C   UNL     1     -35.318  24.083   4.809  0.00  0.00    -0.041 C 
ATOM     30  C   UNL     1     -34.049  24.562   4.481  0.00  0.00    +0.034 C 
ATOM     31  C   UNL     1     -36.419  24.937   4.759  0.00  0.00    -0.003 C 
ATOM     32  C   UNL     1     -33.882  25.895   4.104  0.00  0.00    +0.172 C 
ATOM     33  C   UNL     1     -36.253  26.270   4.383  0.00  0.00    +0.040 C 
ATOM     34  C   UNL     1     -34.984  26.748   4.055  0.00  0.00    +0.172 C 
BRANCH  32  35
ATOM     35  O   UNL     1     -32.639  26.350   3.785  0.00  0.00    -0.468 OA
ATOM     36  C   UNL     1     -32.192  26.129   2.448  0.00  0.00    +0.253 C 
ENDBRANCH  32  35
BRANCH  34  37
ATOM     37  O   UNL     1     -34.834  28.052   3.689  0.00  0.00    -0.468 OA
ATOM     38  C   UNL     1     -35.249  28.407   2.371  0.00  0.00    +0.253 C 
ENDBRANCH  34  37
ENDBRANCH  28  29
ENDBRANCH  25  28
ENDBRANCH  24  25
ENDBRANCH  21  24
ENDBRANCH  20  21
ENDBRANCH   1  20
TORSDOF 11
ENDMDL
MODEL 5
REMARK VINA RESULT:      -5.8      4.106      8.084
REMARK  Name = 53931759
REMARK  11 active torsions:
REMARK  status: ('A' for Active; 'I' for Inactive)
REMARK    1  A    between atoms: O_1  and  C_5
REMARK    2  A    between atoms: O_1  and  C_20
REMARK    3  A    between atoms: C_2  and  C_15
REMARK    4  A    between atoms: C_20  and  C_21
REMARK    5  A    between atoms: C_21  and  O_22
REMARK    6  A    between atoms: C_21  and  C_24
REMARK    7  A    between atoms: C_24  and  N_25
REMARK    8  A    between atoms: N_25  and  C_28
REMARK    9  A    between atoms: C_28  and  C_29
REMARK   10  A    between atoms: C_32  and  O_35
REMARK   11  A    between atoms: C_34  and  O_37
REMARK                            x       y       z     vdW  Elec       q    Type
REMARK                         _______ _______ _______ _____ _____    ______ ____
ROOT
ATOM      1  O   UNL     1     -34.784  20.984   1.138  0.00  0.00    -0.473 OA
ENDROOT
BRANCH   1   5
ATOM      2  C   UNL     1     -31.464  18.540   0.628  0.00  0.00    +0.015 C 
ATOM      3  C   UNL     1     -31.447  19.823   0.058  0.00  0.00    +0.004 C 
ATOM      4  C   UNL     1     -32.571  20.668   0.223  0.00  0.00    +0.034 C 
ATOM      5  C   UNL     1     -33.678  20.204   0.953  0.00  0.00    +0.139 C 
ATOM      6  C   UNL     1     -32.572  18.095   1.350  0.00  0.00    +0.004 C 
ATOM      7  C   UNL     1     -33.677  18.927   1.512  0.00  0.00    +0.037 C 
ATOM      8  C   UNL     1     -30.340  20.286  -0.672  0.00  0.00    +0.000 C 
ATOM      9  C   UNL     1     -32.554  21.952  -0.347  0.00  0.00    +0.003 C 
ATOM     10  C   UNL     1     -30.341  21.565  -1.231  0.00  0.00    +0.000 C 
ATOM     11  C   UNL     1     -31.445  22.395  -1.069  0.00  0.00    +0.000 C 
BRANCH   2  15
ATOM     12  O   UNL     1     -27.074  15.277   0.071  0.00  0.00    -0.273 OA
ATOM     13  N   UNL     1     -29.417  17.566   1.434  0.00  0.00    -0.184 NA
ATOM     14  N   UNL     1     -28.381  16.705   1.301  0.00  0.00    -0.206 N 
ATOM     15  C   UNL     1     -30.320  17.595   0.502  0.00  0.00    +0.077 C 
ATOM     16  C   UNL     1     -30.278  16.659  -0.685  0.00  0.00    +0.057 C 
ATOM     17  C   UNL     1     -28.840  16.411  -1.070  0.00  0.00    +0.093 C 
ATOM     18  C   UNL     1     -28.029  16.050   0.143  0.00  0.00    +0.241 C 
ATOM     19  H   UNL     1     -27.835  16.531   2.102  0.00  0.00    +0.177 HD
ENDBRANCH   2  15
ENDBRANCH   1   5
BRANCH   1  20
ATOM     20  C   UNL     1     -35.664  20.612   2.194  0.00  0.00    +0.232 C 
BRANCH  20  21
ATOM     21  C   UNL     1     -35.578  21.661   3.301  0.00  0.00    +0.133 C 
BRANCH  21  22
ATOM     22  O   UNL     1     -35.622  20.994   4.565  0.00  0.00    -0.383 OA
ATOM     23  H   UNL     1     -36.478  20.546   4.664  0.00  0.00    +0.210 HD
ENDBRANCH  21  22
BRANCH  21  24
ATOM     24  C   UNL     1     -36.718  22.682   3.258  0.00  0.00    -0.048 C 
BRANCH  24  25
ATOM     25  N   UNL     1     -36.794  23.471   4.480  0.00  0.00    +0.388 N 
ATOM     26  H   UNL     1     -35.942  23.328   5.022  0.00  0.00    -0.084 HD
ATOM     27  H   UNL     1     -37.611  23.170   5.010  0.00  0.00    -0.084 HD
BRANCH  25  28
ATOM     28  C   UNL     1     -36.933  24.889   4.176  0.00  0.00    -0.054 C 
BRANCH  28  29
ATOM     29  C   UNL     1     -35.657  25.645   4.433  0.00  0.00    -0.041 C 
ATOM     30  C   UNL     1     -35.143  26.500   3.458  0.00  0.00    +0.034 C 
ATOM     31  C   UNL     1     -34.989  25.493   5.648  0.00  0.00    -0.003 C 
ATOM     32  C   UNL     1     -33.961  27.201   3.696  0.00  0.00    +0.172 C 
ATOM     33  C   UNL     1     -33.807  26.194   5.887  0.00  0.00    +0.040 C 
ATOM     34  C   UNL     1     -33.294  27.048   4.911  0.00  0.00    +0.172 C 
BRANCH  32  35
ATOM     35  O   UNL     1     -33.471  28.034   2.736  0.00  0.00    -0.468 OA
ATOM     36  C   UNL     1     -34.065  29.327   2.636  0.00  0.00    +0.253 C 
ENDBRANCH  32  35
BRANCH  34  37
ATOM     37  O   UNL     1     -32.139  27.728   5.157  0.00  0.00    -0.468 OA
ATOM     38  C   UNL     1     -31.992  28.311   6.450  0.00  0.00    +0.253 C 
ENDBRANCH  34  37
ENDBRANCH  28  29
ENDBRANCH  25  28
ENDBRANCH  24  25
ENDBRANCH  21  24
ENDBRANCH  20  21
ENDBRANCH   1  20
TORSDOF 11
ENDMDL
MODEL 6
REMARK VINA RESULT:      -5.8      3.353      7.669
REMARK  Name = 53931759
REMARK  11 active torsions:
REMARK  status: ('A' for Active; 'I' for Inactive)
REMARK    1  A    between atoms: O_1  and  C_5
REMARK    2  A    between atoms: O_1  and  C_20
REMARK    3  A    between atoms: C_2  and  C_15
REMARK    4  A    between atoms: C_20  and  C_21
REMARK    5  A    between atoms: C_21  and  O_22
REMARK    6  A    between atoms: C_21  and  C_24
REMARK    7  A    between atoms: C_24  and  N_25
REMARK    8  A    between atoms: N_25  and  C_28
REMARK    9  A    between atoms: C_28  and  C_29
REMARK   10  A    between atoms: C_32  and  O_35
REMARK   11  A    between atoms: C_34  and  O_37
REMARK                            x       y       z     vdW  Elec       q    Type
REMARK                         _______ _______ _______ _____ _____    ______ ____
ROOT
ATOM      1  O   UNL     1     -32.402  26.974   5.236  0.00  0.00    -0.473 OA
ENDROOT
BRANCH   1   5
ATOM      2  C   UNL     1     -35.789  25.025   3.828  0.00  0.00    +0.015 C 
ATOM      3  C   UNL     1     -34.713  25.223   2.948  0.00  0.00    +0.004 C 
ATOM      4  C   UNL     1     -33.552  25.885   3.413  0.00  0.00    +0.034 C 
ATOM      5  C   UNL     1     -33.501  26.331   4.744  0.00  0.00    +0.139 C 
ATOM      6  C   UNL     1     -35.723  25.475   5.146  0.00  0.00    +0.004 C 
ATOM      7  C   UNL     1     -34.580  26.126   5.603  0.00  0.00    +0.037 C 
ATOM      8  C   UNL     1     -34.763  24.777   1.616  0.00  0.00    +0.000 C 
ATOM      9  C   UNL     1     -32.475  26.081   2.532  0.00  0.00    +0.003 C 
ATOM     10  C   UNL     1     -33.684  24.981   0.756  0.00  0.00    +0.000 C 
ATOM     11  C   UNL     1     -32.542  25.632   1.213  0.00  0.00    +0.000 C 
BRANCH   2  15
ATOM     12  O   UNL     1     -40.293  22.429   2.038  0.00  0.00    -0.273 OA
ATOM     13  N   UNL     1     -37.075  23.037   3.401  0.00  0.00    -0.184 NA
ATOM     14  N   UNL     1     -38.220  22.425   3.019  0.00  0.00    -0.206 N 
ATOM     15  C   UNL     1     -37.042  24.334   3.414  0.00  0.00    +0.077 C 
ATOM     16  C   UNL     1     -38.256  25.171   3.077  0.00  0.00    +0.057 C 
ATOM     17  C   UNL     1     -39.056  24.472   2.004  0.00  0.00    +0.093 C 
ATOM     18  C   UNL     1     -39.271  23.030   2.369  0.00  0.00    +0.241 C 
ATOM     19  H   UNL     1     -38.308  21.466   3.224  0.00  0.00    +0.177 HD
ENDBRANCH   2  15
ENDBRANCH   1   5
BRANCH   1  20
ATOM     20  C   UNL     1     -32.528  27.569   6.524  0.00  0.00    +0.232 C 
BRANCH  20  21
ATOM     21  C   UNL     1     -31.476  28.668   6.665  0.00  0.00    +0.133 C 
BRANCH  21  22
ATOM     22  O   UNL     1     -31.787  29.450   7.821  0.00  0.00    -0.383 OA
ATOM     23  H   UNL     1     -30.965  29.689   8.280  0.00  0.00    +0.210 HD
ENDBRANCH  21  22
BRANCH  21  24
ATOM     24  C   UNL     1     -31.413  29.604   5.456  0.00  0.00    -0.048 C 
BRANCH  24  25
ATOM     25  N   UNL     1     -32.731  29.863   4.894  0.00  0.00    +0.388 N 
ATOM     26  H   UNL     1     -33.235  30.504   5.507  0.00  0.00    -0.084 HD
ATOM     27  H   UNL     1     -33.230  28.978   4.814  0.00  0.00    -0.084 HD
BRANCH  25  28
ATOM     28  C   UNL     1     -32.624  30.458   3.568  0.00  0.00    -0.054 C 
BRANCH  28  29
ATOM     29  C   UNL     1     -33.494  29.750   2.565  0.00  0.00    -0.041 C 
ATOM     30  C   UNL     1     -33.022  29.518   1.272  0.00  0.00    +0.034 C 
ATOM     31  C   UNL     1     -34.771  29.322   2.927  0.00  0.00    -0.003 C 
ATOM     32  C   UNL     1     -33.827  28.860   0.342  0.00  0.00    +0.172 C 
ATOM     33  C   UNL     1     -35.577  28.664   1.998  0.00  0.00    +0.040 C 
ATOM     34  C   UNL     1     -35.104  28.433   0.706  0.00  0.00    +0.172 C 
BRANCH  32  35
ATOM     35  O   UNL     1     -33.355  28.638  -0.916  0.00  0.00    -0.468 OA
ATOM     36  C   UNL     1     -31.938  28.641  -1.085  0.00  0.00    +0.253 C 
ENDBRANCH  32  35
BRANCH  34  37
ATOM     37  O   UNL     1     -35.900  27.789  -0.192  0.00  0.00    -0.468 OA
ATOM     38  C   UNL     1     -37.157  27.309   0.281  0.00  0.00    +0.253 C 
ENDBRANCH  34  37
ENDBRANCH  28  29
ENDBRANCH  25  28
ENDBRANCH  24  25
ENDBRANCH  21  24
ENDBRANCH  20  21
ENDBRANCH   1  20
TORSDOF 11
ENDMDL
MODEL 7
REMARK VINA RESULT:      -5.8      2.579      4.206
REMARK  Name = 53931759
REMARK  11 active torsions:
REMARK  status: ('A' for Active; 'I' for Inactive)
REMARK    1  A    between atoms: O_1  and  C_5
REMARK    2  A    between atoms: O_1  and  C_20
REMARK    3  A    between atoms: C_2  and  C_15
REMARK    4  A    between atoms: C_20  and  C_21
REMARK    5  A    between atoms: C_21  and  O_22
REMARK    6  A    between atoms: C_21  and  C_24
REMARK    7  A    between atoms: C_24  and  N_25
REMARK    8  A    between atoms: N_25  and  C_28
REMARK    9  A    between atoms: C_28  and  C_29
REMARK   10  A    between atoms: C_32  and  O_35
REMARK   11  A    between atoms: C_34  and  O_37
REMARK                            x       y       z     vdW  Elec       q    Type
REMARK                         _______ _______ _______ _____ _____    ______ ____
ROOT
ATOM      1  O   UNL     1     -40.445  22.474   1.570  0.00  0.00    -0.473 OA
ENDROOT
BRANCH   1   5
ATOM      2  C   UNL     1     -37.335  24.423   3.515  0.00  0.00    +0.015 C 
ATOM      3  C   UNL     1     -37.111  23.128   3.021  0.00  0.00    +0.004 C 
ATOM      4  C   UNL     1     -38.161  22.451   2.355  0.00  0.00    +0.034 C 
ATOM      5  C   UNL     1     -39.403  23.088   2.204  0.00  0.00    +0.139 C 
ATOM      6  C   UNL     1     -38.575  25.042   3.357  0.00  0.00    +0.004 C 
ATOM      7  C   UNL     1     -39.607  24.375   2.702  0.00  0.00    +0.037 C 
ATOM      8  C   UNL     1     -35.869  22.490   3.172  0.00  0.00    +0.000 C 
ATOM      9  C   UNL     1     -37.937  21.155   1.860  0.00  0.00    +0.003 C 
ATOM     10  C   UNL     1     -35.665  21.202   2.673  0.00  0.00    +0.000 C 
ATOM     11  C   UNL     1     -36.697  20.537   2.019  0.00  0.00    +0.000 C 
BRANCH   2  15
ATOM     12  O   UNL     1     -33.252  27.221   5.910  0.00  0.00    -0.273 OA
ATOM     13  N   UNL     1     -35.979  26.390   3.797  0.00  0.00    -0.184 NA
ATOM     14  N   UNL     1     -35.014  27.082   4.448  0.00  0.00    -0.206 N 
ATOM     15  C   UNL     1     -36.279  25.201   4.222  0.00  0.00    +0.077 C 
ATOM     16  C   UNL     1     -35.631  24.598   5.448  0.00  0.00    +0.057 C 
ATOM     17  C   UNL     1     -34.196  25.060   5.527  0.00  0.00    +0.093 C 
ATOM     18  C   UNL     1     -34.116  26.550   5.344  0.00  0.00    +0.241 C 
ATOM     19  H   UNL     1     -34.952  28.047   4.266  0.00  0.00    +0.177 HD
ENDBRANCH   2  15
ENDBRANCH   1   5
BRANCH   1  20
ATOM     20  C   UNL     1     -40.846  23.019   0.316  0.00  0.00    +0.232 C 
BRANCH  20  21
ATOM     21  C   UNL     1     -40.906  21.892  -0.714  0.00  0.00    +0.133 C 
BRANCH  21  22
ATOM     22  O   UNL     1     -41.138  20.660  -0.028  0.00  0.00    -0.383 OA
ATOM     23  H   UNL     1     -42.079  20.428  -0.089  0.00  0.00    +0.210 HD
ENDBRANCH  21  22
BRANCH  21  24
ATOM     24  C   UNL     1     -39.621  21.751  -1.533  0.00  0.00    -0.048 C 
BRANCH  24  25
ATOM     25  N   UNL     1     -38.724  22.883  -1.345  0.00  0.00    +0.388 N 
ATOM     26  H   UNL     1     -38.920  23.318  -0.444  0.00  0.00    -0.084 HD
ATOM     27  H   UNL     1     -38.876  23.547  -2.104  0.00  0.00    -0.084 HD
BRANCH  25  28
ATOM     28  C   UNL     1     -37.331  22.455  -1.374  0.00  0.00    -0.054 C 
BRANCH  28  29
ATOM     29  C   UNL     1     -36.424  23.455  -0.709  0.00  0.00    -0.041 C 
ATOM     30  C   UNL     1     -36.895  24.734  -0.411  0.00  0.00    +0.034 C 
ATOM     31  C   UNL     1     -35.114  23.103  -0.388  0.00  0.00    -0.003 C 
ATOM     32  C   UNL     1     -36.056  25.661   0.206  0.00  0.00    +0.172 C 
ATOM     33  C   UNL     1     -34.274  24.030   0.230  0.00  0.00    +0.040 C 
ATOM     34  C   UNL     1     -34.745  25.308   0.527  0.00  0.00    +0.172 C 
BRANCH  32  35
ATOM     35  O   UNL     1     -36.528  26.906   0.493  0.00  0.00    -0.468 OA
ATOM     36  C   UNL     1     -37.943  27.087   0.452  0.00  0.00    +0.253 C 
ENDBRANCH  32  35
BRANCH  34  37
ATOM     37  O   UNL     1     -33.916  26.205   1.131  0.00  0.00    -0.468 OA
ATOM     38  C   UNL     1     -32.831  25.675   1.891  0.00  0.00    +0.253 C 
ENDBRANCH  34  37
ENDBRANCH  28  29
ENDBRANCH  25  28
ENDBRANCH  24  25
ENDBRANCH  21  24
ENDBRANCH  20  21
ENDBRANCH   1  20
TORSDOF 11
ENDMDL
MODEL 8
REMARK VINA RESULT:      -5.7      2.474      4.675
REMARK  Name = 53931759
REMARK  11 active torsions:
REMARK  status: ('A' for Active; 'I' for Inactive)
REMARK    1  A    between atoms: O_1  and  C_5
REMARK    2  A    between atoms: O_1  and  C_20
REMARK    3  A    between atoms: C_2  and  C_15
REMARK    4  A    between atoms: C_20  and  C_21
REMARK    5  A    between atoms: C_21  and  O_22
REMARK    6  A    between atoms: C_21  and  C_24
REMARK    7  A    between atoms: C_24  and  N_25
REMARK    8  A    between atoms: N_25  and  C_28
REMARK    9  A    between atoms: C_28  and  C_29
REMARK   10  A    between atoms: C_32  and  O_35
REMARK   11  A    between atoms: C_34  and  O_37
REMARK                            x       y       z     vdW  Elec       q    Type
REMARK                         _______ _______ _______ _____ _____    ______ ____
ROOT
ATOM      1  O   UNL     1     -35.591  20.902   2.662  0.00  0.00    -0.473 OA
ENDROOT
BRANCH   1   5
ATOM      2  C   UNL     1     -38.318  24.025   2.932  0.00  0.00    +0.015 C 
ATOM      3  C   UNL     1     -37.155  24.079   3.716  0.00  0.00    +0.004 C 
ATOM      4  C   UNL     1     -36.216  23.023   3.635  0.00  0.00    +0.034 C 
ATOM      5  C   UNL     1     -36.469  21.944   2.773  0.00  0.00    +0.139 C 
ATOM      6  C   UNL     1     -38.554  22.945   2.080  0.00  0.00    +0.004 C 
ATOM      7  C   UNL     1     -37.629  21.906   2.001  0.00  0.00    +0.037 C 
ATOM      8  C   UNL     1     -36.903  25.158   4.579  0.00  0.00    +0.000 C 
ATOM      9  C   UNL     1     -35.052  23.078   4.419  0.00  0.00    +0.003 C 
ATOM     10  C   UNL     1     -35.740  25.196   5.351  0.00  0.00    +0.000 C 
ATOM     11  C   UNL     1     -34.817  24.158   5.271  0.00  0.00    +0.000 C 
BRANCH   2  15
ATOM     12  O   UNL     1     -42.326  27.789   2.937  0.00  0.00    -0.273 OA
ATOM     13  N   UNL     1     -40.180  25.154   3.955  0.00  0.00    -0.184 NA
ATOM     14  N   UNL     1     -41.115  26.133   3.962  0.00  0.00    -0.206 N 
ATOM     15  C   UNL     1     -39.350  25.098   2.958  0.00  0.00    +0.077 C 
ATOM     16  C   UNL     1     -39.361  26.123   1.846  0.00  0.00    +0.057 C 
ATOM     17  C   UNL     1     -40.784  26.559   1.589  0.00  0.00    +0.093 C 
ATOM     18  C   UNL     1     -41.464  26.911   2.882  0.00  0.00    +0.241 C 
ATOM     19  H   UNL     1     -41.582  26.303   4.811  0.00  0.00    +0.177 HD
ENDBRANCH   2  15
ENDBRANCH   1   5
BRANCH   1  20
ATOM     20  C   UNL     1     -35.941  19.861   1.755  0.00  0.00    +0.232 C 
BRANCH  20  21
ATOM     21  C   UNL     1     -34.800  19.674   0.755  0.00  0.00    +0.133 C 
BRANCH  21  22
ATOM     22  O   UNL     1     -33.561  19.720   1.467  0.00  0.00    -0.383 OA
ATOM     23  H   UNL     1     -33.639  19.208   2.287  0.00  0.00    +0.210 HD
ENDBRANCH  21  22
BRANCH  21  24
ATOM     24  C   UNL     1     -34.768  20.748  -0.335  0.00  0.00    -0.048 C 
BRANCH  24  25
ATOM     25  N   UNL     1     -34.197  21.999   0.145  0.00  0.00    +0.388 N 
ATOM     26  H   UNL     1     -33.219  22.050  -0.139  0.00  0.00    -0.084 HD
ATOM     27  H   UNL     1     -34.276  22.023   1.161  0.00  0.00    -0.084 HD
BRANCH  25  28
ATOM     28  C   UNL     1     -34.913  23.143  -0.405  0.00  0.00    -0.054 C 
BRANCH  28  29
ATOM     29  C   UNL     1     -34.801  24.353   0.484  0.00  0.00    -0.041 C 
ATOM     30  C   UNL     1     -33.662  24.540   1.268  0.00  0.00    +0.034 C 
ATOM     31  C   UNL     1     -35.834  25.289   0.522  0.00  0.00    -0.003 C 
ATOM     32  C   UNL     1     -33.557  25.661   2.091  0.00  0.00    +0.172 C 
ATOM     33  C   UNL     1     -35.729  26.411   1.344  0.00  0.00    +0.040 C 
ATOM     34  C   UNL     1     -34.591  26.597   2.128  0.00  0.00    +0.172 C 
BRANCH  32  35
ATOM     35  O   UNL     1     -32.439  25.833   2.850  0.00  0.00    -0.468 OA
ATOM     36  C   UNL     1     -31.308  26.424   2.212  0.00  0.00    +0.253 C 
ENDBRANCH  32  35
BRANCH  34  37
ATOM     37  O   UNL     1     -34.500  27.697   2.927  0.00  0.00    -0.468 OA
ATOM     38  C   UNL     1     -34.571  28.970   2.288  0.00  0.00    +0.253 C 
ENDBRANCH  34  37
ENDBRANCH  28  29
ENDBRANCH  25  28
ENDBRANCH  24  25
ENDBRANCH  21  24
ENDBRANCH  20  21
ENDBRANCH   1  20
TORSDOF 11
ENDMDL
MODEL 9
REMARK VINA RESULT:      -5.7      2.871      4.509
REMARK  Name = 53931759
REMARK  11 active torsions:
REMARK  status: ('A' for Active; 'I' for Inactive)
REMARK    1  A    between atoms: O_1  and  C_5
REMARK    2  A    between atoms: O_1  and  C_20
REMARK    3  A    between atoms: C_2  and  C_15
REMARK    4  A    between atoms: C_20  and  C_21
REMARK    5  A    between atoms: C_21  and  O_22
REMARK    6  A    between atoms: C_21  and  C_24
REMARK    7  A    between atoms: C_24  and  N_25
REMARK    8  A    between atoms: N_25  and  C_28
REMARK    9  A    between atoms: C_28  and  C_29
REMARK   10  A    between atoms: C_32  and  O_35
REMARK   11  A    between atoms: C_34  and  O_37
REMARK                            x       y       z     vdW  Elec       q    Type
REMARK                         _______ _______ _______ _____ _____    ______ ____
ROOT
ATOM      1  O   UNL     1     -35.413  24.146   4.587  0.00  0.00    -0.473 OA
ENDROOT
BRANCH   1   5
ATOM      2  C   UNL     1     -32.710  27.299   4.630  0.00  0.00    +0.015 C 
ATOM      3  C   UNL     1     -32.927  26.617   3.422  0.00  0.00    +0.004 C 
ATOM      4  C   UNL     1     -33.845  25.541   3.391  0.00  0.00    +0.034 C 
ATOM      5  C   UNL     1     -34.519  25.178   4.569  0.00  0.00    +0.139 C 
ATOM      6  C   UNL     1     -33.386  26.925   5.791  0.00  0.00    +0.004 C 
ATOM      7  C   UNL     1     -34.290  25.866   5.760  0.00  0.00    +0.037 C 
ATOM      8  C   UNL     1     -32.253  26.980   2.244  0.00  0.00    +0.000 C 
ATOM      9  C   UNL     1     -34.063  24.859   2.183  0.00  0.00    +0.003 C 
ATOM     10  C   UNL     1     -32.483  26.291   1.052  0.00  0.00    +0.000 C 
ATOM     11  C   UNL     1     -33.386  25.233   1.022  0.00  0.00    +0.000 C 
BRANCH   2  15
ATOM     12  O   UNL     1     -29.229  31.497   5.337  0.00  0.00    -0.273 OA
ATOM     13  N   UNL     1     -30.509  28.207   4.983  0.00  0.00    -0.184 NA
ATOM     14  N   UNL     1     -29.663  29.259   5.086  0.00  0.00    -0.206 N 
ATOM     15  C   UNL     1     -31.763  28.444   4.742  0.00  0.00    +0.077 C 
ATOM     16  C   UNL     1     -32.286  29.844   4.516  0.00  0.00    +0.057 C 
ATOM     17  C   UNL     1     -31.516  30.808   5.387  0.00  0.00    +0.093 C 
ATOM     18  C   UNL     1     -30.038  30.573   5.244  0.00  0.00    +0.241 C 
ATOM     19  H   UNL     1     -28.699  29.066   5.044  0.00  0.00    +0.177 HD
ENDBRANCH   2  15
ENDBRANCH   1   5
BRANCH   1  20
ATOM     20  C   UNL     1     -35.277  23.195   5.639  0.00  0.00    +0.232 C 
BRANCH  20  21
ATOM     21  C   UNL     1     -35.672  21.816   5.111  0.00  0.00    +0.133 C 
BRANCH  21  22
ATOM     22  O   UNL     1     -34.824  20.837   5.717  0.00  0.00    -0.383 OA
ATOM     23  H   UNL     1     -34.127  21.283   6.225  0.00  0.00    +0.210 HD
ENDBRANCH  21  22
BRANCH  21  24
ATOM     24  C   UNL     1     -35.540  21.689   3.591  0.00  0.00    -0.048 C 
BRANCH  24  25
ATOM     25  N   UNL     1     -36.837  21.631   2.932  0.00  0.00    +0.388 N 
ATOM     26  H   UNL     1     -37.564  21.883   3.602  0.00  0.00    -0.084 HD
ATOM     27  H   UNL     1     -36.983  20.684   2.585  0.00  0.00    -0.084 HD
BRANCH  25  28
ATOM     28  C   UNL     1     -36.890  22.552   1.804  0.00  0.00    -0.054 C 
BRANCH  28  29
ATOM     29  C   UNL     1     -37.817  23.708   2.068  0.00  0.00    -0.041 C 
ATOM     30  C   UNL     1     -37.440  25.002   1.708  0.00  0.00    +0.034 C 
ATOM     31  C   UNL     1     -39.055  23.486   2.670  0.00  0.00    -0.003 C 
ATOM     32  C   UNL     1     -38.299  26.074   1.951  0.00  0.00    +0.172 C 
ATOM     33  C   UNL     1     -39.915  24.557   2.913  0.00  0.00    +0.040 C 
ATOM     34  C   UNL     1     -39.537  25.850   2.553  0.00  0.00    +0.172 C 
BRANCH  32  35
ATOM     35  O   UNL     1     -37.920  27.332   1.593  0.00  0.00    -0.468 OA
ATOM     36  C   UNL     1     -36.527  27.631   1.662  0.00  0.00    +0.253 C 
ENDBRANCH  32  35
BRANCH  34  37
ATOM     37  O   UNL     1     -40.386  26.888   2.796  0.00  0.00    -0.468 OA
ATOM     38  C   UNL     1     -41.717  26.767   2.299  0.00  0.00    +0.253 C 
ENDBRANCH  34  37
ENDBRANCH  28  29
ENDBRANCH  25  28
ENDBRANCH  24  25
ENDBRANCH  21  24
ENDBRANCH  20  21
ENDBRANCH   1  20
TORSDOF 11
ENDMDL
