MODEL 1
REMARK VINA RESULT:      -6.6      0.000      0.000
REMARK  Name = 5338662
REMARK  4 active torsions:
REMARK  status: ('A' for Active; 'I' for Inactive)
REMARK    1  A    between atoms: C_5  and  C_14
REMARK    2  A    between atoms: C_6  and  N_13
REMARK    3  A    between atoms: C_15  and  C_16
REMARK    4  A    between atoms: C_17  and  O_22
REMARK                            x       y       z     vdW  Elec       q    Type
REMARK                         _______ _______ _______ _____ _____    ______ ____
ROOT
ATOM      1  O   UNL     1     -33.519  16.724  -0.735  0.00  0.00    -0.265 OA
ATOM      2  O   UNL     1     -37.912  18.102  -0.425  0.00  0.00    -0.247 OA
ATOM      3  N   UNL     1     -36.295  19.219   0.770  0.00  0.00    -0.305 N 
ATOM      4  N   UNL     1     -35.724  17.399  -0.594  0.00  0.00    -0.273 N 
ATOM      5  C   UNL     1     -34.980  19.400   1.155  0.00  0.00    +0.087 A 
ATOM      6  C   UNL     1     -34.047  18.573   0.659  0.00  0.00    +0.214 A 
ATOM      7  C   UNL     1     -34.374  17.480  -0.282  0.00  0.00    +0.285 A 
ATOM      8  C   UNL     1     -36.730  18.233  -0.104  0.00  0.00    +0.327 A 
ATOM      9  H   UNL     1     -36.971  19.832   1.142  0.00  0.00    +0.170 HD
ATOM     10  H   UNL     1     -35.997  16.689  -1.218  0.00  0.00    +0.173 HD
ENDROOT
BRANCH   6  13
ATOM     11  O   UNL     1     -32.230  17.938   1.870  0.00  0.00    -0.126 OA
ATOM     12  O   UNL     1     -32.052  19.652   0.498  0.00  0.00    -0.126 OA
ATOM     13  N   UNL     1     -32.682  18.732   1.035  0.00  0.00    +0.064 N 
ENDBRANCH   6  13
BRANCH   5  14
ATOM     14  C   UNL     1     -34.762  20.493   2.076  0.00  0.00    +0.019 C 
ATOM     15  C   UNL     1     -35.734  20.999   2.840  0.00  0.00    +0.005 C 
BRANCH  15  16
ATOM     16  C   UNL     1     -35.562  22.116   3.785  0.00  0.00    +0.034 C 
ATOM     17  C   UNL     1     -35.344  21.869   5.132  0.00  0.00    +0.134 C 
ATOM     18  C   UNL     1     -35.626  23.411   3.294  0.00  0.00    +0.003 C 
ATOM     19  C   UNL     1     -35.183  22.943   6.008  0.00  0.00    +0.037 C 
ATOM     20  C   UNL     1     -35.467  24.485   4.170  0.00  0.00    +0.000 C 
ATOM     21  C   UNL     1     -35.245  24.251   5.527  0.00  0.00    +0.003 C 
BRANCH  17  22
ATOM     22  O   UNL     1     -35.279  20.601   5.629  0.00  0.00    -0.506 OA
ATOM     23  H   UNL     1     -35.947  19.979   5.415  0.00  0.00    +0.292 HD
ENDBRANCH  17  22
ENDBRANCH  15  16
ENDBRANCH   5  14
TORSDOF 4
ENDMDL
MODEL 2
REMARK VINA RESULT:      -6.6      3.452      6.097
REMARK  Name = 5338662
REMARK  4 active torsions:
REMARK  status: ('A' for Active; 'I' for Inactive)
REMARK    1  A    between atoms: C_5  and  C_14
REMARK    2  A    between atoms: C_6  and  N_13
REMARK    3  A    between atoms: C_15  and  C_16
REMARK    4  A    between atoms: C_17  and  O_22
REMARK                            x       y       z     vdW  Elec       q    Type
REMARK                         _______ _______ _______ _____ _____    ______ ____
ROOT
ATOM      1  O   UNL     1     -39.120  24.402   3.420  0.00  0.00    -0.265 OA
ATOM      2  O   UNL     1     -40.628  20.869   0.863  0.00  0.00    -0.247 OA
ATOM      3  N   UNL     1     -38.418  20.936   1.499  0.00  0.00    -0.305 N 
ATOM      4  N   UNL     1     -39.895  22.641   2.141  0.00  0.00    -0.273 N 
ATOM      5  C   UNL     1     -37.363  21.544   2.153  0.00  0.00    +0.087 A 
ATOM      6  C   UNL     1     -37.586  22.699   2.796  0.00  0.00    +0.214 A 
ATOM      7  C   UNL     1     -38.917  23.345   2.831  0.00  0.00    +0.285 A 
ATOM      8  C   UNL     1     -39.711  21.439   1.457  0.00  0.00    +0.327 A 
ATOM      9  H   UNL     1     -38.241  20.088   1.030  0.00  0.00    +0.170 HD
ATOM     10  H   UNL     1     -40.800  23.025   2.133  0.00  0.00    +0.173 HD
ENDROOT
BRANCH   6  13
ATOM     11  O   UNL     1     -36.375  23.085   4.681  0.00  0.00    -0.126 OA
ATOM     12  O   UNL     1     -35.822  24.133   2.824  0.00  0.00    -0.126 OA
ATOM     13  N   UNL     1     -36.521  23.351   3.481  0.00  0.00    +0.064 N 
ENDBRANCH   6  13
BRANCH   5  14
ATOM     14  C   UNL     1     -36.104  20.837   2.061  0.00  0.00    +0.019 C 
ATOM     15  C   UNL     1     -35.264  20.989   1.034  0.00  0.00    +0.005 C 
BRANCH  15  16
ATOM     16  C   UNL     1     -33.977  20.286   0.892  0.00  0.00    +0.034 C 
ATOM     17  C   UNL     1     -32.929  20.873   0.200  0.00  0.00    +0.134 C 
ATOM     18  C   UNL     1     -33.846  19.030   1.465  0.00  0.00    +0.003 C 
ATOM     19  C   UNL     1     -31.720  20.188   0.079  0.00  0.00    +0.037 C 
ATOM     20  C   UNL     1     -32.637  18.344   1.343  0.00  0.00    +0.000 C 
ATOM     21  C   UNL     1     -31.574  18.923   0.651  0.00  0.00    +0.003 C 
BRANCH  17  22
ATOM     22  O   UNL     1     -33.044  22.107  -0.368  0.00  0.00    -0.506 OA
ATOM     23  H   UNL     1     -32.302  22.506  -0.776  0.00  0.00    +0.292 HD
ENDBRANCH  17  22
ENDBRANCH  15  16
ENDBRANCH   5  14
TORSDOF 4
ENDMDL
MODEL 3
REMARK VINA RESULT:      -6.4      4.921      7.217
REMARK  Name = 5338662
REMARK  4 active torsions:
REMARK  status: ('A' for Active; 'I' for Inactive)
REMARK    1  A    between atoms: C_5  and  C_14
REMARK    2  A    between atoms: C_6  and  N_13
REMARK    3  A    between atoms: C_15  and  C_16
REMARK    4  A    between atoms: C_17  and  O_22
REMARK                            x       y       z     vdW  Elec       q    Type
REMARK                         _______ _______ _______ _____ _____    ______ ____
ROOT
ATOM      1  O   UNL     1     -37.443  22.947   2.561  0.00  0.00    -0.265 OA
ATOM      2  O   UNL     1     -35.234  21.733   6.426  0.00  0.00    -0.247 OA
ATOM      3  N   UNL     1     -35.058  23.895   5.661  0.00  0.00    -0.305 N 
ATOM      4  N   UNL     1     -36.346  22.320   4.495  0.00  0.00    -0.273 N 
ATOM      5  C   UNL     1     -35.359  24.885   4.744  0.00  0.00    +0.087 A 
ATOM      6  C   UNL     1     -36.153  24.579   3.707  0.00  0.00    +0.214 A 
ATOM      7  C   UNL     1     -36.717  23.225   3.510  0.00  0.00    +0.285 A 
ATOM      8  C   UNL     1     -35.523  22.590   5.589  0.00  0.00    +0.327 A 
ATOM      9  H   UNL     1     -34.474  24.133   6.417  0.00  0.00    +0.170 HD
ATOM     10  H   UNL     1     -36.694  21.404   4.413  0.00  0.00    +0.173 HD
ENDROOT
BRANCH   6  13
ATOM     11  O   UNL     1     -37.515  26.229   2.939  0.00  0.00    -0.126 OA
ATOM     12  O   UNL     1     -35.712  25.712   1.785  0.00  0.00    -0.126 OA
ATOM     13  N   UNL     1     -36.483  25.575   2.744  0.00  0.00    +0.064 N 
ENDBRANCH   6  13
BRANCH   5  14
ATOM     14  C   UNL     1     -34.761  26.172   5.022  0.00  0.00    +0.019 C 
ATOM     15  C   UNL     1     -33.495  26.463   4.709  0.00  0.00    +0.005 C 
BRANCH  15  16
ATOM     16  C   UNL     1     -32.840  27.755   4.980  0.00  0.00    +0.034 C 
ATOM     17  C   UNL     1     -32.205  27.980   6.192  0.00  0.00    +0.134 C 
ATOM     18  C   UNL     1     -32.877  28.732   3.997  0.00  0.00    +0.003 C 
ATOM     19  C   UNL     1     -31.591  29.210   6.425  0.00  0.00    +0.037 C 
ATOM     20  C   UNL     1     -32.265  29.963   4.231  0.00  0.00    +0.000 C 
ATOM     21  C   UNL     1     -31.621  30.202   5.445  0.00  0.00    +0.003 C 
BRANCH  17  22
ATOM     22  O   UNL     1     -32.161  27.028   7.167  0.00  0.00    -0.506 OA
ATOM     23  H   UNL     1     -31.376  26.902   7.664  0.00  0.00    +0.292 HD
ENDBRANCH  17  22
ENDBRANCH  15  16
ENDBRANCH   5  14
TORSDOF 4
ENDMDL
MODEL 4
REMARK VINA RESULT:      -6.3      1.238      2.807
REMARK  Name = 5338662
REMARK  4 active torsions:
REMARK  status: ('A' for Active; 'I' for Inactive)
REMARK    1  A    between atoms: C_5  and  C_14
REMARK    2  A    between atoms: C_6  and  N_13
REMARK    3  A    between atoms: C_15  and  C_16
REMARK    4  A    between atoms: C_17  and  O_22
REMARK                            x       y       z     vdW  Elec       q    Type
REMARK                         _______ _______ _______ _____ _____    ______ ____
ROOT
ATOM      1  O   UNL     1     -36.194  17.489  -1.605  0.00  0.00    -0.265 OA
ATOM      2  O   UNL     1     -32.370  16.745   0.869  0.00  0.00    -0.247 OA
ATOM      3  N   UNL     1     -33.604  18.649   1.248  0.00  0.00    -0.305 N 
ATOM      4  N   UNL     1     -34.278  17.098  -0.376  0.00  0.00    -0.273 N 
ATOM      5  C   UNL     1     -34.686  19.467   0.979  0.00  0.00    +0.087 A 
ATOM      6  C   UNL     1     -35.554  19.089   0.030  0.00  0.00    +0.214 A 
ATOM      7  C   UNL     1     -35.399  17.833  -0.736  0.00  0.00    +0.285 A 
ATOM      8  C   UNL     1     -33.346  17.449   0.601  0.00  0.00    +0.327 A 
ATOM      9  H   UNL     1     -32.973  18.938   1.947  0.00  0.00    +0.170 HD
ATOM     10  H   UNL     1     -34.126  16.251  -0.854  0.00  0.00    +0.173 HD
ENDROOT
BRANCH   6  13
ATOM     11  O   UNL     1     -36.516  20.808  -1.107  0.00  0.00    -0.126 OA
ATOM     12  O   UNL     1     -37.737  19.658   0.322  0.00  0.00    -0.126 OA
ATOM     13  N   UNL     1     -36.680  19.908  -0.273  0.00  0.00    +0.064 N 
ENDBRANCH   6  13
BRANCH   5  14
ATOM     14  C   UNL     1     -34.751  20.670   1.778  0.00  0.00    +0.019 C 
ATOM     15  C   UNL     1     -35.371  20.719   2.960  0.00  0.00    +0.005 C 
BRANCH  15  16
ATOM     16  C   UNL     1     -35.471  21.922   3.805  0.00  0.00    +0.034 C 
ATOM     17  C   UNL     1     -35.384  21.820   5.185  0.00  0.00    +0.134 C 
ATOM     18  C   UNL     1     -35.653  23.149   3.187  0.00  0.00    +0.003 C 
ATOM     19  C   UNL     1     -35.480  22.973   5.965  0.00  0.00    +0.037 C 
ATOM     20  C   UNL     1     -35.751  24.302   3.966  0.00  0.00    +0.000 C 
ATOM     21  C   UNL     1     -35.664  24.214   5.355  0.00  0.00    +0.003 C 
BRANCH  17  22
ATOM     22  O   UNL     1     -35.204  20.620   5.807  0.00  0.00    -0.506 OA
ATOM     23  H   UNL     1     -35.913  20.009   5.861  0.00  0.00    +0.292 HD
ENDBRANCH  17  22
ENDBRANCH  15  16
ENDBRANCH   5  14
TORSDOF 4
ENDMDL
MODEL 5
REMARK VINA RESULT:      -6.2      5.065      6.922
REMARK  Name = 5338662
REMARK  4 active torsions:
REMARK  status: ('A' for Active; 'I' for Inactive)
REMARK    1  A    between atoms: C_5  and  C_14
REMARK    2  A    between atoms: C_6  and  N_13
REMARK    3  A    between atoms: C_15  and  C_16
REMARK    4  A    between atoms: C_17  and  O_22
REMARK                            x       y       z     vdW  Elec       q    Type
REMARK                         _______ _______ _______ _____ _____    ______ ____
ROOT
ATOM      1  O   UNL     1     -38.325  22.287   2.532  0.00  0.00    -0.265 OA
ATOM      2  O   UNL     1     -39.887  26.625   2.332  0.00  0.00    -0.247 OA
ATOM      3  N   UNL     1     -37.959  26.176   3.504  0.00  0.00    -0.305 N 
ATOM      4  N   UNL     1     -39.122  24.452   2.419  0.00  0.00    -0.273 N 
ATOM      5  C   UNL     1     -36.997  25.295   3.965  0.00  0.00    +0.087 A 
ATOM      6  C   UNL     1     -37.111  23.998   3.646  0.00  0.00    +0.214 A 
ATOM      7  C   UNL     1     -38.223  23.475   2.822  0.00  0.00    +0.285 A 
ATOM      8  C   UNL     1     -39.049  25.812   2.725  0.00  0.00    +0.327 A 
ATOM      9  H   UNL     1     -37.865  27.126   3.745  0.00  0.00    +0.170 HD
ATOM     10  H   UNL     1     -39.882  24.160   1.866  0.00  0.00    +0.173 HD
ENDROOT
BRANCH   6  13
ATOM     11  O   UNL     1     -35.188  22.821   3.346  0.00  0.00    -0.126 OA
ATOM     12  O   UNL     1     -36.312  22.568   5.224  0.00  0.00    -0.126 OA
ATOM     13  N   UNL     1     -36.137  23.064   4.104  0.00  0.00    +0.064 N 
ENDBRANCH   6  13
BRANCH   5  14
ATOM     14  C   UNL     1     -35.953  25.900   4.761  0.00  0.00    +0.019 C 
ATOM     15  C   UNL     1     -34.822  26.373   4.230  0.00  0.00    +0.005 C 
BRANCH  15  16
ATOM     16  C   UNL     1     -33.727  26.988   5.000  0.00  0.00    +0.034 C 
ATOM     17  C   UNL     1     -32.879  27.908   4.402  0.00  0.00    +0.134 C 
ATOM     18  C   UNL     1     -33.570  26.625   6.328  0.00  0.00    +0.003 C 
ATOM     19  C   UNL     1     -31.850  28.478   5.151  0.00  0.00    +0.037 C 
ATOM     20  C   UNL     1     -32.540  27.194   7.078  0.00  0.00    +0.000 C 
ATOM     21  C   UNL     1     -31.680  28.121   6.489  0.00  0.00    +0.003 C 
BRANCH  17  22
ATOM     22  O   UNL     1     -33.022  28.274   3.096  0.00  0.00    -0.506 OA
ATOM     23  H   UNL     1     -33.579  28.993   2.870  0.00  0.00    +0.292 HD
ENDBRANCH  17  22
ENDBRANCH  15  16
ENDBRANCH   5  14
TORSDOF 4
ENDMDL
MODEL 6
REMARK VINA RESULT:      -6.1      1.095      1.678
REMARK  Name = 5338662
REMARK  4 active torsions:
REMARK  status: ('A' for Active; 'I' for Inactive)
REMARK    1  A    between atoms: C_5  and  C_14
REMARK    2  A    between atoms: C_6  and  N_13
REMARK    3  A    between atoms: C_15  and  C_16
REMARK    4  A    between atoms: C_17  and  O_22
REMARK                            x       y       z     vdW  Elec       q    Type
REMARK                         _______ _______ _______ _____ _____    ______ ____
ROOT
ATOM      1  O   UNL     1     -33.388  16.998  -1.111  0.00  0.00    -0.265 OA
ATOM      2  O   UNL     1     -37.827  18.166  -0.632  0.00  0.00    -0.247 OA
ATOM      3  N   UNL     1     -36.257  19.119   0.752  0.00  0.00    -0.305 N 
ATOM      4  N   UNL     1     -35.615  17.570  -0.888  0.00  0.00    -0.273 N 
ATOM      5  C   UNL     1     -34.950  19.275   1.178  0.00  0.00    +0.087 A 
ATOM      6  C   UNL     1     -33.988  18.572   0.564  0.00  0.00    +0.214 A 
ATOM      7  C   UNL     1     -34.271  17.640  -0.550  0.00  0.00    +0.285 A 
ATOM      8  C   UNL     1     -36.652  18.279  -0.279  0.00  0.00    +0.327 A 
ATOM      9  H   UNL     1     -36.955  19.640   1.211  0.00  0.00    +0.170 HD
ATOM     10  H   UNL     1     -35.860  16.966  -1.625  0.00  0.00    +0.173 HD
ENDROOT
BRANCH   6  13
ATOM     11  O   UNL     1     -31.989  19.656   0.505  0.00  0.00    -0.126 OA
ATOM     12  O   UNL     1     -32.198  17.871   1.780  0.00  0.00    -0.126 OA
ATOM     13  N   UNL     1     -32.632  18.709   0.978  0.00  0.00    +0.064 N 
ENDBRANCH   6  13
BRANCH   5  14
ATOM     14  C   UNL     1     -34.776  20.206   2.271  0.00  0.00    +0.019 C 
ATOM     15  C   UNL     1     -35.752  21.012   2.696  0.00  0.00    +0.005 C 
BRANCH  15  16
ATOM     16  C   UNL     1     -35.619  21.981   3.797  0.00  0.00    +0.034 C 
ATOM     17  C   UNL     1     -35.887  23.325   3.587  0.00  0.00    +0.134 C 
ATOM     18  C   UNL     1     -35.221  21.516   5.041  0.00  0.00    +0.003 C 
ATOM     19  C   UNL     1     -35.755  24.224   4.645  0.00  0.00    +0.037 C 
ATOM     20  C   UNL     1     -35.087  22.415   6.099  0.00  0.00    +0.000 C 
ATOM     21  C   UNL     1     -35.355  23.769   5.901  0.00  0.00    +0.003 C 
BRANCH  17  22
ATOM     22  O   UNL     1     -36.280  23.797   2.369  0.00  0.00    -0.506 OA
ATOM     23  H   UNL     1     -36.796  24.577   2.313  0.00  0.00    +0.292 HD
ENDBRANCH  17  22
ENDBRANCH  15  16
ENDBRANCH   5  14
TORSDOF 4
ENDMDL
MODEL 7
REMARK VINA RESULT:      -5.9      2.127      3.927
REMARK  Name = 5338662
REMARK  4 active torsions:
REMARK  status: ('A' for Active; 'I' for Inactive)
REMARK    1  A    between atoms: C_5  and  C_14
REMARK    2  A    between atoms: C_6  and  N_13
REMARK    3  A    between atoms: C_15  and  C_16
REMARK    4  A    between atoms: C_17  and  O_22
REMARK                            x       y       z     vdW  Elec       q    Type
REMARK                         _______ _______ _______ _____ _____    ______ ____
ROOT
ATOM      1  O   UNL     1     -39.816  19.093  -1.389  0.00  0.00    -0.265 OA
ATOM      2  O   UNL     1     -35.602  17.532  -0.338  0.00  0.00    -0.247 OA
ATOM      3  N   UNL     1     -36.371  19.456   0.661  0.00  0.00    -0.305 N 
ATOM      4  N   UNL     1     -37.710  18.295  -0.875  0.00  0.00    -0.273 N 
ATOM      5  C   UNL     1     -37.348  20.416   0.853  0.00  0.00    +0.087 A 
ATOM      6  C   UNL     1     -38.499  20.304   0.174  0.00  0.00    +0.214 A 
ATOM      7  C   UNL     1     -38.762  19.194  -0.768  0.00  0.00    +0.285 A 
ATOM      8  C   UNL     1     -36.495  18.369  -0.193  0.00  0.00    +0.327 A 
ATOM      9  H   UNL     1     -35.530  19.550   1.165  0.00  0.00    +0.170 HD
ATOM     10  H   UNL     1     -37.832  17.535  -1.488  0.00  0.00    +0.173 HD
ENDROOT
BRANCH   6  13
ATOM     11  O   UNL     1     -40.359  21.063   1.241  0.00  0.00    -0.126 OA
ATOM     12  O   UNL     1     -39.509  22.258  -0.404  0.00  0.00    -0.126 OA
ATOM     13  N   UNL     1     -39.526  21.275   0.349  0.00  0.00    +0.064 N 
ENDBRANCH   6  13
BRANCH   5  14
ATOM     14  C   UNL     1     -36.998  21.459   1.791  0.00  0.00    +0.019 C 
ATOM     15  C   UNL     1     -36.077  21.293   2.745  0.00  0.00    +0.005 C 
BRANCH  15  16
ATOM     16  C   UNL     1     -35.693  22.321   3.728  0.00  0.00    +0.034 C 
ATOM     17  C   UNL     1     -35.292  21.958   5.004  0.00  0.00    +0.134 C 
ATOM     18  C   UNL     1     -35.745  23.653   3.344  0.00  0.00    +0.003 C 
ATOM     19  C   UNL     1     -34.933  22.949   5.917  0.00  0.00    +0.037 C 
ATOM     20  C   UNL     1     -35.387  24.644   4.257  0.00  0.00    +0.000 C 
ATOM     21  C   UNL     1     -34.980  24.292   5.544  0.00  0.00    +0.003 C 
BRANCH  17  22
ATOM     22  O   UNL     1     -35.237  20.652   5.395  0.00  0.00    -0.506 OA
ATOM     23  H   UNL     1     -34.775  20.416   6.176  0.00  0.00    +0.292 HD
ENDBRANCH  17  22
ENDBRANCH  15  16
ENDBRANCH   5  14
TORSDOF 4
ENDMDL
MODEL 8
REMARK VINA RESULT:      -5.8      6.102      8.407
REMARK  Name = 5338662
REMARK  4 active torsions:
REMARK  status: ('A' for Active; 'I' for Inactive)
REMARK    1  A    between atoms: C_5  and  C_14
REMARK    2  A    between atoms: C_6  and  N_13
REMARK    3  A    between atoms: C_15  and  C_16
REMARK    4  A    between atoms: C_17  and  O_22
REMARK                            x       y       z     vdW  Elec       q    Type
REMARK                         _______ _______ _______ _____ _____    ______ ____
ROOT
ATOM      1  O   UNL     1     -32.968  30.547   2.664  0.00  0.00    -0.265 OA
ATOM      2  O   UNL     1     -37.013  28.978   1.090  0.00  0.00    -0.247 OA
ATOM      3  N   UNL     1     -35.790  27.680   2.543  0.00  0.00    -0.305 N 
ATOM      4  N   UNL     1     -34.996  29.780   1.866  0.00  0.00    -0.273 N 
ATOM      5  C   UNL     1     -34.676  27.465   3.334  0.00  0.00    +0.087 A 
ATOM      6  C   UNL     1     -33.730  28.414   3.381  0.00  0.00    +0.214 A 
ATOM      7  C   UNL     1     -33.835  29.679   2.620  0.00  0.00    +0.285 A 
ATOM      8  C   UNL     1     -36.006  28.821   1.783  0.00  0.00    +0.327 A 
ATOM      9  H   UNL     1     -36.477  26.975   2.517  0.00  0.00    +0.170 HD
ATOM     10  H   UNL     1     -35.118  30.603   1.341  0.00  0.00    +0.173 HD
ENDROOT
BRANCH   6  13
ATOM     11  O   UNL     1     -32.579  28.730   5.316  0.00  0.00    -0.126 OA
ATOM     12  O   UNL     1     -31.642  27.570   3.695  0.00  0.00    -0.126 OA
ATOM     13  N   UNL     1     -32.571  28.225   4.186  0.00  0.00    +0.064 N 
ENDBRANCH   6  13
BRANCH   5  14
ATOM     14  C   UNL     1     -34.666  26.201   4.037  0.00  0.00    +0.019 C 
ATOM     15  C   UNL     1     -35.243  25.099   3.550  0.00  0.00    +0.005 C 
BRANCH  15  16
ATOM     16  C   UNL     1     -35.266  23.794   4.232  0.00  0.00    +0.034 C 
ATOM     17  C   UNL     1     -35.363  22.620   3.500  0.00  0.00    +0.134 C 
ATOM     18  C   UNL     1     -35.189  23.771   5.617  0.00  0.00    +0.003 C 
ATOM     19  C   UNL     1     -35.382  21.396   4.168  0.00  0.00    +0.037 C 
ATOM     20  C   UNL     1     -35.209  22.547   6.285  0.00  0.00    +0.000 C 
ATOM     21  C   UNL     1     -35.305  21.359   5.560  0.00  0.00    +0.003 C 
BRANCH  17  22
ATOM     22  O   UNL     1     -35.440  22.628   2.139  0.00  0.00    -0.506 OA
ATOM     23  H   UNL     1     -34.952  23.258   1.645  0.00  0.00    +0.292 HD
ENDBRANCH  17  22
ENDBRANCH  15  16
ENDBRANCH   5  14
TORSDOF 4
ENDMDL
MODEL 9
REMARK VINA RESULT:      -5.8      2.103      2.836
REMARK  Name = 5338662
REMARK  4 active torsions:
REMARK  status: ('A' for Active; 'I' for Inactive)
REMARK    1  A    between atoms: C_5  and  C_14
REMARK    2  A    between atoms: C_6  and  N_13
REMARK    3  A    between atoms: C_15  and  C_16
REMARK    4  A    between atoms: C_17  and  O_22
REMARK                            x       y       z     vdW  Elec       q    Type
REMARK                         _______ _______ _______ _____ _____    ______ ____
ROOT
ATOM      1  O   UNL     1     -31.176  15.038  -0.447  0.00  0.00    -0.265 OA
ATOM      2  O   UNL     1     -35.780  15.133  -0.145  0.00  0.00    -0.247 OA
ATOM      3  N   UNL     1     -34.577  17.014   0.406  0.00  0.00    -0.305 N 
ATOM      4  N   UNL     1     -33.482  15.065  -0.304  0.00  0.00    -0.273 N 
ATOM      5  C   UNL     1     -33.378  17.686   0.557  0.00  0.00    +0.087 A 
ATOM      6  C   UNL     1     -32.239  17.035   0.276  0.00  0.00    +0.214 A 
ATOM      7  C   UNL     1     -32.219  15.631  -0.190  0.00  0.00    +0.285 A 
ATOM      8  C   UNL     1     -34.693  15.699  -0.022  0.00  0.00    +0.327 A 
ATOM      9  H   UNL     1     -35.406  17.502   0.617  0.00  0.00    +0.170 HD
ATOM     10  H   UNL     1     -33.527  14.132  -0.611  0.00  0.00    +0.173 HD
ENDROOT
BRANCH   6  13
ATOM     11  O   UNL     1     -30.570  18.338  -0.554  0.00  0.00    -0.126 OA
ATOM     12  O   UNL     1     -30.409  17.583   1.509  0.00  0.00    -0.126 OA
ATOM     13  N   UNL     1     -30.986  17.698   0.420  0.00  0.00    +0.064 N 
ENDBRANCH   6  13
BRANCH   5  14
ATOM     14  C   UNL     1     -33.501  19.051   1.016  0.00  0.00    +0.019 C 
ATOM     15  C   UNL     1     -34.671  19.692   1.073  0.00  0.00    +0.005 C 
BRANCH  15  16
ATOM     16  C   UNL     1     -34.845  21.083   1.524  0.00  0.00    +0.034 C 
ATOM     17  C   UNL     1     -35.508  21.359   2.710  0.00  0.00    +0.134 C 
ATOM     18  C   UNL     1     -34.331  22.101   0.736  0.00  0.00    +0.003 C 
ATOM     19  C   UNL     1     -35.660  22.685   3.118  0.00  0.00    +0.037 C 
ATOM     20  C   UNL     1     -34.484  23.427   1.142  0.00  0.00    +0.000 C 
ATOM     21  C   UNL     1     -35.148  23.718   2.334  0.00  0.00    +0.003 C 
BRANCH  17  22
ATOM     22  O   UNL     1     -36.019  20.368   3.495  0.00  0.00    -0.506 OA
ATOM     23  H   UNL     1     -36.527  19.681   3.111  0.00  0.00    +0.292 HD
ENDBRANCH  17  22
ENDBRANCH  15  16
ENDBRANCH   5  14
TORSDOF 4
ENDMDL
