MODEL 1
REMARK VINA RESULT:      -6.6      0.000      0.000
REMARK  Name = 195147
REMARK  4 active torsions:
REMARK  status: ('A' for Active; 'I' for Inactive)
REMARK    1  A    between atoms: C_9  and  C_23
REMARK    2  A    between atoms: C_10  and  O_18
REMARK    3  A    between atoms: C_15  and  O_20
REMARK    4  A    between atoms: C_23  and  O_24
REMARK                            x       y       z     vdW  Elec       q    Type
REMARK                         _______ _______ _______ _____ _____    ______ ____
ROOT
ATOM      1  O   UNL     1     -36.102  23.379   1.074  0.00  0.00    -0.287 OA
ATOM      2  O   UNL     1     -35.115  26.958   4.917  0.00  0.00    -0.286 OA
ATOM      3  C   UNL     1     -35.611  23.758   3.362  0.00  0.00    +0.051 C 
ATOM      4  C   UNL     1     -35.608  26.571   2.637  0.00  0.00    +0.075 C 
ATOM      5  C   UNL     1     -35.864  25.622   1.645  0.00  0.00    +0.045 C 
ATOM      6  C   UNL     1     -35.355  24.707   4.354  0.00  0.00    +0.043 C 
ATOM      7  C   UNL     1     -35.875  24.181   1.971  0.00  0.00    +0.196 C 
ATOM      8  C   UNL     1     -35.344  26.148   4.027  0.00  0.00    +0.199 C 
ATOM      9  C   UNL     1     -35.618  22.396   3.684  0.00  0.00    +0.112 C 
ATOM     10  C   UNL     1     -35.600  27.933   2.314  0.00  0.00    +0.133 C 
ATOM     11  C   UNL     1     -35.848  28.341   1.003  0.00  0.00    +0.012 C 
ATOM     12  C   UNL     1     -36.113  26.035   0.330  0.00  0.00    +0.003 C 
ATOM     13  C   UNL     1     -35.106  24.294   5.668  0.00  0.00    +0.006 C 
ATOM     14  C   UNL     1     -36.104  27.394   0.015  0.00  0.00    -0.001 C 
ATOM     15  C   UNL     1     -35.368  21.988   4.995  0.00  0.00    +0.140 C 
ATOM     16  C   UNL     1     -35.113  22.936   5.984  0.00  0.00    +0.037 C 
ATOM     17  C   UNL     1     -35.844  29.788   0.635  0.00  0.00    +0.034 C 
ENDROOT
BRANCH  10  18
ATOM     18  O   UNL     1     -35.356  28.898   3.249  0.00  0.00    -0.506 OA
ATOM     19  H   UNL     1     -35.184  29.779   2.979  0.00  0.00    +0.292 HD
ENDBRANCH  10  18
BRANCH  15  20
ATOM     20  O   UNL     1     -35.369  20.668   5.338  0.00  0.00    -0.505 OA
ATOM     21  H   UNL     1     -35.917  20.064   4.876  0.00  0.00    +0.292 HD
ENDBRANCH  15  20
BRANCH   9  23
ATOM     22  O   UNL     1     -37.003  21.010   2.325  0.00  0.00    -0.245 OA
ATOM     23  C   UNL     1     -35.877  21.337   2.711  0.00  0.00    +0.344 C 
BRANCH  23  24
ATOM     24  O   UNL     1     -34.715  20.760   2.286  0.00  0.00    -0.441 OA
ATOM     25  C   UNL     1     -34.823  19.812   1.219  0.00  0.00    +0.256 C 
ENDBRANCH  23  24
ENDBRANCH   9  23
TORSDOF 4
ENDMDL
MODEL 2
REMARK VINA RESULT:      -6.3      3.841      5.338
REMARK  Name = 195147
REMARK  4 active torsions:
REMARK  status: ('A' for Active; 'I' for Inactive)
REMARK    1  A    between atoms: C_9  and  C_23
REMARK    2  A    between atoms: C_10  and  O_18
REMARK    3  A    between atoms: C_15  and  O_20
REMARK    4  A    between atoms: C_23  and  O_24
REMARK                            x       y       z     vdW  Elec       q    Type
REMARK                         _______ _______ _______ _____ _____    ______ ____
ROOT
ATOM      1  O   UNL     1     -37.711  24.759   4.045  0.00  0.00    -0.287 OA
ATOM      2  O   UNL     1     -40.376  22.033   0.300  0.00  0.00    -0.286 OA
ATOM      3  C   UNL     1     -37.797  22.829   2.671  0.00  0.00    +0.051 C 
ATOM      4  C   UNL     1     -40.281  23.956   1.672  0.00  0.00    +0.075 C 
ATOM      5  C   UNL     1     -39.572  24.656   2.651  0.00  0.00    +0.045 C 
ATOM      6  C   UNL     1     -38.507  22.130   1.692  0.00  0.00    +0.043 C 
ATOM      7  C   UNL     1     -38.304  24.118   3.187  0.00  0.00    +0.196 C 
ATOM      8  C   UNL     1     -39.775  22.668   1.158  0.00  0.00    +0.199 C 
ATOM      9  C   UNL     1     -36.597  22.308   3.170  0.00  0.00    +0.112 C 
ATOM     10  C   UNL     1     -41.481  24.477   1.175  0.00  0.00    +0.133 C 
ATOM     11  C   UNL     1     -41.967  25.693   1.656  0.00  0.00    +0.012 C 
ATOM     12  C   UNL     1     -40.062  25.876   3.132  0.00  0.00    +0.003 C 
ATOM     13  C   UNL     1     -38.017  20.910   1.212  0.00  0.00    +0.006 C 
ATOM     14  C   UNL     1     -41.259  26.390   2.632  0.00  0.00    -0.001 C 
ATOM     15  C   UNL     1     -36.113  21.091   2.689  0.00  0.00    +0.140 C 
ATOM     16  C   UNL     1     -36.821  20.394   1.713  0.00  0.00    +0.037 C 
ATOM     17  C   UNL     1     -43.245  26.268   1.141  0.00  0.00    +0.034 C 
ENDROOT
BRANCH  10  18
ATOM     18  O   UNL     1     -42.210  23.831   0.217  0.00  0.00    -0.506 OA
ATOM     19  H   UNL     1     -42.932  23.289   0.465  0.00  0.00    +0.292 HD
ENDBRANCH  10  18
BRANCH  15  20
ATOM     20  O   UNL     1     -34.947  20.560   3.156  0.00  0.00    -0.505 OA
ATOM     21  H   UNL     1     -34.524  20.938   3.902  0.00  0.00    +0.292 HD
ENDBRANCH  15  20
BRANCH   9  23
ATOM     22  O   UNL     1     -34.862  23.746   3.948  0.00  0.00    -0.245 OA
ATOM     23  C   UNL     1     -35.792  22.972   4.193  0.00  0.00    +0.344 C 
BRANCH  23  24
ATOM     24  O   UNL     1     -36.201  22.626   5.448  0.00  0.00    -0.441 OA
ATOM     25  C   UNL     1     -35.213  22.044   6.306  0.00  0.00    +0.256 C 
ENDBRANCH  23  24
ENDBRANCH   9  23
TORSDOF 4
ENDMDL
MODEL 3
REMARK VINA RESULT:      -6.1      2.850      6.222
REMARK  Name = 195147
REMARK  4 active torsions:
REMARK  status: ('A' for Active; 'I' for Inactive)
REMARK    1  A    between atoms: C_9  and  C_23
REMARK    2  A    between atoms: C_10  and  O_18
REMARK    3  A    between atoms: C_15  and  O_20
REMARK    4  A    between atoms: C_23  and  O_24
REMARK                            x       y       z     vdW  Elec       q    Type
REMARK                         _______ _______ _______ _____ _____    ______ ____
ROOT
ATOM      1  O   UNL     1     -39.018  23.812   1.200  0.00  0.00    -0.287 OA
ATOM      2  O   UNL     1     -35.228  20.476   2.951  0.00  0.00    -0.286 OA
ATOM      3  C   UNL     1     -37.303  23.404   2.784  0.00  0.00    +0.051 C 
ATOM      4  C   UNL     1     -36.940  20.892   1.373  0.00  0.00    +0.075 C 
ATOM      5  C   UNL     1     -37.926  21.775   0.928  0.00  0.00    +0.045 C 
ATOM      6  C   UNL     1     -36.317  22.520   3.228  0.00  0.00    +0.043 C 
ATOM      7  C   UNL     1     -38.144  23.063   1.618  0.00  0.00    +0.196 C 
ATOM      8  C   UNL     1     -36.100  21.231   2.539  0.00  0.00    +0.199 C 
ATOM      9  C   UNL     1     -37.499  24.622   3.446  0.00  0.00    +0.112 C 
ATOM     10  C   UNL     1     -36.745  19.674   0.711  0.00  0.00    +0.133 C 
ATOM     11  C   UNL     1     -37.534  19.344  -0.392  0.00  0.00    +0.012 C 
ATOM     12  C   UNL     1     -38.716  21.441  -0.178  0.00  0.00    +0.003 C 
ATOM     13  C   UNL     1     -35.527  22.854   4.335  0.00  0.00    +0.006 C 
ATOM     14  C   UNL     1     -38.517  20.226  -0.834  0.00  0.00    -0.001 C 
ATOM     15  C   UNL     1     -36.710  24.950   4.550  0.00  0.00    +0.140 C 
ATOM     16  C   UNL     1     -35.726  24.068   4.992  0.00  0.00    +0.037 C 
ATOM     17  C   UNL     1     -37.345  18.050  -1.113  0.00  0.00    +0.034 C 
ENDROOT
BRANCH  10  18
ATOM     18  O   UNL     1     -35.794  18.778   1.107  0.00  0.00    -0.506 OA
ATOM     19  H   UNL     1     -35.989  17.861   1.116  0.00  0.00    +0.292 HD
ENDBRANCH  10  18
BRANCH  15  20
ATOM     20  O   UNL     1     -36.878  26.129   5.214  0.00  0.00    -0.505 OA
ATOM     21  H   UNL     1     -37.740  26.457   5.376  0.00  0.00    +0.292 HD
ENDBRANCH  15  20
BRANCH   9  23
ATOM     22  O   UNL     1     -38.285  26.557   2.297  0.00  0.00    -0.245 OA
ATOM     23  C   UNL     1     -38.506  25.604   3.050  0.00  0.00    +0.344 C 
BRANCH  23  24
ATOM     24  O   UNL     1     -39.716  25.330   3.618  0.00  0.00    -0.441 OA
ATOM     25  C   UNL     1     -40.835  26.079   3.133  0.00  0.00    +0.256 C 
ENDBRANCH  23  24
ENDBRANCH   9  23
TORSDOF 4
ENDMDL
MODEL 4
REMARK VINA RESULT:      -6.1      2.019      5.800
REMARK  Name = 195147
REMARK  4 active torsions:
REMARK  status: ('A' for Active; 'I' for Inactive)
REMARK    1  A    between atoms: C_9  and  C_23
REMARK    2  A    between atoms: C_10  and  O_18
REMARK    3  A    between atoms: C_15  and  O_20
REMARK    4  A    between atoms: C_23  and  O_24
REMARK                            x       y       z     vdW  Elec       q    Type
REMARK                         _______ _______ _______ _____ _____    ______ ____
ROOT
ATOM      1  O   UNL     1     -37.407  24.642   0.697  0.00  0.00    -0.287 OA
ATOM      2  O   UNL     1     -35.236  20.586   3.417  0.00  0.00    -0.286 OA
ATOM      3  C   UNL     1     -36.509  23.879   2.754  0.00  0.00    +0.051 C 
ATOM      4  C   UNL     1     -36.130  21.356   1.368  0.00  0.00    +0.075 C 
ATOM      5  C   UNL     1     -36.696  22.426   0.671  0.00  0.00    +0.045 C 
ATOM      6  C   UNL     1     -35.943  22.809   3.450  0.00  0.00    +0.043 C 
ATOM      7  C   UNL     1     -36.907  23.727   1.339  0.00  0.00    +0.196 C 
ATOM      8  C   UNL     1     -35.734  21.508   2.782  0.00  0.00    +0.199 C 
ATOM      9  C   UNL     1     -36.703  25.107   3.399  0.00  0.00    +0.112 C 
ATOM     10  C   UNL     1     -35.937  20.129   0.723  0.00  0.00    +0.133 C 
ATOM     11  C   UNL     1     -36.309  19.975  -0.614  0.00  0.00    +0.012 C 
ATOM     12  C   UNL     1     -37.068  22.269  -0.669  0.00  0.00    +0.003 C 
ATOM     13  C   UNL     1     -35.572  22.965   4.790  0.00  0.00    +0.006 C 
ATOM     14  C   UNL     1     -36.873  21.044  -1.307  0.00  0.00    -0.001 C 
ATOM     15  C   UNL     1     -36.333  25.258   4.736  0.00  0.00    +0.140 C 
ATOM     16  C   UNL     1     -35.768  24.190   5.429  0.00  0.00    +0.037 C 
ATOM     17  C   UNL     1     -36.114  18.675  -1.322  0.00  0.00    +0.034 C 
ENDROOT
BRANCH  10  18
ATOM     18  O   UNL     1     -35.387  19.053   1.360  0.00  0.00    -0.506 OA
ATOM     19  H   UNL     1     -35.353  19.030   2.296  0.00  0.00    +0.292 HD
ENDBRANCH  10  18
BRANCH  15  20
ATOM     20  O   UNL     1     -36.509  26.442   5.389  0.00  0.00    -0.505 OA
ATOM     21  H   UNL     1     -36.713  27.218   4.906  0.00  0.00    +0.292 HD
ENDBRANCH  15  20
BRANCH   9  23
ATOM     22  O   UNL     1     -38.500  26.492   2.666  0.00  0.00    -0.245 OA
ATOM     23  C   UNL     1     -37.287  26.278   2.748  0.00  0.00    +0.344 C 
BRANCH  23  24
ATOM     24  O   UNL     1     -36.319  27.099   2.246  0.00  0.00    -0.441 OA
ATOM     25  C   UNL     1     -36.724  28.013   1.220  0.00  0.00    +0.256 C 
ENDBRANCH  23  24
ENDBRANCH   9  23
TORSDOF 4
ENDMDL
MODEL 5
REMARK VINA RESULT:      -6.1      1.532      2.049
REMARK  Name = 195147
REMARK  4 active torsions:
REMARK  status: ('A' for Active; 'I' for Inactive)
REMARK    1  A    between atoms: C_9  and  C_23
REMARK    2  A    between atoms: C_10  and  O_18
REMARK    3  A    between atoms: C_15  and  O_20
REMARK    4  A    between atoms: C_23  and  O_24
REMARK                            x       y       z     vdW  Elec       q    Type
REMARK                         _______ _______ _______ _____ _____    ______ ____
ROOT
ATOM      1  O   UNL     1     -37.241  25.213   1.419  0.00  0.00    -0.287 OA
ATOM      2  O   UNL     1     -33.798  27.356   4.899  0.00  0.00    -0.286 OA
ATOM      3  C   UNL     1     -35.852  24.874   3.310  0.00  0.00    +0.051 C 
ATOM      4  C   UNL     1     -35.188  27.686   3.015  0.00  0.00    +0.075 C 
ATOM      5  C   UNL     1     -36.086  27.110   2.113  0.00  0.00    +0.045 C 
ATOM      6  C   UNL     1     -34.954  25.450   4.210  0.00  0.00    +0.043 C 
ATOM      7  C   UNL     1     -36.451  25.683   2.228  0.00  0.00    +0.196 C 
ATOM      8  C   UNL     1     -34.589  26.877   4.095  0.00  0.00    +0.199 C 
ATOM      9  C   UNL     1     -36.190  23.521   3.429  0.00  0.00    +0.112 C 
ATOM     10  C   UNL     1     -34.850  29.039   2.894  0.00  0.00    +0.133 C 
ATOM     11  C   UNL     1     -35.411  29.811   1.875  0.00  0.00    +0.012 C 
ATOM     12  C   UNL     1     -36.647  27.887   1.093  0.00  0.00    +0.003 C 
ATOM     13  C   UNL     1     -34.393  24.673   5.230  0.00  0.00    +0.006 C 
ATOM     14  C   UNL     1     -36.308  29.235   0.978  0.00  0.00    -0.001 C 
ATOM     15  C   UNL     1     -35.627  22.749   4.447  0.00  0.00    +0.140 C 
ATOM     16  C   UNL     1     -34.731  23.325   5.345  0.00  0.00    +0.037 C 
ATOM     17  C   UNL     1     -35.065  31.255   1.727  0.00  0.00    +0.034 C 
ENDROOT
BRANCH  10  18
ATOM     18  O   UNL     1     -33.978  29.648   3.750  0.00  0.00    -0.506 OA
ATOM     19  H   UNL     1     -33.405  29.131   4.282  0.00  0.00    +0.292 HD
ENDBRANCH  10  18
BRANCH  15  20
ATOM     20  O   UNL     1     -35.938  21.429   4.588  0.00  0.00    -0.505 OA
ATOM     21  H   UNL     1     -35.419  20.882   5.145  0.00  0.00    +0.292 HD
ENDBRANCH  15  20
BRANCH   9  23
ATOM     22  O   UNL     1     -36.785  22.271   1.488  0.00  0.00    -0.245 OA
ATOM     23  C   UNL     1     -37.120  22.837   2.532  0.00  0.00    +0.344 C 
BRANCH  23  24
ATOM     24  O   UNL     1     -38.401  22.907   3.000  0.00  0.00    -0.441 OA
ATOM     25  C   UNL     1     -39.430  22.450   2.116  0.00  0.00    +0.256 C 
ENDBRANCH  23  24
ENDBRANCH   9  23
TORSDOF 4
ENDMDL
MODEL 6
REMARK VINA RESULT:      -6.0      2.276      5.706
REMARK  Name = 195147
REMARK  4 active torsions:
REMARK  status: ('A' for Active; 'I' for Inactive)
REMARK    1  A    between atoms: C_9  and  C_23
REMARK    2  A    between atoms: C_10  and  O_18
REMARK    3  A    between atoms: C_15  and  O_20
REMARK    4  A    between atoms: C_23  and  O_24
REMARK                            x       y       z     vdW  Elec       q    Type
REMARK                         _______ _______ _______ _____ _____    ______ ____
ROOT
ATOM      1  O   UNL     1     -33.596  24.945   1.001  0.00  0.00    -0.287 OA
ATOM      2  O   UNL     1     -36.151  21.998   4.653  0.00  0.00    -0.286 OA
ATOM      3  C   UNL     1     -34.301  24.741   3.255  0.00  0.00    +0.051 C 
ATOM      4  C   UNL     1     -35.441  22.208   2.408  0.00  0.00    +0.075 C 
ATOM      5  C   UNL     1     -34.770  22.991   1.465  0.00  0.00    +0.045 C 
ATOM      6  C   UNL     1     -34.972  23.958   4.196  0.00  0.00    +0.043 C 
ATOM      7  C   UNL     1     -34.176  24.286   1.855  0.00  0.00    +0.196 C 
ATOM      8  C   UNL     1     -35.568  22.663   3.807  0.00  0.00    +0.199 C 
ATOM      9  C   UNL     1     -33.742  25.966   3.637  0.00  0.00    +0.112 C 
ATOM     10  C   UNL     1     -36.001  20.984   2.025  0.00  0.00    +0.133 C 
ATOM     11  C   UNL     1     -35.888  20.546   0.705  0.00  0.00    +0.012 C 
ATOM     12  C   UNL     1     -34.658  22.549   0.142  0.00  0.00    +0.003 C 
ATOM     13  C   UNL     1     -35.085  24.400   5.520  0.00  0.00    +0.006 C 
ATOM     14  C   UNL     1     -35.217  21.327  -0.234  0.00  0.00    -0.001 C 
ATOM     15  C   UNL     1     -33.858  26.404   4.957  0.00  0.00    +0.140 C 
ATOM     16  C   UNL     1     -34.527  25.622   5.896  0.00  0.00    +0.037 C 
ATOM     17  C   UNL     1     -36.477  19.244   0.273  0.00  0.00    +0.034 C 
ENDROOT
BRANCH  10  18
ATOM     18  O   UNL     1     -36.666  20.182   2.908  0.00  0.00    -0.506 OA
ATOM     19  H   UNL     1     -36.200  19.769   3.608  0.00  0.00    +0.292 HD
ENDBRANCH  10  18
BRANCH  15  20
ATOM     20  O   UNL     1     -33.322  27.593   5.358  0.00  0.00    -0.505 OA
ATOM     21  H   UNL     1     -32.409  27.652   5.558  0.00  0.00    +0.292 HD
ENDBRANCH  15  20
BRANCH   9  23
ATOM     22  O   UNL     1     -33.563  27.713   2.024  0.00  0.00    -0.245 OA
ATOM     23  C   UNL     1     -33.023  26.848   2.719  0.00  0.00    +0.344 C 
BRANCH  23  24
ATOM     24  O   UNL     1     -31.682  26.590   2.731  0.00  0.00    -0.441 OA
ATOM     25  C   UNL     1     -30.812  27.726   2.769  0.00  0.00    +0.256 C 
ENDBRANCH  23  24
ENDBRANCH   9  23
TORSDOF 4
ENDMDL
MODEL 7
REMARK VINA RESULT:      -6.0      1.882      6.855
REMARK  Name = 195147
REMARK  4 active torsions:
REMARK  status: ('A' for Active; 'I' for Inactive)
REMARK    1  A    between atoms: C_9  and  C_23
REMARK    2  A    between atoms: C_10  and  O_18
REMARK    3  A    between atoms: C_15  and  O_20
REMARK    4  A    between atoms: C_23  and  O_24
REMARK                            x       y       z     vdW  Elec       q    Type
REMARK                         _______ _______ _______ _____ _____    ______ ____
ROOT
ATOM      1  O   UNL     1     -34.278  27.795   4.069  0.00  0.00    -0.287 OA
ATOM      2  O   UNL     1     -37.726  24.260   2.026  0.00  0.00    -0.286 OA
ATOM      3  C   UNL     1     -35.941  27.350   2.439  0.00  0.00    +0.051 C 
ATOM      4  C   UNL     1     -36.068  24.713   3.650  0.00  0.00    +0.075 C 
ATOM      5  C   UNL     1     -35.172  25.649   4.172  0.00  0.00    +0.045 C 
ATOM      6  C   UNL     1     -36.837  26.414   1.919  0.00  0.00    +0.043 C 
ATOM      7  C   UNL     1     -35.076  27.001   3.586  0.00  0.00    +0.196 C 
ATOM      8  C   UNL     1     -36.932  25.061   2.504  0.00  0.00    +0.199 C 
ATOM      9  C   UNL     1     -35.860  28.628   1.875  0.00  0.00    +0.112 C 
ATOM     10  C   UNL     1     -36.149  23.435   4.215  0.00  0.00    +0.133 C 
ATOM     11  C   UNL     1     -35.335  23.097   5.297  0.00  0.00    +0.012 C 
ATOM     12  C   UNL     1     -34.358  25.307   5.258  0.00  0.00    +0.003 C 
ATOM     13  C   UNL     1     -37.650  26.756   0.832  0.00  0.00    +0.006 C 
ATOM     14  C   UNL     1     -34.443  24.031   5.817  0.00  0.00    -0.001 C 
ATOM     15  C   UNL     1     -36.672  28.965   0.791  0.00  0.00    +0.140 C 
ATOM     16  C   UNL     1     -37.565  28.030   0.272  0.00  0.00    +0.037 C 
ATOM     17  C   UNL     1     -35.403  21.739   5.915  0.00  0.00    +0.034 C 
ENDROOT
BRANCH  10  18
ATOM     18  O   UNL     1     -37.008  22.486   3.741  0.00  0.00    -0.506 OA
ATOM     19  H   UNL     1     -37.362  21.842   4.322  0.00  0.00    +0.292 HD
ENDBRANCH  10  18
BRANCH  15  20
ATOM     20  O   UNL     1     -36.615  30.203   0.221  0.00  0.00    -0.505 OA
ATOM     21  H   UNL     1     -36.326  30.938   0.725  0.00  0.00    +0.292 HD
ENDBRANCH  15  20
BRANCH   9  23
ATOM     22  O   UNL     1     -35.195  30.411   3.313  0.00  0.00    -0.245 OA
ATOM     23  C   UNL     1     -34.952  29.668   2.357  0.00  0.00    +0.344 C 
BRANCH  23  24
ATOM     24  O   UNL     1     -33.807  29.710   1.614  0.00  0.00    -0.441 OA
ATOM     25  C   UNL     1     -32.670  30.329   2.226  0.00  0.00    +0.256 C 
ENDBRANCH  23  24
ENDBRANCH   9  23
TORSDOF 4
ENDMDL
MODEL 8
REMARK VINA RESULT:      -6.0      2.397      2.935
REMARK  Name = 195147
REMARK  4 active torsions:
REMARK  status: ('A' for Active; 'I' for Inactive)
REMARK    1  A    between atoms: C_9  and  C_23
REMARK    2  A    between atoms: C_10  and  O_18
REMARK    3  A    between atoms: C_15  and  O_20
REMARK    4  A    between atoms: C_23  and  O_24
REMARK                            x       y       z     vdW  Elec       q    Type
REMARK                         _______ _______ _______ _____ _____    ______ ____
ROOT
ATOM      1  O   UNL     1     -34.104  25.236   1.192  0.00  0.00    -0.287 OA
ATOM      2  O   UNL     1     -33.685  26.578   6.348  0.00  0.00    -0.286 OA
ATOM      3  C   UNL     1     -34.530  24.637   3.446  0.00  0.00    +0.051 C 
ATOM      4  C   UNL     1     -33.267  27.169   4.098  0.00  0.00    +0.075 C 
ATOM      5  C   UNL     1     -33.384  26.804   2.755  0.00  0.00    +0.045 C 
ATOM      6  C   UNL     1     -34.413  25.003   4.788  0.00  0.00    +0.043 C 
ATOM      7  C   UNL     1     -34.020  25.524   2.380  0.00  0.00    +0.196 C 
ATOM      8  C   UNL     1     -33.776  26.283   5.163  0.00  0.00    +0.199 C 
ATOM      9  C   UNL     1     -35.135  23.422   3.104  0.00  0.00    +0.112 C 
ATOM     10  C   UNL     1     -32.661  28.384   4.439  0.00  0.00    +0.133 C 
ATOM     11  C   UNL     1     -32.176  29.228   3.439  0.00  0.00    +0.012 C 
ATOM     12  C   UNL     1     -32.897  27.652   1.754  0.00  0.00    +0.003 C 
ATOM     13  C   UNL     1     -34.899  24.154   5.789  0.00  0.00    +0.006 C 
ATOM     14  C   UNL     1     -32.295  28.862   2.100  0.00  0.00    -0.001 C 
ATOM     15  C   UNL     1     -35.618  22.577   4.105  0.00  0.00    +0.140 C 
ATOM     16  C   UNL     1     -35.500  22.943   5.444  0.00  0.00    +0.037 C 
ATOM     17  C   UNL     1     -31.526  30.528   3.779  0.00  0.00    +0.034 C 
ENDROOT
BRANCH  10  18
ATOM     18  O   UNL     1     -32.523  28.786   5.736  0.00  0.00    -0.506 OA
ATOM     19  H   UNL     1     -31.891  29.441   5.959  0.00  0.00    +0.292 HD
ENDBRANCH  10  18
BRANCH  15  20
ATOM     20  O   UNL     1     -36.212  21.388   3.802  0.00  0.00    -0.505 OA
ATOM     21  H   UNL     1     -36.203  21.070   2.921  0.00  0.00    +0.292 HD
ENDBRANCH  15  20
BRANCH   9  23
ATOM     22  O   UNL     1     -34.465  22.288   1.117  0.00  0.00    -0.245 OA
ATOM     23  C   UNL     1     -35.300  22.960   1.727  0.00  0.00    +0.344 C 
BRANCH  23  24
ATOM     24  O   UNL     1     -36.495  23.368   1.208  0.00  0.00    -0.441 OA
ATOM     25  C   UNL     1     -37.310  22.357   0.604  0.00  0.00    +0.256 C 
ENDBRANCH  23  24
ENDBRANCH   9  23
TORSDOF 4
ENDMDL
MODEL 9
REMARK VINA RESULT:      -6.0      2.727      6.703
REMARK  Name = 195147
REMARK  4 active torsions:
REMARK  status: ('A' for Active; 'I' for Inactive)
REMARK    1  A    between atoms: C_9  and  C_23
REMARK    2  A    between atoms: C_10  and  O_18
REMARK    3  A    between atoms: C_15  and  O_20
REMARK    4  A    between atoms: C_23  and  O_24
REMARK                            x       y       z     vdW  Elec       q    Type
REMARK                         _______ _______ _______ _____ _____    ______ ____
ROOT
ATOM      1  O   UNL     1     -35.104  23.163   2.617  0.00  0.00    -0.287 OA
ATOM      2  O   UNL     1     -39.438  20.697   0.697  0.00  0.00    -0.286 OA
ATOM      3  C   UNL     1     -37.453  23.224   2.302  0.00  0.00    +0.051 C 
ATOM      4  C   UNL     1     -37.096  20.643   1.018  0.00  0.00    +0.075 C 
ATOM      5  C   UNL     1     -35.973  21.301   1.525  0.00  0.00    +0.045 C 
ATOM      6  C   UNL     1     -38.574  22.565   1.795  0.00  0.00    +0.043 C 
ATOM      7  C   UNL     1     -36.111  22.616   2.185  0.00  0.00    +0.196 C 
ATOM      8  C   UNL     1     -38.437  21.251   1.133  0.00  0.00    +0.199 C 
ATOM      9  C   UNL     1     -37.596  24.468   2.926  0.00  0.00    +0.112 C 
ATOM     10  C   UNL     1     -36.951  19.399   0.393  0.00  0.00    +0.133 C 
ATOM     11  C   UNL     1     -35.688  18.817   0.278  0.00  0.00    +0.012 C 
ATOM     12  C   UNL     1     -34.707  20.715   1.408  0.00  0.00    +0.003 C 
ATOM     13  C   UNL     1     -39.840  23.151   1.910  0.00  0.00    +0.006 C 
ATOM     14  C   UNL     1     -34.569  19.475   0.785  0.00  0.00    -0.001 C 
ATOM     15  C   UNL     1     -38.860  25.050   3.038  0.00  0.00    +0.140 C 
ATOM     16  C   UNL     1     -39.979  24.392   2.532  0.00  0.00    +0.037 C 
ATOM     17  C   UNL     1     -35.510  17.491  -0.384  0.00  0.00    +0.034 C 
ENDROOT
BRANCH  10  18
ATOM     18  O   UNL     1     -38.018  18.716  -0.118  0.00  0.00    -0.506 OA
ATOM     19  H   UNL     1     -37.880  18.032  -0.744  0.00  0.00    +0.292 HD
ENDBRANCH  10  18
BRANCH  15  20
ATOM     20  O   UNL     1     -39.030  26.262   3.641  0.00  0.00    -0.505 OA
ATOM     21  H   UNL     1     -38.567  26.461   4.431  0.00  0.00    +0.292 HD
ENDBRANCH  15  20
BRANCH   9  23
ATOM     22  O   UNL     1     -35.790  26.023   2.840  0.00  0.00    -0.245 OA
ATOM     23  C   UNL     1     -36.478  25.226   3.484  0.00  0.00    +0.344 C 
BRANCH  23  24
ATOM     24  O   UNL     1     -36.296  24.938   4.807  0.00  0.00    -0.441 OA
ATOM     25  C   UNL     1     -35.599  25.917   5.585  0.00  0.00    +0.256 C 
ENDBRANCH  23  24
ENDBRANCH   9  23
TORSDOF 4
ENDMDL
