MODEL 1
REMARK VINA RESULT:      -7.7      0.000      0.000
REMARK  Name = 193668
REMARK  4 active torsions:
REMARK  status: ('A' for Active; 'I' for Inactive)
REMARK    1  A    between atoms: O_1  and  C_4
REMARK    2  A    between atoms: O_1  and  C_18
REMARK    3  A    between atoms: C_6  and  S_12
REMARK    4  A    between atoms: C_20  and  S_26
REMARK                            x       y       z     vdW  Elec       q    Type
REMARK                         _______ _______ _______ _____ _____    ______ ____
ROOT
ATOM      1  O   UNL     1     -36.655  21.697   2.521  0.00  0.00    -0.453 OA
ENDROOT
BRANCH   1   4
ATOM      2  C   UNL     1     -34.930  24.452   4.233  0.00  0.00    +0.003 C 
ATOM      3  C   UNL     1     -34.301  25.084   3.134  0.00  0.00    +0.001 C 
ATOM      4  C   UNL     1     -35.887  22.803   2.720  0.00  0.00    +0.145 C 
ATOM      5  C   UNL     1     -35.720  23.312   4.009  0.00  0.00    +0.037 C 
ATOM      6  C   UNL     1     -33.345  26.733   4.645  0.00  0.00    +0.112 C 
ATOM      7  C   UNL     1     -33.512  26.223   3.358  0.00  0.00    +0.019 C 
ATOM      8  C   UNL     1     -34.480  24.557   1.844  0.00  0.00    +0.003 C 
ATOM      9  C   UNL     1     -34.751  24.977   5.522  0.00  0.00    +0.001 C 
ATOM     10  C   UNL     1     -35.268  23.425   1.640  0.00  0.00    +0.037 C 
ATOM     11  C   UNL     1     -33.963  26.111   5.726  0.00  0.00    +0.019 C 
BRANCH   6  12
ATOM     12  S   UNL     1     -32.359  28.152   4.903  0.00  0.00    +0.042 S 
ATOM     13  O   UNL     1     -32.326  28.363   6.523  0.00  0.00    -0.065 OA
ATOM     14  O   UNL     1     -31.000  27.835   4.488  0.00  0.00    -0.065 OA
ATOM     15  O   UNL     1     -33.071  29.275   4.315  0.00  0.00    -0.065 OA
ENDBRANCH   6  12
ENDBRANCH   1   4
BRANCH   1  18
ATOM     16  C   UNL     1     -34.241  19.177   1.374  0.00  0.00    +0.003 C 
ATOM     17  C   UNL     1     -34.991  18.547   0.352  0.00  0.00    +0.001 C 
ATOM     18  C   UNL     1     -36.103  20.651   1.801  0.00  0.00    +0.145 C 
ATOM     19  C   UNL     1     -34.816  20.235   2.096  0.00  0.00    +0.037 C 
ATOM     20  C   UNL     1     -33.120  17.056  -0.087  0.00  0.00    +0.112 C 
ATOM     21  C   UNL     1     -34.417  17.488  -0.369  0.00  0.00    +0.019 C 
ATOM     22  C   UNL     1     -36.295  18.996   0.082  0.00  0.00    +0.003 C 
ATOM     23  C   UNL     1     -32.938  18.728   1.645  0.00  0.00    +0.001 C 
ATOM     24  C   UNL     1     -36.849  20.050   0.808  0.00  0.00    +0.037 C 
ATOM     25  C   UNL     1     -32.382  17.674   0.919  0.00  0.00    +0.019 C 
BRANCH  20  26
ATOM     26  S   UNL     1     -32.423  15.737  -0.995  0.00  0.00    +0.042 S 
ATOM     27  O   UNL     1     -31.487  14.927   0.073  0.00  0.00    -0.065 OA
ATOM     28  O   UNL     1     -33.502  14.839  -1.382  0.00  0.00    -0.065 OA
ATOM     29  O   UNL     1     -31.554  16.328  -2.001  0.00  0.00    -0.065 OA
ENDBRANCH  20  26
ENDBRANCH   1  18
TORSDOF 4
ENDMDL
MODEL 2
REMARK VINA RESULT:      -7.6      0.261      9.633
REMARK  Name = 193668
REMARK  4 active torsions:
REMARK  status: ('A' for Active; 'I' for Inactive)
REMARK    1  A    between atoms: O_1  and  C_4
REMARK    2  A    between atoms: O_1  and  C_18
REMARK    3  A    between atoms: C_6  and  S_12
REMARK    4  A    between atoms: C_20  and  S_26
REMARK                            x       y       z     vdW  Elec       q    Type
REMARK                         _______ _______ _______ _____ _____    ______ ____
ROOT
ATOM      1  O   UNL     1     -36.654  21.499   2.342  0.00  0.00    -0.453 OA
ENDROOT
BRANCH   1   4
ATOM      2  C   UNL     1     -34.124  19.066   1.263  0.00  0.00    +0.003 C 
ATOM      3  C   UNL     1     -34.857  18.347   0.288  0.00  0.00    +0.001 C 
ATOM      4  C   UNL     1     -36.068  20.471   1.671  0.00  0.00    +0.145 C 
ATOM      5  C   UNL     1     -34.744  20.125   1.945  0.00  0.00    +0.037 C 
ATOM      6  C   UNL     1     -32.913  16.943  -0.121  0.00  0.00    +0.112 C 
ATOM      7  C   UNL     1     -34.237  17.288  -0.394  0.00  0.00    +0.019 C 
ATOM      8  C   UNL     1     -36.189  18.709   0.026  0.00  0.00    +0.003 C 
ATOM      9  C   UNL     1     -32.793  18.704   1.525  0.00  0.00    +0.001 C 
ATOM     10  C   UNL     1     -36.788  19.764   0.713  0.00  0.00    +0.037 C 
ATOM     11  C   UNL     1     -32.193  17.649   0.838  0.00  0.00    +0.019 C 
BRANCH   6  12
ATOM     12  S   UNL     1     -32.160  15.622  -0.982  0.00  0.00    +0.042 S 
ATOM     13  O   UNL     1     -31.466  14.698   0.175  0.00  0.00    -0.065 OA
ATOM     14  O   UNL     1     -33.214  14.823  -1.589  0.00  0.00    -0.065 OA
ATOM     15  O   UNL     1     -31.101  16.197  -1.796  0.00  0.00    -0.065 OA
ENDBRANCH   6  12
ENDBRANCH   1   4
BRANCH   1  18
ATOM     16  C   UNL     1     -34.973  24.267   4.077  0.00  0.00    +0.003 C 
ATOM     17  C   UNL     1     -34.390  24.943   2.979  0.00  0.00    +0.001 C 
ATOM     18  C   UNL     1     -35.902  22.643   2.553  0.00  0.00    +0.145 C 
ATOM     19  C   UNL     1     -35.732  23.108   3.846  0.00  0.00    +0.037 C 
ATOM     20  C   UNL     1     -33.450  26.587   4.506  0.00  0.00    +0.112 C 
ATOM     21  C   UNL     1     -33.631  26.101   3.210  0.00  0.00    +0.019 C 
ATOM     22  C   UNL     1     -34.584  24.441   1.681  0.00  0.00    +0.003 C 
ATOM     23  C   UNL     1     -34.779  24.769   5.374  0.00  0.00    +0.001 C 
ATOM     24  C   UNL     1     -35.342  23.289   1.471  0.00  0.00    +0.037 C 
ATOM     25  C   UNL     1     -34.022  25.921   5.586  0.00  0.00    +0.019 C 
BRANCH  20  26
ATOM     26  S   UNL     1     -32.501  28.029   4.773  0.00  0.00    +0.042 S 
ATOM     27  O   UNL     1     -32.482  28.238   6.394  0.00  0.00    -0.065 OA
ATOM     28  O   UNL     1     -31.132  27.748   4.364  0.00  0.00    -0.065 OA
ATOM     29  O   UNL     1     -33.239  29.135   4.183  0.00  0.00    -0.065 OA
ENDBRANCH  20  26
ENDBRANCH   1  18
TORSDOF 4
ENDMDL
MODEL 3
REMARK VINA RESULT:      -7.5     12.982     18.742
REMARK  Name = 193668
REMARK  4 active torsions:
REMARK  status: ('A' for Active; 'I' for Inactive)
REMARK    1  A    between atoms: O_1  and  C_4
REMARK    2  A    between atoms: O_1  and  C_18
REMARK    3  A    between atoms: C_6  and  S_12
REMARK    4  A    between atoms: C_20  and  S_26
REMARK                            x       y       z     vdW  Elec       q    Type
REMARK                         _______ _______ _______ _____ _____    ______ ____
ROOT
ATOM      1  O   UNL     1     -34.252  39.323   0.293  0.00  0.00    -0.453 OA
ENDROOT
BRANCH   1   4
ATOM      2  C   UNL     1     -36.567  36.507   0.742  0.00  0.00    +0.003 C 
ATOM      3  C   UNL     1     -35.682  35.416   0.566  0.00  0.00    +0.001 C 
ATOM      4  C   UNL     1     -34.718  38.048   0.382  0.00  0.00    +0.145 C 
ATOM      5  C   UNL     1     -36.069  37.816   0.647  0.00  0.00    +0.037 C 
ATOM      6  C   UNL     1     -37.529  33.875   0.926  0.00  0.00    +0.112 C 
ATOM      7  C   UNL     1     -36.179  34.107   0.661  0.00  0.00    +0.019 C 
ATOM      8  C   UNL     1     -34.326  35.668   0.301  0.00  0.00    +0.003 C 
ATOM      9  C   UNL     1     -37.922  36.255   1.007  0.00  0.00    +0.001 C 
ATOM     10  C   UNL     1     -33.849  36.976   0.210  0.00  0.00    +0.037 C 
ATOM     11  C   UNL     1     -38.399  34.947   1.097  0.00  0.00    +0.019 C 
BRANCH   6  12
ATOM     12  S   UNL     1     -38.129  32.238   1.040  0.00  0.00    +0.042 S 
ATOM     13  O   UNL     1     -38.004  31.629  -0.472  0.00  0.00    -0.065 OA
ATOM     14  O   UNL     1     -37.210  31.481   1.880  0.00  0.00    -0.065 OA
ATOM     15  O   UNL     1     -39.540  32.327   1.377  0.00  0.00    -0.065 OA
ENDBRANCH   6  12
ENDBRANCH   1   4
BRANCH   1  18
ATOM     16  C   UNL     1     -32.073  40.177   3.124  0.00  0.00    +0.003 C 
ATOM     17  C   UNL     1     -32.876  41.135   3.788  0.00  0.00    +0.001 C 
ATOM     18  C   UNL     1     -33.795  39.925   1.454  0.00  0.00    +0.145 C 
ATOM     19  C   UNL     1     -32.550  39.577   1.948  0.00  0.00    +0.037 C 
ATOM     20  C   UNL     1     -31.146  41.395   5.479  0.00  0.00    +0.112 C 
ATOM     21  C   UNL     1     -32.398  41.735   4.964  0.00  0.00    +0.019 C 
ATOM     22  C   UNL     1     -34.134  41.463   3.256  0.00  0.00    +0.003 C 
ATOM     23  C   UNL     1     -30.815  39.848   3.656  0.00  0.00    +0.001 C 
ATOM     24  C   UNL     1     -34.592  40.856   2.087  0.00  0.00    +0.037 C 
ATOM     25  C   UNL     1     -30.355  40.454   4.825  0.00  0.00    +0.019 C 
BRANCH  20  26
ATOM     26  S   UNL     1     -30.569  42.154   6.942  0.00  0.00    +0.042 S 
ATOM     27  O   UNL     1     -31.652  41.742   8.096  0.00  0.00    -0.065 OA
ATOM     28  O   UNL     1     -29.304  41.530   7.303  0.00  0.00    -0.065 OA
ATOM     29  O   UNL     1     -30.655  43.592   6.735  0.00  0.00    -0.065 OA
ENDBRANCH  20  26
ENDBRANCH   1  18
TORSDOF 4
ENDMDL
MODEL 4
REMARK VINA RESULT:      -7.4     13.000     16.628
REMARK  Name = 193668
REMARK  4 active torsions:
REMARK  status: ('A' for Active; 'I' for Inactive)
REMARK    1  A    between atoms: O_1  and  C_4
REMARK    2  A    between atoms: O_1  and  C_18
REMARK    3  A    between atoms: C_6  and  S_12
REMARK    4  A    between atoms: C_20  and  S_26
REMARK                            x       y       z     vdW  Elec       q    Type
REMARK                         _______ _______ _______ _____ _____    ______ ____
ROOT
ATOM      1  O   UNL     1     -34.210  39.356   0.234  0.00  0.00    -0.453 OA
ENDROOT
BRANCH   1   4
ATOM      2  C   UNL     1     -32.062  40.189   3.094  0.00  0.00    +0.003 C 
ATOM      3  C   UNL     1     -32.886  41.117   3.774  0.00  0.00    +0.001 C 
ATOM      4  C   UNL     1     -33.778  39.931   1.389  0.00  0.00    +0.145 C 
ATOM      5  C   UNL     1     -32.522  39.605   1.903  0.00  0.00    +0.037 C 
ATOM      6  C   UNL     1     -31.170  41.375   5.479  0.00  0.00    +0.112 C 
ATOM      7  C   UNL     1     -32.425  41.701   4.964  0.00  0.00    +0.019 C 
ATOM      8  C   UNL     1     -34.147  41.434   3.242  0.00  0.00    +0.003 C 
ATOM      9  C   UNL     1     -30.801  39.873   3.625  0.00  0.00    +0.001 C 
ATOM     10  C   UNL     1     -34.589  40.843   2.058  0.00  0.00    +0.037 C 
ATOM     11  C   UNL     1     -30.359  40.463   4.810  0.00  0.00    +0.019 C 
BRANCH   6  12
ATOM     12  S   UNL     1     -30.615  42.113   6.962  0.00  0.00    +0.042 S 
ATOM     13  O   UNL     1     -31.710  41.675   8.094  0.00  0.00    -0.065 OA
ATOM     14  O   UNL     1     -29.352  41.489   7.328  0.00  0.00    -0.065 OA
ATOM     15  O   UNL     1     -30.706  43.553   6.779  0.00  0.00    -0.065 OA
ENDBRANCH   6  12
ENDBRANCH   1   4
BRANCH   1  18
ATOM     16  C   UNL     1     -36.515  36.530   0.675  0.00  0.00    +0.003 C 
ATOM     17  C   UNL     1     -35.641  35.444   0.430  0.00  0.00    +0.001 C 
ATOM     18  C   UNL     1     -34.685  38.057   0.299  0.00  0.00    +0.145 C 
ATOM     19  C   UNL     1     -36.018  37.842   0.604  0.00  0.00    +0.037 C 
ATOM     20  C   UNL     1     -37.479  33.896   0.809  0.00  0.00    +0.112 C 
ATOM     21  C   UNL     1     -36.139  34.133   0.501  0.00  0.00    +0.019 C 
ATOM     22  C   UNL     1     -34.295  35.702   0.123  0.00  0.00    +0.003 C 
ATOM     23  C   UNL     1     -37.861  36.273   0.982  0.00  0.00    +0.001 C 
ATOM     24  C   UNL     1     -33.818  37.011   0.058  0.00  0.00    +0.037 C 
ATOM     25  C   UNL     1     -38.339  34.964   1.048  0.00  0.00    +0.019 C 
BRANCH  20  26
ATOM     26  S   UNL     1     -38.079  32.258   0.891  0.00  0.00    +0.042 S 
ATOM     27  O   UNL     1     -37.133  31.508   1.993  0.00  0.00    -0.065 OA
ATOM     28  O   UNL     1     -39.425  32.299   1.444  0.00  0.00    -0.065 OA
ATOM     29  O   UNL     1     -37.829  31.651  -0.408  0.00  0.00    -0.065 OA
ENDBRANCH  20  26
ENDBRANCH   1  18
TORSDOF 4
ENDMDL
MODEL 5
REMARK VINA RESULT:      -7.4     15.004     17.056
REMARK  Name = 193668
REMARK  4 active torsions:
REMARK  status: ('A' for Active; 'I' for Inactive)
REMARK    1  A    between atoms: O_1  and  C_4
REMARK    2  A    between atoms: O_1  and  C_18
REMARK    3  A    between atoms: C_6  and  S_12
REMARK    4  A    between atoms: C_20  and  S_26
REMARK                            x       y       z     vdW  Elec       q    Type
REMARK                         _______ _______ _______ _____ _____    ______ ____
ROOT
ATOM      1  O   UNL     1     -34.706  38.015  -1.059  0.00  0.00    -0.453 OA
ENDROOT
BRANCH   1   4
ATOM      2  C   UNL     1     -33.893  40.140   1.824  0.00  0.00    +0.003 C 
ATOM      3  C   UNL     1     -32.655  39.578   2.218  0.00  0.00    +0.001 C 
ATOM      4  C   UNL     1     -34.036  38.525   0.010  0.00  0.00    +0.145 C 
ATOM      5  C   UNL     1     -34.571  39.602   0.719  0.00  0.00    +0.037 C 
ATOM      6  C   UNL     1     -32.511  41.193   4.031  0.00  0.00    +0.112 C 
ATOM      7  C   UNL     1     -31.977  40.116   3.323  0.00  0.00    +0.019 C 
ATOM      8  C   UNL     1     -32.132  38.494   1.494  0.00  0.00    +0.003 C 
ATOM      9  C   UNL     1     -34.416  41.223   2.548  0.00  0.00    +0.001 C 
ATOM     10  C   UNL     1     -32.819  37.973   0.397  0.00  0.00    +0.037 C 
ATOM     11  C   UNL     1     -33.729  41.745   3.645  0.00  0.00    +0.019 C 
BRANCH   6  12
ATOM     12  S   UNL     1     -31.652  41.848   5.404  0.00  0.00    +0.042 S 
ATOM     13  O   UNL     1     -32.451  41.288   6.716  0.00  0.00    -0.065 OA
ATOM     14  O   UNL     1     -30.324  41.252   5.429  0.00  0.00    -0.065 OA
ATOM     15  O   UNL     1     -31.817  43.292   5.357  0.00  0.00    -0.065 OA
ENDBRANCH   6  12
ENDBRANCH   1   4
BRANCH   1  18
ATOM     16  C   UNL     1     -37.481  36.300   0.631  0.00  0.00    +0.003 C 
ATOM     17  C   UNL     1     -38.472  36.359  -0.377  0.00  0.00    +0.001 C 
ATOM     18  C   UNL     1     -35.957  37.465  -0.832  0.00  0.00    +0.145 C 
ATOM     19  C   UNL     1     -36.218  36.863   0.386  0.00  0.00    +0.037 C 
ATOM     20  C   UNL     1     -40.017  35.184   1.090  0.00  0.00    +0.112 C 
ATOM     21  C   UNL     1     -39.735  35.797  -0.132  0.00  0.00    +0.019 C 
ATOM     22  C   UNL     1     -38.171  36.979  -1.601  0.00  0.00    +0.003 C 
ATOM     23  C   UNL     1     -37.782  35.681   1.855  0.00  0.00    +0.001 C 
ATOM     24  C   UNL     1     -36.910  37.532  -1.827  0.00  0.00    +0.037 C 
ATOM     25  C   UNL     1     -39.042  35.127   2.082  0.00  0.00    +0.019 C 
BRANCH  20  26
ATOM     26  S   UNL     1     -41.594  34.491   1.376  0.00  0.00    +0.042 S 
ATOM     27  O   UNL     1     -41.421  32.892   1.083  0.00  0.00    -0.065 OA
ATOM     28  O   UNL     1     -41.898  34.634   2.793  0.00  0.00    -0.065 OA
ATOM     29  O   UNL     1     -42.487  35.041   0.367  0.00  0.00    -0.065 OA
ENDBRANCH  20  26
ENDBRANCH   1  18
TORSDOF 4
ENDMDL
MODEL 6
REMARK VINA RESULT:      -7.4      1.182      1.861
REMARK  Name = 193668
REMARK  4 active torsions:
REMARK  status: ('A' for Active; 'I' for Inactive)
REMARK    1  A    between atoms: O_1  and  C_4
REMARK    2  A    between atoms: O_1  and  C_18
REMARK    3  A    between atoms: C_6  and  S_12
REMARK    4  A    between atoms: C_20  and  S_26
REMARK                            x       y       z     vdW  Elec       q    Type
REMARK                         _______ _______ _______ _____ _____    ______ ____
ROOT
ATOM      1  O   UNL     1     -37.392  22.590   3.301  0.00  0.00    -0.453 OA
ENDROOT
BRANCH   1   4
ATOM      2  C   UNL     1     -35.148  25.488   3.540  0.00  0.00    +0.003 C 
ATOM      3  C   UNL     1     -34.606  25.288   4.832  0.00  0.00    +0.001 C 
ATOM      4  C   UNL     1     -36.482  23.470   3.801  0.00  0.00    +0.145 C 
ATOM      5  C   UNL     1     -36.085  24.570   3.039  0.00  0.00    +0.037 C 
ATOM      6  C   UNL     1     -33.271  27.305   4.571  0.00  0.00    +0.112 C 
ATOM      7  C   UNL     1     -33.669  26.206   5.332  0.00  0.00    +0.019 C 
ATOM      8  C   UNL     1     -35.018  24.176   5.585  0.00  0.00    +0.003 C 
ATOM      9  C   UNL     1     -34.737  26.599   2.787  0.00  0.00    +0.001 C 
ATOM     10  C   UNL     1     -35.949  23.274   5.071  0.00  0.00    +0.037 C 
ATOM     11  C   UNL     1     -33.805  27.502   3.301  0.00  0.00    +0.019 C 
BRANCH   6  12
ATOM     12  S   UNL     1     -32.104  28.436   5.212  0.00  0.00    +0.042 S 
ATOM     13  O   UNL     1     -32.247  28.325   6.836  0.00  0.00    -0.065 OA
ATOM     14  O   UNL     1     -30.774  27.951   4.868  0.00  0.00    -0.065 OA
ATOM     15  O   UNL     1     -32.536  29.764   4.809  0.00  0.00    -0.065 OA
ENDBRANCH   6  12
ENDBRANCH   1   4
BRANCH   1  18
ATOM     16  C   UNL     1     -35.200  20.101   1.722  0.00  0.00    +0.003 C 
ATOM     17  C   UNL     1     -36.020  19.680   0.648  0.00  0.00    +0.001 C 
ATOM     18  C   UNL     1     -36.937  21.623   2.420  0.00  0.00    +0.145 C 
ATOM     19  C   UNL     1     -35.677  21.081   2.608  0.00  0.00    +0.037 C 
ATOM     20  C   UNL     1     -34.274  18.142  -0.065  0.00  0.00    +0.112 C 
ATOM     21  C   UNL     1     -35.542  18.699  -0.236  0.00  0.00    +0.019 C 
ATOM     22  C   UNL     1     -37.293  20.253   0.490  0.00  0.00    +0.003 C 
ATOM     23  C   UNL     1     -33.927  19.528   1.880  0.00  0.00    +0.001 C 
ATOM     24  C   UNL     1     -37.750  21.226   1.379  0.00  0.00    +0.037 C 
ATOM     25  C   UNL     1     -33.469  18.555   0.992  0.00  0.00    +0.019 C 
BRANCH  20  26
ATOM     26  S   UNL     1     -33.700  16.923  -1.175  0.00  0.00    +0.042 S 
ATOM     27  O   UNL     1     -33.812  15.510  -0.360  0.00  0.00    -0.065 OA
ATOM     28  O   UNL     1     -34.639  16.849  -2.286  0.00  0.00    -0.065 OA
ATOM     29  O   UNL     1     -32.291  17.197  -1.413  0.00  0.00    -0.065 OA
ENDBRANCH  20  26
ENDBRANCH   1  18
TORSDOF 4
ENDMDL
MODEL 7
REMARK VINA RESULT:      -7.3     15.090     18.676
REMARK  Name = 193668
REMARK  4 active torsions:
REMARK  status: ('A' for Active; 'I' for Inactive)
REMARK    1  A    between atoms: O_1  and  C_4
REMARK    2  A    between atoms: O_1  and  C_18
REMARK    3  A    between atoms: C_6  and  S_12
REMARK    4  A    between atoms: C_20  and  S_26
REMARK                            x       y       z     vdW  Elec       q    Type
REMARK                         _______ _______ _______ _____ _____    ______ ____
ROOT
ATOM      1  O   UNL     1     -34.699  38.170  -1.123  0.00  0.00    -0.453 OA
ENDROOT
BRANCH   1   4
ATOM      2  C   UNL     1     -37.453  36.421   0.564  0.00  0.00    +0.003 C 
ATOM      3  C   UNL     1     -38.407  36.374  -0.481  0.00  0.00    +0.001 C 
ATOM      4  C   UNL     1     -35.909  37.583  -0.914  0.00  0.00    +0.145 C 
ATOM      5  C   UNL     1     -36.209  37.029   0.331  0.00  0.00    +0.037 C 
ATOM      6  C   UNL     1     -39.951  35.211   0.996  0.00  0.00    +0.112 C 
ATOM      7  C   UNL     1     -39.650  35.765  -0.249  0.00  0.00    +0.019 C 
ATOM      8  C   UNL     1     -38.087  36.936  -1.728  0.00  0.00    +0.003 C 
ATOM      9  C   UNL     1     -37.772  35.859   1.810  0.00  0.00    +0.001 C 
ATOM     10  C   UNL     1     -36.846  37.536  -1.941  0.00  0.00    +0.037 C 
ATOM     11  C   UNL     1     -39.014  35.258   2.024  0.00  0.00    +0.019 C 
BRANCH   6  12
ATOM     12  S   UNL     1     -41.504  34.458   1.265  0.00  0.00    +0.042 S 
ATOM     13  O   UNL     1     -41.819  34.682   2.854  0.00  0.00    -0.065 OA
ATOM     14  O   UNL     1     -42.503  35.214   0.523  0.00  0.00    -0.065 OA
ATOM     15  O   UNL     1     -41.330  33.033   1.035  0.00  0.00    -0.065 OA
ENDBRANCH   6  12
ENDBRANCH   1   4
BRANCH   1  18
ATOM     16  C   UNL     1     -33.871  40.204   1.822  0.00  0.00    +0.003 C 
ATOM     17  C   UNL     1     -32.643  39.614   2.205  0.00  0.00    +0.001 C 
ATOM     18  C   UNL     1     -34.016  38.649  -0.017  0.00  0.00    +0.145 C 
ATOM     19  C   UNL     1     -34.551  39.706   0.699  0.00  0.00    +0.037 C 
ATOM     20  C   UNL     1     -32.486  41.179   4.062  0.00  0.00    +0.112 C 
ATOM     21  C   UNL     1     -31.963  40.113   3.329  0.00  0.00    +0.019 C 
ATOM     22  C   UNL     1     -32.131  38.543   1.454  0.00  0.00    +0.003 C 
ATOM     23  C   UNL     1     -34.383  41.275   2.573  0.00  0.00    +0.001 C 
ATOM     24  C   UNL     1     -32.820  38.062   0.341  0.00  0.00    +0.037 C 
ATOM     25  C   UNL     1     -33.694  41.758   3.686  0.00  0.00    +0.019 C 
BRANCH  20  26
ATOM     26  S   UNL     1     -31.626  41.783   5.456  0.00  0.00    +0.042 S 
ATOM     27  O   UNL     1     -32.474  41.253   6.749  0.00  0.00    -0.065 OA
ATOM     28  O   UNL     1     -30.327  41.127   5.502  0.00  0.00    -0.065 OA
ATOM     29  O   UNL     1     -31.722  43.234   5.417  0.00  0.00    -0.065 OA
ENDBRANCH  20  26
ENDBRANCH   1  18
TORSDOF 4
ENDMDL
MODEL 8
REMARK VINA RESULT:      -7.3      1.309      9.553
REMARK  Name = 193668
REMARK  4 active torsions:
REMARK  status: ('A' for Active; 'I' for Inactive)
REMARK    1  A    between atoms: O_1  and  C_4
REMARK    2  A    between atoms: O_1  and  C_18
REMARK    3  A    between atoms: C_6  and  S_12
REMARK    4  A    between atoms: C_20  and  S_26
REMARK                            x       y       z     vdW  Elec       q    Type
REMARK                         _______ _______ _______ _____ _____    ______ ____
ROOT
ATOM      1  O   UNL     1     -37.384  22.854   3.406  0.00  0.00    -0.453 OA
ENDROOT
BRANCH   1   4
ATOM      2  C   UNL     1     -35.320  20.278   1.795  0.00  0.00    +0.003 C 
ATOM      3  C   UNL     1     -36.189  19.862   0.759  0.00  0.00    +0.001 C 
ATOM      4  C   UNL     1     -36.994  21.878   2.541  0.00  0.00    +0.145 C 
ATOM      5  C   UNL     1     -35.738  21.287   2.678  0.00  0.00    +0.037 C 
ATOM      6  C   UNL     1     -34.516  18.263   0.012  0.00  0.00    +0.112 C 
ATOM      7  C   UNL     1     -35.772  18.853  -0.124  0.00  0.00    +0.019 C 
ATOM      8  C   UNL     1     -37.451  20.468   0.636  0.00  0.00    +0.003 C 
ATOM      9  C   UNL     1     -34.059  19.672   1.918  0.00  0.00    +0.001 C 
ATOM     10  C   UNL     1     -37.848  21.470   1.522  0.00  0.00    +0.037 C 
ATOM     11  C   UNL     1     -33.661  18.671   1.032  0.00  0.00    +0.019 C 
BRANCH   6  12
ATOM     12  S   UNL     1     -34.015  17.009  -1.097  0.00  0.00    +0.042 S 
ATOM     13  O   UNL     1     -33.558  15.757  -0.150  0.00  0.00    -0.065 OA
ATOM     14  O   UNL     1     -35.188  16.574  -1.841  0.00  0.00    -0.065 OA
ATOM     15  O   UNL     1     -32.837  17.504  -1.791  0.00  0.00    -0.065 OA
ENDBRANCH   6  12
ENDBRANCH   1   4
BRANCH   1  18
ATOM     16  C   UNL     1     -35.011  25.658   3.473  0.00  0.00    +0.003 C 
ATOM     17  C   UNL     1     -34.472  25.508   4.773  0.00  0.00    +0.001 C 
ATOM     18  C   UNL     1     -36.417  23.736   3.860  0.00  0.00    +0.145 C 
ATOM     19  C   UNL     1     -35.991  24.756   3.028  0.00  0.00    +0.037 C 
ATOM     20  C   UNL     1     -33.049  27.444   4.392  0.00  0.00    +0.112 C 
ATOM     21  C   UNL     1     -33.492  26.410   5.218  0.00  0.00    +0.019 C 
ATOM     22  C   UNL     1     -34.929  24.460   5.589  0.00  0.00    +0.003 C 
ATOM     23  C   UNL     1     -34.554  26.705   2.656  0.00  0.00    +0.001 C 
ATOM     24  C   UNL     1     -35.903  23.574   5.130  0.00  0.00    +0.037 C 
ATOM     25  C   UNL     1     -33.580  27.592   3.114  0.00  0.00    +0.019 C 
BRANCH  20  26
ATOM     26  S   UNL     1     -31.830  28.556   4.965  0.00  0.00    +0.042 S 
ATOM     27  O   UNL     1     -31.107  27.794   6.218  0.00  0.00    -0.065 OA
ATOM     28  O   UNL     1     -30.827  28.701   3.919  0.00  0.00    -0.065 OA
ATOM     29  O   UNL     1     -32.530  29.720   5.487  0.00  0.00    -0.065 OA
ENDBRANCH  20  26
ENDBRANCH   1  18
TORSDOF 4
ENDMDL
MODEL 9
REMARK VINA RESULT:      -7.3      2.219      9.843
REMARK  Name = 193668
REMARK  4 active torsions:
REMARK  status: ('A' for Active; 'I' for Inactive)
REMARK    1  A    between atoms: O_1  and  C_4
REMARK    2  A    between atoms: O_1  and  C_18
REMARK    3  A    between atoms: C_6  and  S_12
REMARK    4  A    between atoms: C_20  and  S_26
REMARK                            x       y       z     vdW  Elec       q    Type
REMARK                         _______ _______ _______ _____ _____    ______ ____
ROOT
ATOM      1  O   UNL     1     -36.950  24.332   4.492  0.00  0.00    -0.453 OA
ENDROOT
BRANCH   1   4
ATOM      2  C   UNL     1     -35.891  21.451   2.475  0.00  0.00    +0.003 C 
ATOM      3  C   UNL     1     -37.026  21.288   1.645  0.00  0.00    +0.001 C 
ATOM      4  C   UNL     1     -36.975  23.339   3.562  0.00  0.00    +0.145 C 
ATOM      5  C   UNL     1     -35.882  22.482   3.429  0.00  0.00    +0.037 C 
ATOM      6  C   UNL     1     -35.942  19.400   0.557  0.00  0.00    +0.112 C 
ATOM      7  C   UNL     1     -37.035  20.257   0.691  0.00  0.00    +0.019 C 
ATOM      8  C   UNL     1     -38.117  22.159   1.793  0.00  0.00    +0.003 C 
ATOM      9  C   UNL     1     -34.801  20.580   2.328  0.00  0.00    +0.001 C 
ATOM     10  C   UNL     1     -38.090  23.178   2.746  0.00  0.00    +0.037 C 
ATOM     11  C   UNL     1     -34.827  19.561   1.374  0.00  0.00    +0.019 C 
BRANCH   6  12
ATOM     12  S   UNL     1     -35.973  18.125  -0.636  0.00  0.00    +0.042 S 
ATOM     13  O   UNL     1     -34.681  17.185  -0.292  0.00  0.00    -0.065 OA
ATOM     14  O   UNL     1     -37.161  17.317  -0.398  0.00  0.00    -0.065 OA
ATOM     15  O   UNL     1     -35.747  18.749  -1.929  0.00  0.00    -0.065 OA
ENDBRANCH   6  12
ENDBRANCH   1   4
BRANCH   1  18
ATOM     16  C   UNL     1     -34.093  26.407   5.505  0.00  0.00    +0.003 C 
ATOM     17  C   UNL     1     -33.834  27.097   4.296  0.00  0.00    +0.001 C 
ATOM     18  C   UNL     1     -35.915  25.250   4.427  0.00  0.00    +0.145 C 
ATOM     19  C   UNL     1     -35.145  25.478   5.554  0.00  0.00    +0.037 C 
ATOM     20  C   UNL     1     -31.995  28.269   5.374  0.00  0.00    +0.112 C 
ATOM     21  C   UNL     1     -32.781  28.025   4.248  0.00  0.00    +0.019 C 
ATOM     22  C   UNL     1     -34.637  26.839   3.173  0.00  0.00    +0.003 C 
ATOM     23  C   UNL     1     -33.290  26.665   6.628  0.00  0.00    +0.001 C 
ATOM     24  C   UNL     1     -35.679  25.914   3.241  0.00  0.00    +0.037 C 
ATOM     25  C   UNL     1     -32.248  27.590   6.562  0.00  0.00    +0.019 C 
BRANCH  20  26
ATOM     26  S   UNL     1     -30.690  29.427   5.292  0.00  0.00    +0.042 S 
ATOM     27  O   UNL     1     -31.394  30.886   5.510  0.00  0.00    -0.065 OA
ATOM     28  O   UNL     1     -29.817  29.201   6.435  0.00  0.00    -0.065 OA
ATOM     29  O   UNL     1     -30.164  29.377   3.936  0.00  0.00    -0.065 OA
ENDBRANCH  20  26
ENDBRANCH   1  18
TORSDOF 4
ENDMDL
