MODEL 1
REMARK VINA RESULT:      -7.0      0.000      0.000
REMARK  Name = 189187
REMARK  4 active torsions:
REMARK  status: ('A' for Active; 'I' for Inactive)
REMARK    1  A    between atoms: N_1  and  C_18
REMARK    2  A    between atoms: P_10  and  O_20
REMARK    3  A    between atoms: C_24  and  C_26
REMARK    4  A    between atoms: C_26  and  C_27
REMARK                            x       y       z     vdW  Elec       q    Type
REMARK                         _______ _______ _______ _____ _____    ______ ____
ROOT
ATOM      1  N   UNL     1     -36.350  23.033   3.683  0.00  0.00    -0.249 N 
ATOM      2  N   UNL     1     -35.658  21.233   2.564  0.00  0.00    -0.242 NA
ATOM      3  N   UNL     1     -38.613  23.217   2.817  0.00  0.00    -0.228 NA
ATOM      4  N   UNL     1     -39.091  21.450   1.202  0.00  0.00    -0.228 NA
ATOM      5  C   UNL     1     -37.403  22.644   2.903  0.00  0.00    +0.152 C 
ATOM      6  C   UNL     1     -35.326  22.155   3.443  0.00  0.00    +0.223 C 
ATOM      7  C   UNL     1     -36.953  21.526   2.218  0.00  0.00    +0.140 C 
ATOM      8  C   UNL     1     -37.850  20.924   1.340  0.00  0.00    +0.152 C 
ATOM      9  C   UNL     1     -39.391  22.548   1.939  0.00  0.00    +0.253 C 
ATOM     10  O   UNL     1     -39.398  19.291  -0.646  0.00  0.00    -0.275 OA
ATOM     11  N   UNL     1     -37.474  19.795   0.611  0.00  0.00    -0.268 N 
ATOM     12  C   UNL     1     -38.239  19.063  -0.311  0.00  0.00    +0.227 C 
ATOM     13  H   UNL     1     -36.556  19.471   0.762  0.00  0.00    +0.156 HD
ENDROOT
BRANCH   1  22
ATOM     14  P   UNL     1     -32.751  27.456   4.696  0.00  0.00    +0.476 P 
ATOM     15  O   UNL     1     -36.467  25.403   3.850  0.00  0.00    -0.335 OA
ATOM     16  O   UNL     1     -33.353  26.130   5.430  0.00  0.00    -0.273 OA
ATOM     17  O   UNL     1     -34.043  28.179   4.023  0.00  0.00    -0.271 OA
ATOM     18  O   UNL     1     -31.929  28.337   5.590  0.00  0.00    -0.227 OA
ATOM     19  C   UNL     1     -34.295  25.397   4.679  0.00  0.00    +0.160 C 
ATOM     20  C   UNL     1     -35.468  26.292   4.340  0.00  0.00    +0.175 C 
ATOM     21  C   UNL     1     -35.004  24.278   5.400  0.00  0.00    +0.084 C 
ATOM     22  C   UNL     1     -36.311  24.171   4.601  0.00  0.00    +0.197 C 
ATOM     23  C   UNL     1     -35.037  27.380   3.377  0.00  0.00    +0.186 C 
BRANCH  14  24
ATOM     24  O   UNL     1     -31.940  26.858   3.429  0.00  0.00    -0.302 OA
ATOM     25  H   UNL     1     -31.129  26.425   3.740  0.00  0.00    +0.222 HD
ENDBRANCH  14  24
ENDBRANCH   1  22
BRANCH  12  26
ATOM     26  C   UNL     1     -37.454  17.879  -0.862  0.00  0.00    +0.085 C 
BRANCH  26  27
ATOM     27  C   UNL     1     -37.645  16.587  -0.069  0.00  0.00    +0.010 C 
ATOM     28  C   UNL     1     -38.819  15.760  -0.574  0.00  0.00    +0.001 C 
ENDBRANCH  26  27
ENDBRANCH  12  26
TORSDOF 4
ENDMDL
MODEL 2
REMARK VINA RESULT:      -6.4      4.319      8.957
REMARK  Name = 189187
REMARK  4 active torsions:
REMARK  status: ('A' for Active; 'I' for Inactive)
REMARK    1  A    between atoms: N_1  and  C_18
REMARK    2  A    between atoms: P_10  and  O_20
REMARK    3  A    between atoms: C_24  and  C_26
REMARK    4  A    between atoms: C_26  and  C_27
REMARK                            x       y       z     vdW  Elec       q    Type
REMARK                         _______ _______ _______ _____ _____    ______ ____
ROOT
ATOM      1  N   UNL     1     -36.436  26.672   1.750  0.00  0.00    -0.249 N 
ATOM      2  N   UNL     1     -34.552  27.774   2.207  0.00  0.00    -0.242 NA
ATOM      3  N   UNL     1     -36.809  25.582   3.890  0.00  0.00    -0.228 NA
ATOM      4  N   UNL     1     -35.057  26.149   5.491  0.00  0.00    -0.228 NA
ATOM      5  C   UNL     1     -36.128  26.375   3.048  0.00  0.00    +0.152 C 
ATOM      6  C   UNL     1     -35.459  27.515   1.288  0.00  0.00    +0.223 C 
ATOM      7  C   UNL     1     -34.957  27.068   3.312  0.00  0.00    +0.140 C 
ATOM      8  C   UNL     1     -34.421  26.934   4.588  0.00  0.00    +0.152 C 
ATOM      9  C   UNL     1     -36.195  25.531   5.091  0.00  0.00    +0.253 C 
ATOM     10  O   UNL     1     -32.893  26.965   7.172  0.00  0.00    -0.275 OA
ATOM     11  N   UNL     1     -33.243  27.599   4.933  0.00  0.00    -0.268 N 
ATOM     12  C   UNL     1     -32.564  27.581   6.162  0.00  0.00    +0.227 C 
ATOM     13  H   UNL     1     -32.837  28.150   4.225  0.00  0.00    +0.156 HD
ENDROOT
BRANCH   1  22
ATOM     14  P   UNL     1     -39.250  21.641   1.196  0.00  0.00    +0.476 P 
ATOM     15  O   UNL     1     -38.671  25.872   1.897  0.00  0.00    -0.335 OA
ATOM     16  O   UNL     1     -38.364  22.690   0.317  0.00  0.00    -0.273 OA
ATOM     17  O   UNL     1     -40.313  22.570   2.002  0.00  0.00    -0.271 OA
ATOM     18  O   UNL     1     -39.863  20.529   0.395  0.00  0.00    -0.227 OA
ATOM     19  C   UNL     1     -37.951  23.853   0.999  0.00  0.00    +0.160 C 
ATOM     20  C   UNL     1     -39.171  24.601   1.493  0.00  0.00    +0.175 C 
ATOM     21  C   UNL     1     -37.292  24.922   0.164  0.00  0.00    +0.084 C 
ATOM     22  C   UNL     1     -37.585  26.186   0.987  0.00  0.00    +0.197 C 
ATOM     23  C   UNL     1     -39.873  23.804   2.574  0.00  0.00    +0.186 C 
BRANCH  14  24
ATOM     24  O   UNL     1     -38.224  21.140   2.345  0.00  0.00    -0.302 OA
ATOM     25  H   UNL     1     -38.570  21.390   3.217  0.00  0.00    +0.222 HD
ENDBRANCH  14  24
ENDBRANCH   1  22
BRANCH  12  26
ATOM     26  C   UNL     1     -31.329  28.472   6.122  0.00  0.00    +0.085 C 
BRANCH  26  27
ATOM     27  C   UNL     1     -31.598  29.922   6.524  0.00  0.00    +0.010 C 
ATOM     28  C   UNL     1     -31.330  30.901   5.389  0.00  0.00    +0.001 C 
ENDBRANCH  26  27
ENDBRANCH  12  26
TORSDOF 4
ENDMDL
MODEL 3
REMARK VINA RESULT:      -6.4      3.963      6.218
REMARK  Name = 189187
REMARK  4 active torsions:
REMARK  status: ('A' for Active; 'I' for Inactive)
REMARK    1  A    between atoms: N_1  and  C_18
REMARK    2  A    between atoms: P_10  and  O_20
REMARK    3  A    between atoms: C_24  and  C_26
REMARK    4  A    between atoms: C_26  and  C_27
REMARK                            x       y       z     vdW  Elec       q    Type
REMARK                         _______ _______ _______ _____ _____    ______ ____
ROOT
ATOM      1  N   UNL     1     -32.406  27.875   3.610  0.00  0.00    -0.249 N 
ATOM      2  N   UNL     1     -32.988  26.234   2.217  0.00  0.00    -0.242 NA
ATOM      3  N   UNL     1     -33.530  27.126   5.630  0.00  0.00    -0.228 NA
ATOM      4  N   UNL     1     -34.725  25.031   5.254  0.00  0.00    -0.228 NA
ATOM      5  C   UNL     1     -33.180  27.017   4.339  0.00  0.00    +0.152 C 
ATOM      6  C   UNL     1     -32.321  27.362   2.342  0.00  0.00    +0.223 C 
ATOM      7  C   UNL     1     -33.531  26.006   3.457  0.00  0.00    +0.140 C 
ATOM      8  C   UNL     1     -34.334  24.987   3.957  0.00  0.00    +0.152 C 
ATOM      9  C   UNL     1     -34.305  26.083   5.999  0.00  0.00    +0.253 C 
ATOM     10  O   UNL     1     -36.037  22.588   4.557  0.00  0.00    -0.275 OA
ATOM     11  N   UNL     1     -34.733  23.933   3.133  0.00  0.00    -0.268 N 
ATOM     12  C   UNL     1     -35.535  22.828   3.464  0.00  0.00    +0.227 C 
ATOM     13  H   UNL     1     -34.412  23.969   2.203  0.00  0.00    +0.156 HD
ENDROOT
BRANCH   1  22
ATOM     14  P   UNL     1     -28.337  29.279   7.485  0.00  0.00    +0.476 P 
ATOM     15  O   UNL     1     -30.390  29.135   3.677  0.00  0.00    -0.335 OA
ATOM     16  O   UNL     1     -29.927  29.498   7.194  0.00  0.00    -0.273 OA
ATOM     17  O   UNL     1     -27.611  29.582   6.062  0.00  0.00    -0.271 OA
ATOM     18  O   UNL     1     -27.807  30.070   8.645  0.00  0.00    -0.227 OA
ATOM     19  C   UNL     1     -30.405  28.936   5.992  0.00  0.00    +0.160 C 
ATOM     20  C   UNL     1     -29.650  29.537   4.826  0.00  0.00    +0.175 C 
ATOM     21  C   UNL     1     -31.822  29.280   5.609  0.00  0.00    +0.084 C 
ATOM     22  C   UNL     1     -31.782  29.111   4.082  0.00  0.00    +0.197 C 
ATOM     23  C   UNL     1     -28.201  29.094   4.855  0.00  0.00    +0.186 C 
BRANCH  14  24
ATOM     24  O   UNL     1     -28.195  27.675   7.657  0.00  0.00    -0.302 OA
ATOM     25  H   UNL     1     -28.298  27.247   6.793  0.00  0.00    +0.222 HD
ENDBRANCH  14  24
ENDBRANCH   1  22
BRANCH  12  26
ATOM     26  C   UNL     1     -35.703  21.894   2.272  0.00  0.00    +0.085 C 
BRANCH  26  27
ATOM     27  C   UNL     1     -35.377  20.433   2.579  0.00  0.00    +0.010 C 
ATOM     28  C   UNL     1     -34.360  19.846   1.609  0.00  0.00    +0.001 C 
ENDBRANCH  26  27
ENDBRANCH  12  26
TORSDOF 4
ENDMDL
MODEL 4
REMARK VINA RESULT:      -6.4      2.666      3.722
REMARK  Name = 189187
REMARK  4 active torsions:
REMARK  status: ('A' for Active; 'I' for Inactive)
REMARK    1  A    between atoms: N_1  and  C_18
REMARK    2  A    between atoms: P_10  and  O_20
REMARK    3  A    between atoms: C_24  and  C_26
REMARK    4  A    between atoms: C_26  and  C_27
REMARK                            x       y       z     vdW  Elec       q    Type
REMARK                         _______ _______ _______ _____ _____    ______ ____
ROOT
ATOM      1  N   UNL     1     -37.756  22.691   2.669  0.00  0.00    -0.249 N 
ATOM      2  N   UNL     1     -39.807  23.280   2.020  0.00  0.00    -0.242 NA
ATOM      3  N   UNL     1     -37.429  20.725   1.280  0.00  0.00    -0.228 NA
ATOM      4  N   UNL     1     -39.377  20.297  -0.126  0.00  0.00    -0.228 NA
ATOM      5  C   UNL     1     -38.135  21.773   1.730  0.00  0.00    +0.152 C 
ATOM      6  C   UNL     1     -38.795  23.574   2.809  0.00  0.00    +0.223 C 
ATOM      7  C   UNL     1     -39.409  22.156   1.340  0.00  0.00    +0.140 C 
ATOM      8  C   UNL     1     -40.032  21.372   0.375  0.00  0.00    +0.152 C 
ATOM      9  C   UNL     1     -38.134  20.044   0.351  0.00  0.00    +0.253 C 
ATOM     10  O   UNL     1     -41.774  20.015  -1.659  0.00  0.00    -0.275 OA
ATOM     11  N   UNL     1     -41.316  21.690  -0.070  0.00  0.00    -0.268 N 
ATOM     12  C   UNL     1     -42.093  21.019  -1.030  0.00  0.00    +0.227 C 
ATOM     13  H   UNL     1     -41.730  22.484   0.340  0.00  0.00    +0.156 HD
ENDROOT
BRANCH   1  22
ATOM     14  P   UNL     1     -33.987  26.791   4.256  0.00  0.00    +0.476 P 
ATOM     15  O   UNL     1     -36.675  23.423   4.657  0.00  0.00    -0.335 OA
ATOM     16  O   UNL     1     -34.080  25.465   3.311  0.00  0.00    -0.273 OA
ATOM     17  O   UNL     1     -34.658  26.342   5.667  0.00  0.00    -0.271 OA
ATOM     18  O   UNL     1     -32.608  27.372   4.370  0.00  0.00    -0.227 OA
ATOM     19  C   UNL     1     -35.311  24.778   3.353  0.00  0.00    +0.160 C 
ATOM     20  C   UNL     1     -35.588  24.336   4.773  0.00  0.00    +0.175 C 
ATOM     21  C   UNL     1     -35.362  23.452   2.637  0.00  0.00    +0.084 C 
ATOM     22  C   UNL     1     -36.487  22.732   3.396  0.00  0.00    +0.197 C 
ATOM     23  C   UNL     1     -35.841  25.540   5.657  0.00  0.00    +0.186 C 
BRANCH  14  24
ATOM     24  O   UNL     1     -35.079  27.799   3.612  0.00  0.00    -0.302 OA
ATOM     25  H   UNL     1     -35.491  28.322   4.318  0.00  0.00    +0.222 HD
ENDBRANCH  14  24
ENDBRANCH   1  22
BRANCH  12  26
ATOM     26  C   UNL     1     -43.431  21.718  -1.241  0.00  0.00    +0.085 C 
BRANCH  26  27
ATOM     27  C   UNL     1     -44.618  20.763  -1.353  0.00  0.00    +0.010 C 
ATOM     28  C   UNL     1     -44.979  20.123  -0.019  0.00  0.00    +0.001 C 
ENDBRANCH  26  27
ENDBRANCH  12  26
TORSDOF 4
ENDMDL
MODEL 5
REMARK VINA RESULT:      -6.3      3.632      9.104
REMARK  Name = 189187
REMARK  4 active torsions:
REMARK  status: ('A' for Active; 'I' for Inactive)
REMARK    1  A    between atoms: N_1  and  C_18
REMARK    2  A    between atoms: P_10  and  O_20
REMARK    3  A    between atoms: C_24  and  C_26
REMARK    4  A    between atoms: C_26  and  C_27
REMARK                            x       y       z     vdW  Elec       q    Type
REMARK                         _______ _______ _______ _____ _____    ______ ____
ROOT
ATOM      1  N   UNL     1     -37.933  25.198   3.114  0.00  0.00    -0.249 N 
ATOM      2  N   UNL     1     -36.650  26.882   2.413  0.00  0.00    -0.242 NA
ATOM      3  N   UNL     1     -36.575  24.380   4.956  0.00  0.00    -0.228 NA
ATOM      4  N   UNL     1     -34.532  25.693   5.203  0.00  0.00    -0.228 NA
ATOM      5  C   UNL     1     -36.839  25.208   3.934  0.00  0.00    +0.152 C 
ATOM      6  C   UNL     1     -37.772  26.221   2.217  0.00  0.00    +0.223 C 
ATOM      7  C   UNL     1     -36.057  26.260   3.482  0.00  0.00    +0.140 C 
ATOM      8  C   UNL     1     -34.863  26.490   4.159  0.00  0.00    +0.152 C 
ATOM      9  C   UNL     1     -35.397  24.701   5.532  0.00  0.00    +0.253 C 
ATOM     10  O   UNL     1     -32.223  27.377   5.279  0.00  0.00    -0.275 OA
ATOM     11  N   UNL     1     -34.018  27.529   3.765  0.00  0.00    -0.268 N 
ATOM     12  C   UNL     1     -32.786  27.905   4.325  0.00  0.00    +0.227 C 
ATOM     13  H   UNL     1     -34.323  28.065   2.998  0.00  0.00    +0.156 HD
ENDROOT
BRANCH   1  22
ATOM     14  P   UNL     1     -40.788  21.855  -0.655  0.00  0.00    +0.476 P 
ATOM     15  O   UNL     1     -38.599  22.923   2.923  0.00  0.00    -0.335 OA
ATOM     16  O   UNL     1     -41.028  23.139   0.321  0.00  0.00    -0.273 OA
ATOM     17  O   UNL     1     -39.996  20.776   0.268  0.00  0.00    -0.271 OA
ATOM     18  O   UNL     1     -42.035  21.333  -1.307  0.00  0.00    -0.227 OA
ATOM     19  C   UNL     1     -39.920  23.519   1.105  0.00  0.00    +0.160 C 
ATOM     20  C   UNL     1     -39.511  22.357   1.986  0.00  0.00    +0.175 C 
ATOM     21  C   UNL     1     -40.168  24.580   2.148  0.00  0.00    +0.084 C 
ATOM     22  C   UNL     1     -39.065  24.274   3.173  0.00  0.00    +0.197 C 
ATOM     23  C   UNL     1     -38.958  21.227   1.141  0.00  0.00    +0.186 C 
BRANCH  14  24
ATOM     24  O   UNL     1     -39.662  22.371  -1.699  0.00  0.00    -0.302 OA
ATOM     25  H   UNL     1     -39.750  21.885  -2.534  0.00  0.00    +0.222 HD
ENDBRANCH  14  24
ENDBRANCH   1  22
BRANCH  12  26
ATOM     26  C   UNL     1     -32.202  29.116   3.609  0.00  0.00    +0.085 C 
BRANCH  26  27
ATOM     27  C   UNL     1     -32.610  30.455   4.222  0.00  0.00    +0.010 C 
ATOM     28  C   UNL     1     -31.931  30.716   5.559  0.00  0.00    +0.001 C 
ENDBRANCH  26  27
ENDBRANCH  12  26
TORSDOF 4
ENDMDL
MODEL 6
REMARK VINA RESULT:      -6.2      3.020      4.466
REMARK  Name = 189187
REMARK  4 active torsions:
REMARK  status: ('A' for Active; 'I' for Inactive)
REMARK    1  A    between atoms: N_1  and  C_18
REMARK    2  A    between atoms: P_10  and  O_20
REMARK    3  A    between atoms: C_24  and  C_26
REMARK    4  A    between atoms: C_26  and  C_27
REMARK                            x       y       z     vdW  Elec       q    Type
REMARK                         _______ _______ _______ _____ _____    ______ ____
ROOT
ATOM      1  N   UNL     1     -37.848  22.864   2.752  0.00  0.00    -0.249 N 
ATOM      2  N   UNL     1     -39.527  22.140   1.475  0.00  0.00    -0.242 NA
ATOM      3  N   UNL     1     -38.607  25.129   3.193  0.00  0.00    -0.228 NA
ATOM      4  N   UNL     1     -40.746  25.576   2.105  0.00  0.00    -0.228 NA
ATOM      5  C   UNL     1     -38.722  23.909   2.646  0.00  0.00    +0.152 C 
ATOM      6  C   UNL     1     -38.375  21.825   2.030  0.00  0.00    +0.223 C 
ATOM      7  C   UNL     1     -39.756  23.440   1.851  0.00  0.00    +0.140 C 
ATOM      8  C   UNL     1     -40.795  24.326   1.585  0.00  0.00    +0.152 C 
ATOM      9  C   UNL     1     -39.670  25.895   2.866  0.00  0.00    +0.253 C 
ATOM     10  O   UNL     1     -43.241  25.844   0.736  0.00  0.00    -0.275 OA
ATOM     11  N   UNL     1     -41.872  23.931   0.791  0.00  0.00    -0.268 N 
ATOM     12  C   UNL     1     -42.999  24.683   0.420  0.00  0.00    +0.227 C 
ATOM     13  H   UNL     1     -41.838  23.009   0.446  0.00  0.00    +0.156 HD
ENDROOT
BRANCH   1  22
ATOM     14  P   UNL     1     -33.881  26.778   4.327  0.00  0.00    +0.476 P 
ATOM     15  O   UNL     1     -36.747  23.561   4.741  0.00  0.00    -0.335 OA
ATOM     16  O   UNL     1     -34.036  25.447   3.397  0.00  0.00    -0.273 OA
ATOM     17  O   UNL     1     -34.587  26.381   5.737  0.00  0.00    -0.271 OA
ATOM     18  O   UNL     1     -32.474  27.287   4.447  0.00  0.00    -0.227 OA
ATOM     19  C   UNL     1     -35.301  24.827   3.434  0.00  0.00    +0.160 C 
ATOM     20  C   UNL     1     -35.614  24.416   4.857  0.00  0.00    +0.175 C 
ATOM     21  C   UNL     1     -35.417  23.496   2.733  0.00  0.00    +0.084 C 
ATOM     22  C   UNL     1     -36.585  22.846   3.490  0.00  0.00    +0.197 C 
ATOM     23  C   UNL     1     -35.811  25.643   5.725  0.00  0.00    +0.186 C 
BRANCH  14  24
ATOM     24  O   UNL     1     -34.912  27.834   3.662  0.00  0.00    -0.302 OA
ATOM     25  H   UNL     1     -34.413  28.529   3.205  0.00  0.00    +0.222 HD
ENDBRANCH  14  24
ENDBRANCH   1  22
BRANCH  12  26
ATOM     26  C   UNL     1     -43.955  23.860  -0.434  0.00  0.00    +0.085 C 
BRANCH  26  27
ATOM     27  C   UNL     1     -43.278  22.728  -1.206  0.00  0.00    +0.010 C 
ATOM     28  C   UNL     1     -43.966  21.386  -0.998  0.00  0.00    +0.001 C 
ENDBRANCH  26  27
ENDBRANCH  12  26
TORSDOF 4
ENDMDL
MODEL 7
REMARK VINA RESULT:      -6.2      4.386      9.688
REMARK  Name = 189187
REMARK  4 active torsions:
REMARK  status: ('A' for Active; 'I' for Inactive)
REMARK    1  A    between atoms: N_1  and  C_18
REMARK    2  A    between atoms: P_10  and  O_20
REMARK    3  A    between atoms: C_24  and  C_26
REMARK    4  A    between atoms: C_26  and  C_27
REMARK                            x       y       z     vdW  Elec       q    Type
REMARK                         _______ _______ _______ _____ _____    ______ ____
ROOT
ATOM      1  N   UNL     1     -34.415  25.793   4.255  0.00  0.00    -0.249 N 
ATOM      2  N   UNL     1     -33.635  27.412   2.934  0.00  0.00    -0.242 NA
ATOM      3  N   UNL     1     -33.379  26.436   6.356  0.00  0.00    -0.228 NA
ATOM      4  N   UNL     1     -32.025  28.451   6.098  0.00  0.00    -0.228 NA
ATOM      5  C   UNL     1     -33.635  26.587   5.048  0.00  0.00    +0.152 C 
ATOM      6  C   UNL     1     -34.383  26.330   2.994  0.00  0.00    +0.223 C 
ATOM      7  C   UNL     1     -33.161  27.584   4.210  0.00  0.00    +0.140 C 
ATOM      8  C   UNL     1     -32.326  28.540   4.780  0.00  0.00    +0.152 C 
ATOM      9  C   UNL     1     -32.563  27.418   6.794  0.00  0.00    +0.253 C 
ATOM     10  O   UNL     1     -30.512  30.810   5.534  0.00  0.00    -0.275 OA
ATOM     11  N   UNL     1     -31.806  29.576   4.004  0.00  0.00    -0.268 N 
ATOM     12  C   UNL     1     -30.956  30.620   4.406  0.00  0.00    +0.227 C 
ATOM     13  H   UNL     1     -32.067  29.576   3.054  0.00  0.00    +0.156 HD
ENDROOT
BRANCH   1  22
ATOM     14  P   UNL     1     -38.743  22.613   2.089  0.00  0.00    +0.476 P 
ATOM     15  O   UNL     1     -34.848  23.510   3.748  0.00  0.00    -0.335 OA
ATOM     16  O   UNL     1     -38.394  23.553   3.375  0.00  0.00    -0.273 OA
ATOM     17  O   UNL     1     -37.452  21.637   1.927  0.00  0.00    -0.271 OA
ATOM     18  O   UNL     1     -40.063  21.903   2.183  0.00  0.00    -0.227 OA
ATOM     19  C   UNL     1     -37.080  24.063   3.413  0.00  0.00    +0.160 C 
ATOM     20  C   UNL     1     -36.098  22.911   3.420  0.00  0.00    +0.175 C 
ATOM     21  C   UNL     1     -36.674  24.778   4.677  0.00  0.00    +0.084 C 
ATOM     22  C   UNL     1     -35.149  24.595   4.662  0.00  0.00    +0.197 C 
ATOM     23  C   UNL     1     -36.140  22.177   2.095  0.00  0.00    +0.186 C 
BRANCH  14  24
ATOM     24  O   UNL     1     -38.624  23.624   0.830  0.00  0.00    -0.302 OA
ATOM     25  H   UNL     1     -37.733  23.566   0.452  0.00  0.00    +0.222 HD
ENDBRANCH  14  24
ENDBRANCH   1  22
BRANCH  12  26
ATOM     26  C   UNL     1     -30.649  31.558   3.246  0.00  0.00    +0.085 C 
BRANCH  26  27
ATOM     27  C   UNL     1     -31.405  32.884   3.304  0.00  0.00    +0.010 C 
ATOM     28  C   UNL     1     -32.691  32.860   2.488  0.00  0.00    +0.001 C 
ENDBRANCH  26  27
ENDBRANCH  12  26
TORSDOF 4
ENDMDL
MODEL 8
REMARK VINA RESULT:      -6.1      4.089      9.472
REMARK  Name = 189187
REMARK  4 active torsions:
REMARK  status: ('A' for Active; 'I' for Inactive)
REMARK    1  A    between atoms: N_1  and  C_18
REMARK    2  A    between atoms: P_10  and  O_20
REMARK    3  A    between atoms: C_24  and  C_26
REMARK    4  A    between atoms: C_26  and  C_27
REMARK                            x       y       z     vdW  Elec       q    Type
REMARK                         _______ _______ _______ _____ _____    ______ ____
ROOT
ATOM      1  N   UNL     1     -37.739  19.604  -0.148  0.00  0.00    -0.249 N 
ATOM      2  N   UNL     1     -36.188  20.321   1.284  0.00  0.00    -0.242 NA
ATOM      3  N   UNL     1     -39.521  21.180   0.346  0.00  0.00    -0.228 NA
ATOM      4  N   UNL     1     -38.855  22.755   2.088  0.00  0.00    -0.228 NA
ATOM      5  C   UNL     1     -38.294  20.664   0.513  0.00  0.00    +0.152 C 
ATOM      6  C   UNL     1     -36.474  19.437   0.352  0.00  0.00    +0.223 C 
ATOM      7  C   UNL     1     -37.316  21.094   1.396  0.00  0.00    +0.140 C 
ATOM      8  C   UNL     1     -37.633  22.182   2.203  0.00  0.00    +0.152 C 
ATOM      9  C   UNL     1     -39.711  22.226   1.180  0.00  0.00    +0.253 C 
ATOM     10  O   UNL     1     -37.836  24.470   4.136  0.00  0.00    -0.275 OA
ATOM     11  N   UNL     1     -36.703  22.675   3.119  0.00  0.00    -0.268 N 
ATOM     12  C   UNL     1     -36.848  23.755   4.007  0.00  0.00    +0.227 C 
ATOM     13  H   UNL     1     -35.837  22.208   3.148  0.00  0.00    +0.156 HD
ENDROOT
BRANCH   1  22
ATOM     14  P   UNL     1     -37.057  14.249  -2.245  0.00  0.00    +0.476 P 
ATOM     15  O   UNL     1     -39.085  17.690  -0.577  0.00  0.00    -0.335 OA
ATOM     16  O   UNL     1     -36.934  15.808  -2.710  0.00  0.00    -0.273 OA
ATOM     17  O   UNL     1     -38.482  14.161  -1.467  0.00  0.00    -0.271 OA
ATOM     18  O   UNL     1     -36.884  13.258  -3.359  0.00  0.00    -0.227 OA
ATOM     19  C   UNL     1     -37.297  16.760  -1.735  0.00  0.00    +0.160 C 
ATOM     20  C   UNL     1     -38.735  16.528  -1.323  0.00  0.00    +0.175 C 
ATOM     21  C   UNL     1     -37.371  18.195  -2.194  0.00  0.00    +0.084 C 
ATOM     22  C   UNL     1     -38.368  18.792  -1.190  0.00  0.00    +0.197 C 
ATOM     23  C   UNL     1     -38.862  15.215  -0.578  0.00  0.00    +0.186 C 
BRANCH  14  24
ATOM     24  O   UNL     1     -35.961  14.113  -1.062  0.00  0.00    -0.302 OA
ATOM     25  H   UNL     1     -35.260  14.772  -1.193  0.00  0.00    +0.222 HD
ENDBRANCH  14  24
ENDBRANCH   1  22
BRANCH  12  26
ATOM     26  C   UNL     1     -35.575  23.977   4.815  0.00  0.00    +0.085 C 
BRANCH  26  27
ATOM     27  C   UNL     1     -34.880  22.687   5.244  0.00  0.00    +0.010 C 
ATOM     28  C   UNL     1     -35.485  22.089   6.507  0.00  0.00    +0.001 C 
ENDBRANCH  26  27
ENDBRANCH  12  26
TORSDOF 4
ENDMDL
MODEL 9
REMARK VINA RESULT:      -6.1      2.269      2.621
REMARK  Name = 189187
REMARK  4 active torsions:
REMARK  status: ('A' for Active; 'I' for Inactive)
REMARK    1  A    between atoms: N_1  and  C_18
REMARK    2  A    between atoms: P_10  and  O_20
REMARK    3  A    between atoms: C_24  and  C_26
REMARK    4  A    between atoms: C_26  and  C_27
REMARK                            x       y       z     vdW  Elec       q    Type
REMARK                         _______ _______ _______ _____ _____    ______ ____
ROOT
ATOM      1  N   UNL     1     -35.694  22.803   4.068  0.00  0.00    -0.249 N 
ATOM      2  N   UNL     1     -35.180  20.642   3.874  0.00  0.00    -0.242 NA
ATOM      3  N   UNL     1     -35.913  23.391   1.721  0.00  0.00    -0.228 NA
ATOM      4  N   UNL     1     -35.498  21.465   0.281  0.00  0.00    -0.228 NA
ATOM      5  C   UNL     1     -35.675  22.537   2.728  0.00  0.00    +0.152 C 
ATOM      6  C   UNL     1     -35.389  21.633   4.714  0.00  0.00    +0.223 C 
ATOM      7  C   UNL     1     -35.354  21.192   2.629  0.00  0.00    +0.140 C 
ATOM      8  C   UNL     1     -35.268  20.660   1.346  0.00  0.00    +0.152 C 
ATOM      9  C   UNL     1     -35.802  22.762   0.531  0.00  0.00    +0.253 C 
ATOM     10  O   UNL     1     -34.968  19.065  -1.179  0.00  0.00    -0.275 OA
ATOM     11  N   UNL     1     -34.949  19.314   1.161  0.00  0.00    -0.268 N 
ATOM     12  C   UNL     1     -34.819  18.611  -0.049  0.00  0.00    +0.227 C 
ATOM     13  H   UNL     1     -34.794  18.791   1.981  0.00  0.00    +0.156 HD
ENDROOT
BRANCH   1  22
ATOM     14  P   UNL     1     -32.926  27.848   4.716  0.00  0.00    +0.476 P 
ATOM     15  O   UNL     1     -36.117  25.112   3.686  0.00  0.00    -0.335 OA
ATOM     16  O   UNL     1     -33.511  26.611   5.603  0.00  0.00    -0.273 OA
ATOM     17  O   UNL     1     -34.123  28.215   3.679  0.00  0.00    -0.271 OA
ATOM     18  O   UNL     1     -32.418  29.004   5.529  0.00  0.00    -0.227 OA
ATOM     19  C   UNL     1     -34.183  25.608   4.874  0.00  0.00    +0.160 C 
ATOM     20  C   UNL     1     -35.354  26.225   4.140  0.00  0.00    +0.175 C 
ATOM     21  C   UNL     1     -34.892  24.552   5.683  0.00  0.00    +0.084 C 
ATOM     22  C   UNL     1     -35.981  24.088   4.704  0.00  0.00    +0.197 C 
ATOM     23  C   UNL     1     -34.858  27.160   3.055  0.00  0.00    +0.186 C 
BRANCH  14  24
ATOM     24  O   UNL     1     -31.802  27.153   3.781  0.00  0.00    -0.302 OA
ATOM     25  H   UNL     1     -31.105  26.775   4.340  0.00  0.00    +0.222 HD
ENDBRANCH  14  24
ENDBRANCH   1  22
BRANCH  12  26
ATOM     26  C   UNL     1     -34.487  17.145   0.199  0.00  0.00    +0.085 C 
BRANCH  26  27
ATOM     27  C   UNL     1     -33.017  16.796  -0.030  0.00  0.00    +0.010 C 
ATOM     28  C   UNL     1     -32.078  17.633   0.826  0.00  0.00    +0.001 C 
ENDBRANCH  26  27
ENDBRANCH  12  26
TORSDOF 4
ENDMDL
