MODEL 1
REMARK VINA RESULT:      -6.3      0.000      0.000
REMARK  Name = 194084
REMARK  6 active torsions:
REMARK  status: ('A' for Active; 'I' for Inactive)
REMARK    1  A    between atoms: CA_5  and  N_12
REMARK    2  A    between atoms: CA_7  and  C_25
REMARK    3  A    between atoms: C_13  and  C_15
REMARK    4  A    between atoms: C_15  and  C_16
REMARK    5  A    between atoms: C_15  and  O_22
REMARK    6  A    between atoms: C_25  and  O_26
REMARK                            x       y       z     vdW  Elec       q    Type
REMARK                         _______ _______ _______ _____ _____    ______ ____
ROOT
ATOM      1  S   UNL     1     -34.196  24.962   1.135  0.00  0.00    -0.114 S 
ATOM      2  O   UNL     1     -37.942  23.233   3.276  0.00  0.00    -0.273 OA
ATOM      3  N   UNL     1     -36.412  24.893   2.596  0.00  0.00    -0.242 N 
ATOM      4  C   UNL     1     -34.991  24.620   2.721  0.00  0.00    +0.155 C 
ATOM      5  CA  UNL     1     -35.394  23.153   2.986  0.00  0.00    +0.178 C 
ATOM      6  C   UNL     1     -36.851  23.694   3.036  0.00  0.00    +0.251 C 
ATOM      7  CA  UNL     1     -36.918  26.070   2.148  0.00  0.00    +0.124 C 
ATOM      8  C   UNL     1     -34.679  26.722   1.146  0.00  0.00    +0.083 C 
ATOM      9  C   UNL     1     -36.141  26.976   1.507  0.00  0.00    -0.013 C 
ATOM     10  C   UNL     1     -36.609  28.337   1.052  0.00  0.00    +0.029 C 
ENDROOT
BRANCH   5  12
ATOM     11  O   UNL     1     -35.217  20.284   3.292  0.00  0.00    -0.272 OA
ATOM     12  N   UNL     1     -35.172  22.165   1.931  0.00  0.00    -0.294 N 
ATOM     13  C   UNL     1     -35.101  20.794   2.179  0.00  0.00    +0.254 C 
ATOM     14  H   UNL     1     -35.068  22.481   1.004  0.00  0.00    +0.150 HD
BRANCH  13  15
ATOM     15  C   UNL     1     -34.887  19.972   0.915  0.00  0.00    +0.209 C 
BRANCH  15  16
ATOM     16  C   UNL     1     -33.444  19.554   0.761  0.00  0.00    +0.013 C 
ATOM     17  C   UNL     1     -33.024  18.353   1.310  0.00  0.00    -0.001 C 
ATOM     18  C   UNL     1     -32.569  20.378   0.073  0.00  0.00    -0.001 C 
ATOM     19  C   UNL     1     -31.691  17.966   1.168  0.00  0.00    -0.000 C 
ATOM     20  C   UNL     1     -31.235  19.991  -0.068  0.00  0.00    -0.000 C 
ATOM     21  C   UNL     1     -30.797  18.785   0.479  0.00  0.00    -0.000 C 
ENDBRANCH  15  16
BRANCH  15  22
ATOM     22  O   UNL     1     -35.699  18.808   0.969  0.00  0.00    -0.372 OA
ATOM     23  H   UNL     1     -35.453  18.210   0.246  0.00  0.00    +0.211 HD
ENDBRANCH  15  22
ENDBRANCH  13  15
ENDBRANCH   5  12
BRANCH   7  25
ATOM     24  OXT UNL     1     -39.146  26.342   1.398  0.00  0.00    -0.244 OA
ATOM     25  C   UNL     1     -38.360  26.289   2.331  0.00  0.00    +0.351 C 
BRANCH  25  26
ATOM     26  O   UNL     1     -38.638  26.408   3.640  0.00  0.00    -0.476 OA
ATOM     27  H   UNL     1     -37.965  26.266   4.277  0.00  0.00    +0.295 HD
ENDBRANCH  25  26
ENDBRANCH   7  25
TORSDOF 6
ENDMDL
MODEL 2
REMARK VINA RESULT:      -6.0      4.287      6.238
REMARK  Name = 194084
REMARK  6 active torsions:
REMARK  status: ('A' for Active; 'I' for Inactive)
REMARK    1  A    between atoms: CA_5  and  N_12
REMARK    2  A    between atoms: CA_7  and  C_25
REMARK    3  A    between atoms: C_13  and  C_15
REMARK    4  A    between atoms: C_15  and  C_16
REMARK    5  A    between atoms: C_15  and  O_22
REMARK    6  A    between atoms: C_25  and  O_26
REMARK                            x       y       z     vdW  Elec       q    Type
REMARK                         _______ _______ _______ _____ _____    ______ ____
ROOT
ATOM      1  S   UNL     1     -36.623  28.054   0.211  0.00  0.00    -0.114 S 
ATOM      2  O   UNL     1     -35.210  30.774   3.706  0.00  0.00    -0.273 OA
ATOM      3  N   UNL     1     -35.704  30.202   1.472  0.00  0.00    -0.242 N 
ATOM      4  C   UNL     1     -35.230  28.928   0.962  0.00  0.00    +0.155 C 
ATOM      5  CA  UNL     1     -34.904  28.570   2.428  0.00  0.00    +0.178 C 
ATOM      6  C   UNL     1     -35.246  30.056   2.735  0.00  0.00    +0.251 C 
ATOM      7  CA  UNL     1     -36.381  31.111   0.725  0.00  0.00    +0.124 C 
ATOM      8  C   UNL     1     -36.915  29.358  -1.032  0.00  0.00    +0.083 C 
ATOM      9  C   UNL     1     -36.924  30.778  -0.470  0.00  0.00    -0.013 C 
ATOM     10  C   UNL     1     -37.620  31.749  -1.395  0.00  0.00    +0.029 C 
ENDROOT
BRANCH   5  12
ATOM     11  O   UNL     1     -34.113  26.075   3.655  0.00  0.00    -0.272 OA
ATOM     12  N   UNL     1     -35.767  27.616   3.124  0.00  0.00    -0.294 N 
ATOM     13  C   UNL     1     -35.289  26.432   3.686  0.00  0.00    +0.254 C 
ATOM     14  H   UNL     1     -36.728  27.818   3.199  0.00  0.00    +0.150 HD
BRANCH  13  15
ATOM     15  C   UNL     1     -36.378  25.620   4.374  0.00  0.00    +0.209 C 
BRANCH  15  16
ATOM     16  C   UNL     1     -35.948  24.189   4.599  0.00  0.00    +0.013 C 
ATOM     17  C   UNL     1     -36.039  23.282   3.556  0.00  0.00    -0.001 C 
ATOM     18  C   UNL     1     -35.470  23.812   5.843  0.00  0.00    -0.001 C 
ATOM     19  C   UNL     1     -35.643  21.960   3.764  0.00  0.00    -0.000 C 
ATOM     20  C   UNL     1     -35.073  22.491   6.051  0.00  0.00    -0.000 C 
ATOM     21  C   UNL     1     -35.159  21.565   5.010  0.00  0.00    -0.000 C 
ENDBRANCH  15  16
BRANCH  15  22
ATOM     22  O   UNL     1     -36.681  26.210   5.629  0.00  0.00    -0.372 OA
ATOM     23  H   UNL     1     -35.872  26.272   6.161  0.00  0.00    +0.211 HD
ENDBRANCH  15  22
ENDBRANCH  13  15
ENDBRANCH   5  12
BRANCH   7  25
ATOM     24  OXT UNL     1     -35.740  33.348   1.150  0.00  0.00    -0.244 OA
ATOM     25  C   UNL     1     -36.555  32.452   1.301  0.00  0.00    +0.351 C 
BRANCH  25  26
ATOM     26  O   UNL     1     -37.712  32.506   1.982  0.00  0.00    -0.476 OA
ATOM     27  H   UNL     1     -38.525  32.378   1.535  0.00  0.00    +0.295 HD
ENDBRANCH  25  26
ENDBRANCH   7  25
TORSDOF 6
ENDMDL
MODEL 3
REMARK VINA RESULT:      -5.8      4.234      9.132
REMARK  Name = 194084
REMARK  6 active torsions:
REMARK  status: ('A' for Active; 'I' for Inactive)
REMARK    1  A    between atoms: CA_5  and  N_12
REMARK    2  A    between atoms: CA_7  and  C_25
REMARK    3  A    between atoms: C_13  and  C_15
REMARK    4  A    between atoms: C_15  and  C_16
REMARK    5  A    between atoms: C_15  and  O_22
REMARK    6  A    between atoms: C_25  and  O_26
REMARK                            x       y       z     vdW  Elec       q    Type
REMARK                         _______ _______ _______ _____ _____    ______ ____
ROOT
ATOM      1  S   UNL     1     -33.910  26.630   3.873  0.00  0.00    -0.114 S 
ATOM      2  O   UNL     1     -38.005  26.794   1.678  0.00  0.00    -0.273 OA
ATOM      3  N   UNL     1     -36.134  25.782   2.697  0.00  0.00    -0.242 N 
ATOM      4  C   UNL     1     -34.810  26.263   2.348  0.00  0.00    +0.155 C 
ATOM      5  CA  UNL     1     -35.525  27.452   1.670  0.00  0.00    +0.178 C 
ATOM      6  C   UNL     1     -36.833  26.658   1.942  0.00  0.00    +0.251 C 
ATOM      7  CA  UNL     1     -36.363  24.748   3.546  0.00  0.00    +0.124 C 
ATOM      8  C   UNL     1     -34.006  24.909   4.474  0.00  0.00    +0.083 C 
ATOM      9  C   UNL     1     -35.390  24.275   4.361  0.00  0.00    -0.013 C 
ATOM     10  C   UNL     1     -35.542  23.080   5.273  0.00  0.00    +0.029 C 
ENDROOT
BRANCH   5  12
ATOM     11  O   UNL     1     -34.256  29.858   0.692  0.00  0.00    -0.272 OA
ATOM     12  N   UNL     1     -35.486  28.759   2.326  0.00  0.00    -0.294 N 
ATOM     13  C   UNL     1     -34.845  29.866   1.771  0.00  0.00    +0.254 C 
ATOM     14  H   UNL     1     -35.933  28.861   3.198  0.00  0.00    +0.150 HD
BRANCH  13  15
ATOM     15  C   UNL     1     -34.965  31.115   2.634  0.00  0.00    +0.209 C 
BRANCH  15  16
ATOM     16  C   UNL     1     -35.790  32.184   1.956  0.00  0.00    +0.013 C 
ATOM     17  C   UNL     1     -35.151  33.264   1.371  0.00  0.00    -0.001 C 
ATOM     18  C   UNL     1     -37.170  32.062   1.933  0.00  0.00    -0.001 C 
ATOM     19  C   UNL     1     -35.913  34.252   0.745  0.00  0.00    -0.000 C 
ATOM     20  C   UNL     1     -37.932  33.050   1.307  0.00  0.00    -0.000 C 
ATOM     21  C   UNL     1     -37.302  34.144   0.713  0.00  0.00    -0.000 C 
ENDBRANCH  15  16
BRANCH  15  22
ATOM     22  O   UNL     1     -35.580  30.776   3.868  0.00  0.00    -0.372 OA
ATOM     23  H   UNL     1     -35.018  30.145   4.346  0.00  0.00    +0.211 HD
ENDBRANCH  15  22
ENDBRANCH  13  15
ENDBRANCH   5  12
BRANCH   7  25
ATOM     24  OXT UNL     1     -38.034  23.136   3.092  0.00  0.00    -0.244 OA
ATOM     25  C   UNL     1     -37.730  24.209   3.588  0.00  0.00    +0.351 C 
BRANCH  25  26
ATOM     26  O   UNL     1     -38.535  25.065   4.240  0.00  0.00    -0.476 OA
ATOM     27  H   UNL     1     -38.166  25.739   4.776  0.00  0.00    +0.295 HD
ENDBRANCH  25  26
ENDBRANCH   7  25
TORSDOF 6
ENDMDL
MODEL 4
REMARK VINA RESULT:      -5.8      2.275      6.829
REMARK  Name = 194084
REMARK  6 active torsions:
REMARK  status: ('A' for Active; 'I' for Inactive)
REMARK    1  A    between atoms: CA_5  and  N_12
REMARK    2  A    between atoms: CA_7  and  C_25
REMARK    3  A    between atoms: C_13  and  C_15
REMARK    4  A    between atoms: C_15  and  C_16
REMARK    5  A    between atoms: C_15  and  O_22
REMARK    6  A    between atoms: C_25  and  O_26
REMARK                            x       y       z     vdW  Elec       q    Type
REMARK                         _______ _______ _______ _____ _____    ______ ____
ROOT
ATOM      1  S   UNL     1     -34.121  23.609   0.008  0.00  0.00    -0.114 S 
ATOM      2  O   UNL     1     -37.448  23.210   3.230  0.00  0.00    -0.273 OA
ATOM      3  N   UNL     1     -35.980  22.484   1.534  0.00  0.00    -0.242 N 
ATOM      4  C   UNL     1     -35.870  23.279   0.324  0.00  0.00    +0.155 C 
ATOM      5  CA  UNL     1     -36.649  24.373   1.087  0.00  0.00    +0.178 C 
ATOM      6  C   UNL     1     -36.848  23.289   2.184  0.00  0.00    +0.251 C 
ATOM      7  CA  UNL     1     -35.317  21.315   1.733  0.00  0.00    +0.124 C 
ATOM      8  C   UNL     1     -33.702  21.840  -0.154  0.00  0.00    +0.083 C 
ATOM      9  C   UNL     1     -34.279  20.949   0.944  0.00  0.00    -0.013 C 
ATOM     10  C   UNL     1     -33.546  19.633   1.049  0.00  0.00    +0.029 C 
ENDROOT
BRANCH   5  12
ATOM     11  O   UNL     1     -37.777  26.898   1.926  0.00  0.00    -0.272 OA
ATOM     12  N   UNL     1     -35.922  25.552   1.555  0.00  0.00    -0.294 N 
ATOM     13  C   UNL     1     -36.559  26.732   1.940  0.00  0.00    +0.254 C 
ATOM     14  H   UNL     1     -34.939  25.512   1.601  0.00  0.00    +0.150 HD
BRANCH  13  15
ATOM     15  C   UNL     1     -35.587  27.805   2.410  0.00  0.00    +0.209 C 
BRANCH  15  16
ATOM     16  C   UNL     1     -34.817  27.364   3.632  0.00  0.00    +0.013 C 
ATOM     17  C   UNL     1     -33.538  27.853   3.841  0.00  0.00    -0.001 C 
ATOM     18  C   UNL     1     -35.404  26.478   4.520  0.00  0.00    -0.001 C 
ATOM     19  C   UNL     1     -32.826  27.445   4.969  0.00  0.00    -0.000 C 
ATOM     20  C   UNL     1     -34.692  26.070   5.649  0.00  0.00    -0.000 C 
ATOM     21  C   UNL     1     -33.403  26.554   5.873  0.00  0.00    -0.000 C 
ENDBRANCH  15  16
BRANCH  15  22
ATOM     22  O   UNL     1     -34.666  28.093   1.368  0.00  0.00    -0.372 OA
ATOM     23  H   UNL     1     -33.860  27.568   1.494  0.00  0.00    +0.211 HD
ENDBRANCH  15  22
ENDBRANCH  13  15
ENDBRANCH   5  12
BRANCH   7  25
ATOM     24  OXT UNL     1     -35.202  20.576   3.977  0.00  0.00    -0.244 OA
ATOM     25  C   UNL     1     -35.735  20.499   2.881  0.00  0.00    +0.351 C 
BRANCH  25  26
ATOM     26  O   UNL     1     -36.755  19.701   2.524  0.00  0.00    -0.476 OA
ATOM     27  H   UNL     1     -37.579  20.075   2.282  0.00  0.00    +0.295 HD
ENDBRANCH  25  26
ENDBRANCH   7  25
TORSDOF 6
ENDMDL
MODEL 5
REMARK VINA RESULT:      -5.8      3.595      7.289
REMARK  Name = 194084
REMARK  6 active torsions:
REMARK  status: ('A' for Active; 'I' for Inactive)
REMARK    1  A    between atoms: CA_5  and  N_12
REMARK    2  A    between atoms: CA_7  and  C_25
REMARK    3  A    between atoms: C_13  and  C_15
REMARK    4  A    between atoms: C_15  and  C_16
REMARK    5  A    between atoms: C_15  and  O_22
REMARK    6  A    between atoms: C_25  and  O_26
REMARK                            x       y       z     vdW  Elec       q    Type
REMARK                         _______ _______ _______ _____ _____    ______ ____
ROOT
ATOM      1  S   UNL     1     -35.430  24.478   0.395  0.00  0.00    -0.114 S 
ATOM      2  O   UNL     1     -35.138  22.634   4.652  0.00  0.00    -0.273 OA
ATOM      3  N   UNL     1     -35.868  22.814   2.416  0.00  0.00    -0.242 N 
ATOM      4  C   UNL     1     -36.306  24.110   1.932  0.00  0.00    +0.155 C 
ATOM      5  CA  UNL     1     -35.697  24.693   3.226  0.00  0.00    +0.178 C 
ATOM      6  C   UNL     1     -35.516  23.210   3.659  0.00  0.00    +0.251 C 
ATOM      7  CA  UNL     1     -35.892  21.680   1.669  0.00  0.00    +0.124 C 
ATOM      8  C   UNL     1     -36.114  23.024  -0.472  0.00  0.00    +0.083 C 
ATOM      9  C   UNL     1     -36.050  21.723   0.325  0.00  0.00    -0.013 C 
ATOM     10  C   UNL     1     -36.169  20.508  -0.563  0.00  0.00    +0.029 C 
ENDROOT
BRANCH   5  12
ATOM     11  O   UNL     1     -35.256  27.471   3.891  0.00  0.00    -0.272 OA
ATOM     12  N   UNL     1     -34.439  25.433   3.136  0.00  0.00    -0.294 N 
ATOM     13  C   UNL     1     -34.326  26.780   3.481  0.00  0.00    +0.254 C 
ATOM     14  H   UNL     1     -33.636  24.960   2.817  0.00  0.00    +0.150 HD
BRANCH  13  15
ATOM     15  C   UNL     1     -32.910  27.316   3.323  0.00  0.00    +0.209 C 
BRANCH  15  16
ATOM     16  C   UNL     1     -32.487  28.137   4.518  0.00  0.00    +0.013 C 
ATOM     17  C   UNL     1     -32.447  27.542   5.769  0.00  0.00    -0.001 C 
ATOM     18  C   UNL     1     -32.149  29.469   4.341  0.00  0.00    -0.001 C 
ATOM     19  C   UNL     1     -32.058  28.301   6.874  0.00  0.00    -0.000 C 
ATOM     20  C   UNL     1     -31.759  30.227   5.446  0.00  0.00    -0.000 C 
ATOM     21  C   UNL     1     -31.714  29.642   6.712  0.00  0.00    -0.000 C 
ENDBRANCH  15  16
BRANCH  15  22
ATOM     22  O   UNL     1     -32.010  26.228   3.173  0.00  0.00    -0.372 OA
ATOM     23  H   UNL     1     -32.351  25.458   3.654  0.00  0.00    +0.211 HD
ENDBRANCH  15  22
ENDBRANCH  13  15
ENDBRANCH   5  12
BRANCH   7  25
ATOM     24  OXT UNL     1     -34.562  19.950   2.584  0.00  0.00    -0.244 OA
ATOM     25  C   UNL     1     -35.673  20.410   2.377  0.00  0.00    +0.351 C 
BRANCH  25  26
ATOM     26  O   UNL     1     -36.855  19.882   2.736  0.00  0.00    -0.476 OA
ATOM     27  H   UNL     1     -37.450  20.379   3.263  0.00  0.00    +0.295 HD
ENDBRANCH  25  26
ENDBRANCH   7  25
TORSDOF 6
ENDMDL
MODEL 6
REMARK VINA RESULT:      -5.8      2.434      3.263
REMARK  Name = 194084
REMARK  6 active torsions:
REMARK  status: ('A' for Active; 'I' for Inactive)
REMARK    1  A    between atoms: CA_5  and  N_12
REMARK    2  A    between atoms: CA_7  and  C_25
REMARK    3  A    between atoms: C_13  and  C_15
REMARK    4  A    between atoms: C_15  and  C_16
REMARK    5  A    between atoms: C_15  and  O_22
REMARK    6  A    between atoms: C_25  and  O_26
REMARK                            x       y       z     vdW  Elec       q    Type
REMARK                         _______ _______ _______ _____ _____    ______ ____
ROOT
ATOM      1  S   UNL     1     -35.164  23.760   5.234  0.00  0.00    -0.114 S 
ATOM      2  O   UNL     1     -36.974  25.403   1.280  0.00  0.00    -0.273 OA
ATOM      3  N   UNL     1     -35.999  25.514   3.423  0.00  0.00    -0.242 N 
ATOM      4  C   UNL     1     -36.532  24.664   4.473  0.00  0.00    +0.155 C 
ATOM      5  CA  UNL     1     -37.303  23.930   3.355  0.00  0.00    +0.178 C 
ATOM      6  C   UNL     1     -36.802  25.075   2.430  0.00  0.00    +0.251 C 
ATOM      7  CA  UNL     1     -34.994  26.407   3.612  0.00  0.00    +0.124 C 
ATOM      8  C   UNL     1     -34.319  25.281   5.785  0.00  0.00    +0.083 C 
ATOM      9  C   UNL     1     -34.213  26.369   4.718  0.00  0.00    -0.013 C 
ATOM     10  C   UNL     1     -33.132  27.373   5.038  0.00  0.00    +0.029 C 
ENDROOT
BRANCH   5  12
ATOM     11  O   UNL     1     -38.422  22.266   1.272  0.00  0.00    -0.272 OA
ATOM     12  N   UNL     1     -36.845  22.603   2.944  0.00  0.00    -0.294 N 
ATOM     13  C   UNL     1     -37.455  21.874   1.922  0.00  0.00    +0.254 C 
ATOM     14  H   UNL     1     -36.073  22.206   3.409  0.00  0.00    +0.150 HD
BRANCH  13  15
ATOM     15  C   UNL     1     -36.780  20.533   1.666  0.00  0.00    +0.209 C 
BRANCH  15  16
ATOM     16  C   UNL     1     -35.393  20.706   1.096  0.00  0.00    +0.013 C 
ATOM     17  C   UNL     1     -34.410  19.781   1.409  0.00  0.00    -0.001 C 
ATOM     18  C   UNL     1     -35.129  21.787   0.270  0.00  0.00    -0.001 C 
ATOM     19  C   UNL     1     -33.128  19.941   0.883  0.00  0.00    -0.000 C 
ATOM     20  C   UNL     1     -33.847  21.947  -0.256  0.00  0.00    -0.000 C 
ATOM     21  C   UNL     1     -32.846  21.023   0.050  0.00  0.00    -0.000 C 
ENDBRANCH  15  16
BRANCH  15  22
ATOM     22  O   UNL     1     -36.687  19.815   2.888  0.00  0.00    -0.372 OA
ATOM     23  H   UNL     1     -36.562  18.871   2.699  0.00  0.00    +0.211 HD
ENDBRANCH  15  22
ENDBRANCH  13  15
ENDBRANCH   5  12
BRANCH   7  25
ATOM     24  OXT UNL     1     -33.786  27.308   1.788  0.00  0.00    -0.244 OA
ATOM     25  C   UNL     1     -34.751  27.375   2.533  0.00  0.00    +0.351 C 
BRANCH  25  26
ATOM     26  O   UNL     1     -35.733  28.292   2.516  0.00  0.00    -0.476 OA
ATOM     27  H   UNL     1     -36.303  28.382   3.254  0.00  0.00    +0.295 HD
ENDBRANCH  25  26
ENDBRANCH   7  25
TORSDOF 6
ENDMDL
MODEL 7
REMARK VINA RESULT:      -5.8      3.720      5.641
REMARK  Name = 194084
REMARK  6 active torsions:
REMARK  status: ('A' for Active; 'I' for Inactive)
REMARK    1  A    between atoms: CA_5  and  N_12
REMARK    2  A    between atoms: CA_7  and  C_25
REMARK    3  A    between atoms: C_13  and  C_15
REMARK    4  A    between atoms: C_15  and  C_16
REMARK    5  A    between atoms: C_15  and  O_22
REMARK    6  A    between atoms: C_25  and  O_26
REMARK                            x       y       z     vdW  Elec       q    Type
REMARK                         _______ _______ _______ _____ _____    ______ ____
ROOT
ATOM      1  S   UNL     1     -35.683  24.464   1.396  0.00  0.00    -0.114 S 
ATOM      2  O   UNL     1     -36.030  23.207   5.858  0.00  0.00    -0.273 OA
ATOM      3  N   UNL     1     -35.052  24.213   3.963  0.00  0.00    -0.242 N 
ATOM      4  C   UNL     1     -34.993  23.454   2.727  0.00  0.00    +0.155 C 
ATOM      5  CA  UNL     1     -35.960  22.458   3.405  0.00  0.00    +0.178 C 
ATOM      6  C   UNL     1     -35.709  23.288   4.696  0.00  0.00    +0.251 C 
ATOM      7  CA  UNL     1     -34.536  25.461   4.108  0.00  0.00    +0.124 C 
ATOM      8  C   UNL     1     -34.429  25.776   1.592  0.00  0.00    +0.083 C 
ATOM      9  C   UNL     1     -34.187  26.210   3.036  0.00  0.00    -0.013 C 
ATOM     10  C   UNL     1     -33.533  27.569   3.116  0.00  0.00    +0.029 C 
ENDROOT
BRANCH   5  12
ATOM     11  O   UNL     1     -37.194  20.646   1.522  0.00  0.00    -0.272 OA
ATOM     12  N   UNL     1     -37.360  22.444   2.982  0.00  0.00    -0.294 N 
ATOM     13  C   UNL     1     -37.864  21.524   2.062  0.00  0.00    +0.254 C 
ATOM     14  H   UNL     1     -37.974  23.112   3.364  0.00  0.00    +0.150 HD
BRANCH  13  15
ATOM     15  C   UNL     1     -39.354  21.699   1.804  0.00  0.00    +0.209 C 
BRANCH  15  16
ATOM     16  C   UNL     1     -39.650  23.015   1.123  0.00  0.00    +0.013 C 
ATOM     17  C   UNL     1     -39.134  23.256  -0.139  0.00  0.00    -0.001 C 
ATOM     18  C   UNL     1     -40.433  23.954   1.774  0.00  0.00    -0.001 C 
ATOM     19  C   UNL     1     -39.407  24.472  -0.768  0.00  0.00    -0.000 C 
ATOM     20  C   UNL     1     -40.706  25.170   1.146  0.00  0.00    -0.000 C 
ATOM     21  C   UNL     1     -40.193  25.428  -0.126  0.00  0.00    -0.000 C 
ENDBRANCH  15  16
BRANCH  15  22
ATOM     22  O   UNL     1     -39.815  20.641   0.976  0.00  0.00    -0.372 OA
ATOM     23  H   UNL     1     -39.446  19.801   1.291  0.00  0.00    +0.211 HD
ENDBRANCH  15  22
ENDBRANCH  13  15
ENDBRANCH   5  12
BRANCH   7  25
ATOM     24  OXT UNL     1     -33.372  26.091   6.070  0.00  0.00    -0.244 OA
ATOM     25  C   UNL     1     -34.434  25.985   5.478  0.00  0.00    +0.351 C 
BRANCH  25  26
ATOM     26  O   UNL     1     -35.657  26.312   5.930  0.00  0.00    -0.476 OA
ATOM     27  H   UNL     1     -35.750  26.748   6.754  0.00  0.00    +0.295 HD
ENDBRANCH  25  26
ENDBRANCH   7  25
TORSDOF 6
ENDMDL
MODEL 8
REMARK VINA RESULT:      -5.7      2.058      2.633
REMARK  Name = 194084
REMARK  6 active torsions:
REMARK  status: ('A' for Active; 'I' for Inactive)
REMARK    1  A    between atoms: CA_5  and  N_12
REMARK    2  A    between atoms: CA_7  and  C_25
REMARK    3  A    between atoms: C_13  and  C_15
REMARK    4  A    between atoms: C_15  and  C_16
REMARK    5  A    between atoms: C_15  and  O_22
REMARK    6  A    between atoms: C_25  and  O_26
REMARK                            x       y       z     vdW  Elec       q    Type
REMARK                         _______ _______ _______ _____ _____    ______ ____
ROOT
ATOM      1  S   UNL     1     -37.115  25.382  -0.062  0.00  0.00    -0.114 S 
ATOM      2  O   UNL     1     -39.640  24.341   3.700  0.00  0.00    -0.273 OA
ATOM      3  N   UNL     1     -38.816  25.693   1.953  0.00  0.00    -0.242 N 
ATOM      4  C   UNL     1     -37.387  25.702   1.696  0.00  0.00    +0.155 C 
ATOM      5  CA  UNL     1     -37.308  24.480   2.637  0.00  0.00    +0.178 C 
ATOM      6  C   UNL     1     -38.802  24.782   2.950  0.00  0.00    +0.251 C 
ATOM      7  CA  UNL     1     -39.711  26.455   1.272  0.00  0.00    +0.124 C 
ATOM      8  C   UNL     1     -38.033  26.869  -0.588  0.00  0.00    +0.083 C 
ATOM      9  C   UNL     1     -39.380  27.062   0.107  0.00  0.00    -0.013 C 
ATOM     10  C   UNL     1     -40.289  27.987  -0.666  0.00  0.00    +0.029 C 
ENDROOT
BRANCH   5  12
ATOM     11  O   UNL     1     -35.601  22.380   3.654  0.00  0.00    -0.272 OA
ATOM     12  N   UNL     1     -37.090  23.158   2.051  0.00  0.00    -0.294 N 
ATOM     13  C   UNL     1     -36.241  22.208   2.619  0.00  0.00    +0.254 C 
ATOM     14  H   UNL     1     -37.563  22.928   1.218  0.00  0.00    +0.150 HD
BRANCH  13  15
ATOM     15  C   UNL     1     -36.201  20.903   1.834  0.00  0.00    +0.209 C 
BRANCH  15  16
ATOM     16  C   UNL     1     -34.820  20.624   1.289  0.00  0.00    +0.013 C 
ATOM     17  C   UNL     1     -34.195  19.429   1.607  0.00  0.00    -0.001 C 
ATOM     18  C   UNL     1     -34.205  21.567   0.483  0.00  0.00    -0.001 C 
ATOM     19  C   UNL     1     -32.919  19.170   1.104  0.00  0.00    -0.000 C 
ATOM     20  C   UNL     1     -32.929  21.309  -0.019  0.00  0.00    -0.000 C 
ATOM     21  C   UNL     1     -32.287  20.110   0.291  0.00  0.00    -0.000 C 
ENDBRANCH  15  16
BRANCH  15  22
ATOM     22  O   UNL     1     -36.584  19.832   2.683  0.00  0.00    -0.372 OA
ATOM     23  H   UNL     1     -36.860  20.184   3.544  0.00  0.00    +0.211 HD
ENDBRANCH  15  22
ENDBRANCH  13  15
ENDBRANCH   5  12
BRANCH   7  25
ATOM     24  OXT UNL     1     -41.409  27.389   2.628  0.00  0.00    -0.244 OA
ATOM     25  C   UNL     1     -41.071  26.538   1.821  0.00  0.00    +0.351 C 
BRANCH  25  26
ATOM     26  O   UNL     1     -41.832  25.562   1.297  0.00  0.00    -0.476 OA
ATOM     27  H   UNL     1     -41.717  25.307   0.403  0.00  0.00    +0.295 HD
ENDBRANCH  25  26
ENDBRANCH   7  25
TORSDOF 6
ENDMDL
MODEL 9
REMARK VINA RESULT:      -5.7      4.437      6.368
REMARK  Name = 194084
REMARK  6 active torsions:
REMARK  status: ('A' for Active; 'I' for Inactive)
REMARK    1  A    between atoms: CA_5  and  N_12
REMARK    2  A    between atoms: CA_7  and  C_25
REMARK    3  A    between atoms: C_13  and  C_15
REMARK    4  A    between atoms: C_15  and  C_16
REMARK    5  A    between atoms: C_15  and  O_22
REMARK    6  A    between atoms: C_25  and  O_26
REMARK                            x       y       z     vdW  Elec       q    Type
REMARK                         _______ _______ _______ _____ _____    ______ ____
ROOT
ATOM      1  S   UNL     1     -34.752  28.933   1.759  0.00  0.00    -0.114 S 
ATOM      2  O   UNL     1     -31.693  27.713   5.040  0.00  0.00    -0.273 OA
ATOM      3  N   UNL     1     -32.589  29.023   3.296  0.00  0.00    -0.242 N 
ATOM      4  C   UNL     1     -33.076  28.352   2.104  0.00  0.00    +0.155 C 
ATOM      5  CA  UNL     1     -32.956  27.040   2.910  0.00  0.00    +0.178 C 
ATOM      6  C   UNL     1     -32.246  27.912   3.984  0.00  0.00    +0.251 C 
ATOM      7  CA  UNL     1     -32.578  30.372   3.453  0.00  0.00    +0.124 C 
ATOM      8  C   UNL     1     -34.227  30.668   1.546  0.00  0.00    +0.083 C 
ATOM      9  C   UNL     1     -33.288  31.184   2.634  0.00  0.00    -0.013 C 
ATOM     10  C   UNL     1     -33.263  32.693   2.693  0.00  0.00    +0.029 C 
ENDROOT
BRANCH   5  12
ATOM     11  O   UNL     1     -34.596  25.127   1.494  0.00  0.00    -0.272 OA
ATOM     12  N   UNL     1     -34.179  26.399   3.391  0.00  0.00    -0.294 N 
ATOM     13  C   UNL     1     -34.905  25.484   2.628  0.00  0.00    +0.254 C 
ATOM     14  H   UNL     1     -34.505  26.624   4.292  0.00  0.00    +0.150 HD
BRANCH  13  15
ATOM     15  C   UNL     1     -36.126  24.940   3.358  0.00  0.00    +0.209 C 
BRANCH  15  16
ATOM     16  C   UNL     1     -35.789  23.712   4.170  0.00  0.00    +0.013 C 
ATOM     17  C   UNL     1     -35.627  23.830   5.541  0.00  0.00    -0.001 C 
ATOM     18  C   UNL     1     -35.649  22.492   3.529  0.00  0.00    -0.001 C 
ATOM     19  C   UNL     1     -35.315  22.695   6.292  0.00  0.00    -0.000 C 
ATOM     20  C   UNL     1     -35.337  21.358   4.280  0.00  0.00    -0.000 C 
ATOM     21  C   UNL     1     -35.171  21.460   5.662  0.00  0.00    -0.000 C 
ENDBRANCH  15  16
BRANCH  15  22
ATOM     22  O   UNL     1     -36.636  25.940   4.229  0.00  0.00    -0.372 OA
ATOM     23  H   UNL     1     -36.201  25.869   5.092  0.00  0.00    +0.211 HD
ENDBRANCH  15  22
ENDBRANCH  13  15
ENDBRANCH   5  12
BRANCH   7  25
ATOM     24  OXT UNL     1     -30.734  31.458   4.462  0.00  0.00    -0.244 OA
ATOM     25  C   UNL     1     -31.815  30.905   4.591  0.00  0.00    +0.351 C 
BRANCH  25  26
ATOM     26  O   UNL     1     -32.489  30.686   5.732  0.00  0.00    -0.476 OA
ATOM     27  H   UNL     1     -33.132  31.303   6.021  0.00  0.00    +0.295 HD
ENDBRANCH  25  26
ENDBRANCH   7  25
TORSDOF 6
ENDMDL
