MODEL 1
REMARK VINA RESULT:      -5.8      0.000      0.000
REMARK  Name = 57407714
REMARK  2 active torsions:
REMARK  status: ('A' for Active; 'I' for Inactive)
REMARK    1  A    between atoms: C_9  and  S_14
REMARK    2  A    between atoms: S_14  and  N_17
REMARK                            x       y       z     vdW  Elec       q    Type
REMARK                         _______ _______ _______ _____ _____    ______ ____
ROOT
ATOM      1  S   UNL     1     -32.363  26.734   2.539  0.00  0.00    +0.076 S 
ATOM      2  O   UNL     1     -31.243  25.848   2.308  0.00  0.00    -0.150 OA
ATOM      3  O   UNL     1     -33.132  27.348   1.480  0.00  0.00    -0.150 OA
ATOM      4  O   UNL     1     -32.512  28.451   5.965  0.00  0.00    -0.269 OA
ATOM      5  N   UNL     1     -31.964  27.896   3.733  0.00  0.00    -0.181 N 
ATOM      6  C   UNL     1     -33.471  25.941   3.625  0.00  0.00    +0.131 C 
ATOM      7  C   UNL     1     -33.522  26.566   4.872  0.00  0.00    +0.074 C 
ATOM      8  C   UNL     1     -34.223  24.824   3.320  0.00  0.00    +0.040 C 
ATOM      9  C   UNL     1     -35.057  24.326   4.322  0.00  0.00    +0.123 C 
ATOM     10  C   UNL     1     -32.638  27.743   4.983  0.00  0.00    +0.266 C 
ATOM     11  C   UNL     1     -34.347  26.077   5.869  0.00  0.00    +0.007 C 
ATOM     12  C   UNL     1     -35.119  24.945   5.584  0.00  0.00    +0.020 C 
ATOM     13  H   UNL     1     -31.316  28.619   3.569  0.00  0.00    +0.177 HD
ENDROOT
BRANCH   9  14
ATOM     14  S   UNL     1     -36.039  22.914   4.006  0.00  0.00    +0.057 S 
ATOM     15  O   UNL     1     -37.392  23.357   3.704  0.00  0.00    -0.153 OA
ATOM     16  O   UNL     1     -35.328  22.061   3.065  0.00  0.00    -0.153 OA
BRANCH  14  17
ATOM     17  N   UNL     1     -36.032  22.165   5.541  0.00  0.00    -0.203 NA
ATOM     18  H   UNL     1     -35.215  22.477   6.067  0.00  0.00    +0.144 HD
ATOM     19  H   UNL     1     -35.995  21.153   5.425  0.00  0.00    +0.144 HD
ENDBRANCH  14  17
ENDBRANCH   9  14
TORSDOF 2
ENDMDL
MODEL 2
REMARK VINA RESULT:      -5.8      2.107      5.238
REMARK  Name = 57407714
REMARK  2 active torsions:
REMARK  status: ('A' for Active; 'I' for Inactive)
REMARK    1  A    between atoms: C_9  and  S_14
REMARK    2  A    between atoms: S_14  and  N_17
REMARK                            x       y       z     vdW  Elec       q    Type
REMARK                         _______ _______ _______ _____ _____    ______ ____
ROOT
ATOM      1  S   UNL     1     -36.695  22.874   3.139  0.00  0.00    +0.076 S 
ATOM      2  O   UNL     1     -38.110  23.175   3.115  0.00  0.00    -0.150 OA
ATOM      3  O   UNL     1     -35.977  22.301   2.023  0.00  0.00    -0.150 OA
ATOM      4  O   UNL     1     -35.096  22.435   6.597  0.00  0.00    -0.269 OA
ATOM      5  N   UNL     1     -36.286  22.058   4.589  0.00  0.00    -0.181 N 
ATOM      6  C   UNL     1     -35.844  24.304   3.657  0.00  0.00    +0.131 C 
ATOM      7  C   UNL     1     -35.265  24.142   4.916  0.00  0.00    +0.074 C 
ATOM      8  C   UNL     1     -35.738  25.473   2.932  0.00  0.00    +0.040 C 
ATOM      9  C   UNL     1     -35.014  26.517   3.511  0.00  0.00    +0.123 C 
ATOM     10  C   UNL     1     -35.501  22.813   5.513  0.00  0.00    +0.266 C 
ATOM     11  C   UNL     1     -34.547  25.173   5.496  0.00  0.00    +0.007 C 
ATOM     12  C   UNL     1     -34.424  26.369   4.781  0.00  0.00    +0.020 C 
ATOM     13  H   UNL     1     -36.573  21.134   4.772  0.00  0.00    +0.177 HD
ENDROOT
BRANCH   9  14
ATOM     14  S   UNL     1     -34.837  28.028   2.650  0.00  0.00    +0.057 S 
ATOM     15  O   UNL     1     -34.539  29.073   3.618  0.00  0.00    -0.153 OA
ATOM     16  O   UNL     1     -33.946  27.812   1.519  0.00  0.00    -0.153 OA
BRANCH  14  17
ATOM     17  N   UNL     1     -36.425  28.254   2.064  0.00  0.00    -0.203 NA
ATOM     18  H   UNL     1     -36.399  28.844   1.232  0.00  0.00    +0.144 HD
ATOM     19  H   UNL     1     -36.992  28.705   2.782  0.00  0.00    +0.144 HD
ENDBRANCH  14  17
ENDBRANCH   9  14
TORSDOF 2
ENDMDL
MODEL 3
REMARK VINA RESULT:      -5.7      2.779      5.916
REMARK  Name = 57407714
REMARK  2 active torsions:
REMARK  status: ('A' for Active; 'I' for Inactive)
REMARK    1  A    between atoms: C_9  and  S_14
REMARK    2  A    between atoms: S_14  and  N_17
REMARK                            x       y       z     vdW  Elec       q    Type
REMARK                         _______ _______ _______ _____ _____    ______ ____
ROOT
ATOM      1  S   UNL     1     -35.680  21.175   2.472  0.00  0.00    +0.076 S 
ATOM      2  O   UNL     1     -34.893  21.282   1.263  0.00  0.00    -0.150 OA
ATOM      3  O   UNL     1     -35.280  20.399   3.624  0.00  0.00    -0.150 OA
ATOM      4  O   UNL     1     -39.425  21.938   2.152  0.00  0.00    -0.269 OA
ATOM      5  N   UNL     1     -37.320  20.863   2.087  0.00  0.00    -0.181 N 
ATOM      6  C   UNL     1     -36.072  22.785   3.011  0.00  0.00    +0.131 C 
ATOM      7  C   UNL     1     -37.435  23.061   2.891  0.00  0.00    +0.074 C 
ATOM      8  C   UNL     1     -35.167  23.703   3.502  0.00  0.00    +0.040 C 
ATOM      9  C   UNL     1     -35.667  24.948   3.886  0.00  0.00    +0.123 C 
ATOM     10  C   UNL     1     -38.223  21.939   2.344  0.00  0.00    +0.266 C 
ATOM     11  C   UNL     1     -37.938  24.293   3.269  0.00  0.00    +0.007 C 
ATOM     12  C   UNL     1     -37.039  25.242   3.771  0.00  0.00    +0.020 C 
ATOM     13  H   UNL     1     -37.618  20.002   1.714  0.00  0.00    +0.177 HD
ENDROOT
BRANCH   9  14
ATOM     14  S   UNL     1     -34.578  26.160   4.517  0.00  0.00    +0.057 S 
ATOM     15  O   UNL     1     -34.782  26.255   5.955  0.00  0.00    -0.153 OA
ATOM     16  O   UNL     1     -33.245  25.901   3.990  0.00  0.00    -0.153 OA
BRANCH  14  17
ATOM     17  N   UNL     1     -35.197  27.570   3.776  0.00  0.00    -0.203 NA
ATOM     18  H   UNL     1     -34.523  27.919   3.094  0.00  0.00    +0.144 HD
ATOM     19  H   UNL     1     -35.361  28.283   4.487  0.00  0.00    +0.144 HD
ENDBRANCH  14  17
ENDBRANCH   9  14
TORSDOF 2
ENDMDL
MODEL 4
REMARK VINA RESULT:      -5.6      1.845      2.029
REMARK  Name = 57407714
REMARK  2 active torsions:
REMARK  status: ('A' for Active; 'I' for Inactive)
REMARK    1  A    between atoms: C_9  and  S_14
REMARK    2  A    between atoms: S_14  and  N_17
REMARK                            x       y       z     vdW  Elec       q    Type
REMARK                         _______ _______ _______ _____ _____    ______ ____
ROOT
ATOM      1  S   UNL     1     -33.857  28.079   3.296  0.00  0.00    +0.076 S 
ATOM      2  O   UNL     1     -33.080  27.679   2.143  0.00  0.00    -0.150 OA
ATOM      3  O   UNL     1     -34.749  29.216   3.306  0.00  0.00    -0.150 OA
ATOM      4  O   UNL     1     -32.601  26.869   6.712  0.00  0.00    -0.269 OA
ATOM      5  N   UNL     1     -32.875  28.082   4.701  0.00  0.00    -0.181 N 
ATOM      6  C   UNL     1     -34.740  26.690   3.867  0.00  0.00    +0.131 C 
ATOM      7  C   UNL     1     -34.279  26.250   5.109  0.00  0.00    +0.074 C 
ATOM      8  C   UNL     1     -35.775  26.073   3.195  0.00  0.00    +0.040 C 
ATOM      9  C   UNL     1     -36.364  24.967   3.810  0.00  0.00    +0.123 C 
ATOM     10  C   UNL     1     -33.165  27.054   5.649  0.00  0.00    +0.266 C 
ATOM     11  C   UNL     1     -34.858  25.154   5.724  0.00  0.00    +0.007 C 
ATOM     12  C   UNL     1     -35.911  24.511   5.062  0.00  0.00    +0.020 C 
ATOM     13  H   UNL     1     -32.162  28.745   4.843  0.00  0.00    +0.177 HD
ENDROOT
BRANCH   9  14
ATOM     14  S   UNL     1     -37.681  24.136   3.017  0.00  0.00    +0.057 S 
ATOM     15  O   UNL     1     -38.921  24.502   3.685  0.00  0.00    -0.153 OA
ATOM     16  O   UNL     1     -37.548  24.328   1.580  0.00  0.00    -0.153 OA
BRANCH  14  17
ATOM     17  N   UNL     1     -37.310  22.511   3.390  0.00  0.00    -0.203 NA
ATOM     18  H   UNL     1     -37.248  22.401   4.403  0.00  0.00    +0.144 HD
ATOM     19  H   UNL     1     -36.418  22.260   2.966  0.00  0.00    +0.144 HD
ENDBRANCH  14  17
ENDBRANCH   9  14
TORSDOF 2
ENDMDL
MODEL 5
REMARK VINA RESULT:      -5.5      4.429      7.324
REMARK  Name = 57407714
REMARK  2 active torsions:
REMARK  status: ('A' for Active; 'I' for Inactive)
REMARK    1  A    between atoms: C_9  and  S_14
REMARK    2  A    between atoms: S_14  and  N_17
REMARK                            x       y       z     vdW  Elec       q    Type
REMARK                         _______ _______ _______ _____ _____    ______ ____
ROOT
ATOM      1  S   UNL     1     -39.228  21.381   0.712  0.00  0.00    +0.076 S 
ATOM      2  O   UNL     1     -40.350  21.051   1.563  0.00  0.00    -0.150 OA
ATOM      3  O   UNL     1     -39.199  22.524  -0.172  0.00  0.00    -0.150 OA
ATOM      4  O   UNL     1     -36.816  18.519  -0.127  0.00  0.00    -0.269 OA
ATOM      5  N   UNL     1     -38.674  19.982  -0.108  0.00  0.00    -0.181 N 
ATOM      6  C   UNL     1     -37.791  21.420   1.698  0.00  0.00    +0.131 C 
ATOM      7  C   UNL     1     -36.916  20.376   1.392  0.00  0.00    +0.074 C 
ATOM      8  C   UNL     1     -37.521  22.357   2.674  0.00  0.00    +0.040 C 
ATOM      9  C   UNL     1     -36.315  22.227   3.364  0.00  0.00    +0.123 C 
ATOM     10  C   UNL     1     -37.401  19.490   0.316  0.00  0.00    +0.266 C 
ATOM     11  C   UNL     1     -35.720  20.241   2.073  0.00  0.00    +0.007 C 
ATOM     12  C   UNL     1     -35.422  21.179   3.068  0.00  0.00    +0.020 C 
ATOM     13  H   UNL     1     -39.197  19.548  -0.820  0.00  0.00    +0.177 HD
ENDROOT
BRANCH   9  14
ATOM     14  S   UNL     1     -35.906  23.378   4.614  0.00  0.00    +0.057 S 
ATOM     15  O   UNL     1     -34.517  23.776   4.433  0.00  0.00    -0.153 OA
ATOM     16  O   UNL     1     -36.949  24.392   4.666  0.00  0.00    -0.153 OA
BRANCH  14  17
ATOM     17  N   UNL     1     -36.022  22.398   6.008  0.00  0.00    -0.203 NA
ATOM     18  H   UNL     1     -35.108  21.997   6.219  0.00  0.00    +0.144 HD
ATOM     19  H   UNL     1     -36.692  21.647   5.841  0.00  0.00    +0.144 HD
ENDBRANCH  14  17
ENDBRANCH   9  14
TORSDOF 2
ENDMDL
MODEL 6
REMARK VINA RESULT:      -5.5      3.078      3.562
REMARK  Name = 57407714
REMARK  2 active torsions:
REMARK  status: ('A' for Active; 'I' for Inactive)
REMARK    1  A    between atoms: C_9  and  S_14
REMARK    2  A    between atoms: S_14  and  N_17
REMARK                            x       y       z     vdW  Elec       q    Type
REMARK                         _______ _______ _______ _____ _____    ______ ____
ROOT
ATOM      1  S   UNL     1     -36.251  26.071   2.244  0.00  0.00    +0.076 S 
ATOM      2  O   UNL     1     -35.088  26.443   1.469  0.00  0.00    -0.150 OA
ATOM      3  O   UNL     1     -37.603  26.109   1.732  0.00  0.00    -0.150 OA
ATOM      4  O   UNL     1     -35.874  26.175   6.060  0.00  0.00    -0.269 OA
ATOM      5  N   UNL     1     -36.185  26.791   3.798  0.00  0.00    -0.181 N 
ATOM      6  C   UNL     1     -35.971  24.490   2.921  0.00  0.00    +0.131 C 
ATOM      7  C   UNL     1     -35.832  24.531   4.309  0.00  0.00    +0.074 C 
ATOM      8  C   UNL     1     -35.890  23.317   2.198  0.00  0.00    +0.040 C 
ATOM      9  C   UNL     1     -35.658  22.143   2.916  0.00  0.00    +0.123 C 
ATOM     10  C   UNL     1     -35.954  25.887   4.880  0.00  0.00    +0.266 C 
ATOM     11  C   UNL     1     -35.602  23.370   5.026  0.00  0.00    +0.007 C 
ATOM     12  C   UNL     1     -35.515  22.168   4.316  0.00  0.00    +0.020 C 
ATOM     13  H   UNL     1     -36.297  27.759   3.934  0.00  0.00    +0.177 HD
ENDROOT
BRANCH   9  14
ATOM     14  S   UNL     1     -35.544  20.619   2.066  0.00  0.00    +0.057 S 
ATOM     15  O   UNL     1     -35.621  20.886   0.637  0.00  0.00    -0.153 OA
ATOM     16  O   UNL     1     -34.413  19.876   2.604  0.00  0.00    -0.153 OA
BRANCH  14  17
ATOM     17  N   UNL     1     -36.990  19.860   2.566  0.00  0.00    -0.203 NA
ATOM     18  H   UNL     1     -37.391  20.376   3.349  0.00  0.00    +0.144 HD
ATOM     19  H   UNL     1     -36.788  18.904   2.857  0.00  0.00    +0.144 HD
ENDBRANCH  14  17
ENDBRANCH   9  14
TORSDOF 2
ENDMDL
MODEL 7
REMARK VINA RESULT:      -5.4      4.077      5.392
REMARK  Name = 57407714
REMARK  2 active torsions:
REMARK  status: ('A' for Active; 'I' for Inactive)
REMARK    1  A    between atoms: C_9  and  S_14
REMARK    2  A    between atoms: S_14  and  N_17
REMARK                            x       y       z     vdW  Elec       q    Type
REMARK                         _______ _______ _______ _____ _____    ______ ____
ROOT
ATOM      1  S   UNL     1     -38.189  24.796   3.274  0.00  0.00    +0.076 S 
ATOM      2  O   UNL     1     -37.902  25.749   2.224  0.00  0.00    -0.150 OA
ATOM      3  O   UNL     1     -39.521  24.510   3.756  0.00  0.00    -0.150 OA
ATOM      4  O   UNL     1     -35.300  23.941   5.647  0.00  0.00    -0.269 OA
ATOM      5  N   UNL     1     -37.117  25.024   4.591  0.00  0.00    -0.181 N 
ATOM      6  C   UNL     1     -37.424  23.286   2.861  0.00  0.00    +0.131 C 
ATOM      7  C   UNL     1     -36.371  22.978   3.725  0.00  0.00    +0.074 C 
ATOM      8  C   UNL     1     -37.790  22.468   1.811  0.00  0.00    +0.040 C 
ATOM      9  C   UNL     1     -37.057  21.294   1.634  0.00  0.00    +0.123 C 
ATOM     10  C   UNL     1     -36.151  23.988   4.778  0.00  0.00    +0.266 C 
ATOM     11  C   UNL     1     -35.641  21.815   3.554  0.00  0.00    +0.007 C 
ATOM     12  C   UNL     1     -35.993  20.969   2.496  0.00  0.00    +0.020 C 
ATOM     13  H   UNL     1     -37.164  25.814   5.177  0.00  0.00    +0.177 HD
ENDROOT
BRANCH   9  14
ATOM     14  S   UNL     1     -37.465  20.210   0.325  0.00  0.00    +0.057 S 
ATOM     15  O   UNL     1     -38.914  20.177   0.193  0.00  0.00    -0.153 OA
ATOM     16  O   UNL     1     -36.640  20.548  -0.827  0.00  0.00    -0.153 OA
BRANCH  14  17
ATOM     17  N   UNL     1     -36.934  18.717   0.962  0.00  0.00    -0.203 NA
ATOM     18  H   UNL     1     -36.088  18.421   0.473  0.00  0.00    +0.144 HD
ATOM     19  H   UNL     1     -37.663  18.015   0.837  0.00  0.00    +0.144 HD
ENDBRANCH  14  17
ENDBRANCH   9  14
TORSDOF 2
ENDMDL
MODEL 8
REMARK VINA RESULT:      -5.2      3.151      5.219
REMARK  Name = 57407714
REMARK  2 active torsions:
REMARK  status: ('A' for Active; 'I' for Inactive)
REMARK    1  A    between atoms: C_9  and  S_14
REMARK    2  A    between atoms: S_14  and  N_17
REMARK                            x       y       z     vdW  Elec       q    Type
REMARK                         _______ _______ _______ _____ _____    ______ ____
ROOT
ATOM      1  S   UNL     1     -34.876  23.097   0.558  0.00  0.00    +0.076 S 
ATOM      2  O   UNL     1     -35.930  23.772  -0.167  0.00  0.00    -0.150 OA
ATOM      3  O   UNL     1     -33.472  23.229   0.239  0.00  0.00    -0.150 OA
ATOM      4  O   UNL     1     -35.886  19.973   2.540  0.00  0.00    -0.269 OA
ATOM      5  N   UNL     1     -35.279  21.449   0.796  0.00  0.00    -0.181 N 
ATOM      6  C   UNL     1     -35.081  23.433   2.256  0.00  0.00    +0.131 C 
ATOM      7  C   UNL     1     -35.451  22.295   2.974  0.00  0.00    +0.074 C 
ATOM      8  C   UNL     1     -34.908  24.666   2.850  0.00  0.00    +0.040 C 
ATOM      9  C   UNL     1     -35.119  24.744   4.227  0.00  0.00    +0.123 C 
ATOM     10  C   UNL     1     -35.580  21.082   2.143  0.00  0.00    +0.266 C 
ATOM     11  C   UNL     1     -35.662  22.366   4.340  0.00  0.00    +0.007 C 
ATOM     12  C   UNL     1     -35.493  23.605   4.966  0.00  0.00    +0.020 C 
ATOM     13  H   UNL     1     -35.301  20.801   0.055  0.00  0.00    +0.177 HD
ENDROOT
BRANCH   9  14
ATOM     14  S   UNL     1     -34.918  26.274   5.048  0.00  0.00    +0.057 S 
ATOM     15  O   UNL     1     -34.053  26.065   6.200  0.00  0.00    -0.153 OA
ATOM     16  O   UNL     1     -34.575  27.286   4.058  0.00  0.00    -0.153 OA
BRANCH  14  17
ATOM     17  N   UNL     1     -36.510  26.560   5.596  0.00  0.00    -0.203 NA
ATOM     18  H   UNL     1     -37.169  26.364   4.842  0.00  0.00    +0.144 HD
ATOM     19  H   UNL     1     -36.601  27.534   5.883  0.00  0.00    +0.144 HD
ENDBRANCH  14  17
ENDBRANCH   9  14
TORSDOF 2
ENDMDL
MODEL 9
REMARK VINA RESULT:      -5.2      2.420      5.144
REMARK  Name = 57407714
REMARK  2 active torsions:
REMARK  status: ('A' for Active; 'I' for Inactive)
REMARK    1  A    between atoms: C_9  and  S_14
REMARK    2  A    between atoms: S_14  and  N_17
REMARK                            x       y       z     vdW  Elec       q    Type
REMARK                         _______ _______ _______ _____ _____    ______ ____
ROOT
ATOM      1  S   UNL     1     -36.057  26.550   1.896  0.00  0.00    +0.076 S 
ATOM      2  O   UNL     1     -36.833  27.770   1.873  0.00  0.00    -0.150 OA
ATOM      3  O   UNL     1     -35.203  26.121   0.811  0.00  0.00    -0.150 OA
ATOM      4  O   UNL     1     -37.229  23.818   4.320  0.00  0.00    -0.269 OA
ATOM      5  N   UNL     1     -37.021  25.243   2.445  0.00  0.00    -0.181 N 
ATOM      6  C   UNL     1     -35.120  26.528   3.365  0.00  0.00    +0.131 C 
ATOM      7  C   UNL     1     -35.551  25.534   4.247  0.00  0.00    +0.074 C 
ATOM      8  C   UNL     1     -34.073  27.378   3.655  0.00  0.00    +0.040 C 
ATOM      9  C   UNL     1     -33.440  27.211   4.887  0.00  0.00    +0.123 C 
ATOM     10  C   UNL     1     -36.685  24.738   3.738  0.00  0.00    +0.266 C 
ATOM     11  C   UNL     1     -34.927  25.364   5.470  0.00  0.00    +0.007 C 
ATOM     12  C   UNL     1     -33.862  26.214   5.787  0.00  0.00    +0.020 C 
ATOM     13  H   UNL     1     -37.754  24.868   1.906  0.00  0.00    +0.177 HD
ENDROOT
BRANCH   9  14
ATOM     14  S   UNL     1     -32.105  28.253   5.321  0.00  0.00    +0.057 S 
ATOM     15  O   UNL     1     -30.926  27.816   4.587  0.00  0.00    -0.153 OA
ATOM     16  O   UNL     1     -32.549  29.636   5.222  0.00  0.00    -0.153 OA
BRANCH  14  17
ATOM     17  N   UNL     1     -31.908  27.856   6.971  0.00  0.00    -0.203 NA
ATOM     18  H   UNL     1     -31.881  28.712   7.525  0.00  0.00    +0.144 HD
ATOM     19  H   UNL     1     -31.034  27.344   7.095  0.00  0.00    +0.144 HD
ENDBRANCH  14  17
ENDBRANCH   9  14
TORSDOF 2
ENDMDL
