MODEL 1
REMARK VINA RESULT:      -6.7      0.000      0.000
REMARK  Name = 213049
REMARK  9 active torsions:
REMARK  status: ('A' for Active; 'I' for Inactive)
REMARK    1  A    between atoms: C_3  and  C_13
REMARK    2  A    between atoms: C_4  and  N_25
REMARK    3  A    between atoms: C_16  and  C_17
REMARK    4  A    between atoms: C_17  and  O_18
REMARK    5  A    between atoms: C_17  and  C_20
REMARK    6  A    between atoms: C_20  and  O_21
REMARK    7  A    between atoms: C_26  and  C_29
REMARK    8  A    between atoms: C_29  and  O_30
REMARK    9  A    between atoms: O_30  and  C_33
REMARK                            x       y       z     vdW  Elec       q    Type
REMARK                         _______ _______ _______ _____ _____    ______ ____
ROOT
ATOM      1  F   UNL     1     -33.902  24.418   1.224  0.00  0.00    -0.204 F 
ATOM      2  F   UNL     1     -36.090  23.714   5.388  0.00  0.00    -0.204 F 
ATOM      3  C   UNL     1     -35.015  24.032   3.292  0.00  0.00    +0.051 C 
ATOM      4  C   UNL     1     -33.727  26.271   4.346  0.00  0.00    +0.062 C 
ATOM      5  C   UNL     1     -34.137  24.771   2.498  0.00  0.00    +0.143 C 
ATOM      6  C   UNL     1     -35.248  24.413   4.613  0.00  0.00    +0.143 C 
ATOM      7  C   UNL     1     -33.493  25.890   3.024  0.00  0.00    +0.045 C 
ATOM      8  C   UNL     1     -34.604  25.532   5.140  0.00  0.00    +0.045 C 
ENDROOT
BRANCH   3  13
ATOM      9  O   UNL     1     -38.528  20.077  -0.184  0.00  0.00    -0.272 OA
ATOM     10  N   UNL     1     -37.006  20.651   1.481  0.00  0.00    -0.273 N 
ATOM     11  C   UNL     1     -37.032  23.042   2.054  0.00  0.00    +0.048 C 
ATOM     12  C   UNL     1     -37.832  21.745   1.991  0.00  0.00    +0.098 C 
ATOM     13  C   UNL     1     -35.698  22.843   2.731  0.00  0.00    -0.019 C 
ATOM     14  C   UNL     1     -35.771  20.373   2.225  0.00  0.00    +0.120 C 
ATOM     15  C   UNL     1     -35.151  21.614   2.801  0.00  0.00    -0.009 C 
ATOM     16  C   UNL     1     -37.491  19.849   0.443  0.00  0.00    +0.255 C 
BRANCH  16  17
ATOM     17  C   UNL     1     -36.662  18.639   0.089  0.00  0.00    +0.217 C 
BRANCH  17  18
ATOM     18  O   UNL     1     -37.469  17.523   0.405  0.00  0.00    -0.374 OA
ATOM     19  H   UNL     1     -38.402  17.748   0.268  0.00  0.00    +0.211 HD
ENDBRANCH  17  18
BRANCH  17  20
ATOM     20  C   UNL     1     -36.342  18.626  -1.389  0.00  0.00    +0.176 C 
BRANCH  20  21
ATOM     21  O   UNL     1     -36.228  19.960  -1.865  0.00  0.00    -0.379 OA
ATOM     22  H   UNL     1     -36.132  19.952  -2.830  0.00  0.00    +0.211 HD
ENDBRANCH  20  21
ENDBRANCH  17  20
ENDBRANCH  16  17
ENDBRANCH   3  13
BRANCH   4  25
ATOM     23  O   UNL     1     -32.082  28.861   6.307  0.00  0.00    -0.432 OA
ATOM     24  O   UNL     1     -32.826  26.905   7.181  0.00  0.00    -0.226 OA
ATOM     25  N   UNL     1     -33.070  27.415   4.883  0.00  0.00    -0.221 N 
ATOM     26  C   UNL     1     -31.864  29.387   4.990  0.00  0.00    +0.234 C 
ATOM     27  C   UNL     1     -32.811  28.600   4.111  0.00  0.00    +0.149 C 
ATOM     28  C   UNL     1     -32.680  27.625   6.204  0.00  0.00    +0.409 C 
BRANCH  26  29
ATOM     29  C   UNL     1     -30.400  29.193   4.620  0.00  0.00    +0.252 C 
BRANCH  29  30
ATOM     30  O   UNL     1     -29.625  29.216   5.807  0.00  0.00    -0.454 OA
BRANCH  30  33
ATOM     31  O   UNL     1     -27.694  26.354   5.521  0.00  0.00    -0.347 OA
ATOM     32  N   UNL     1     -28.550  27.316   4.998  0.00  0.00    -0.039 NA
ATOM     33  C   UNL     1     -28.799  28.145   6.015  0.00  0.00    +0.264 C 
ATOM     34  C   UNL     1     -28.135  27.762   7.193  0.00  0.00    +0.104 C 
ATOM     35  C   UNL     1     -27.454  26.630   6.829  0.00  0.00    +0.217 C 
ENDBRANCH  30  33
ENDBRANCH  29  30
ENDBRANCH  26  29
ENDBRANCH   4  25
TORSDOF 9
ENDMDL
MODEL 2
REMARK VINA RESULT:      -6.7      0.325      1.477
REMARK  Name = 213049
REMARK  9 active torsions:
REMARK  status: ('A' for Active; 'I' for Inactive)
REMARK    1  A    between atoms: C_3  and  C_13
REMARK    2  A    between atoms: C_4  and  N_25
REMARK    3  A    between atoms: C_16  and  C_17
REMARK    4  A    between atoms: C_17  and  O_18
REMARK    5  A    between atoms: C_17  and  C_20
REMARK    6  A    between atoms: C_20  and  O_21
REMARK    7  A    between atoms: C_26  and  C_29
REMARK    8  A    between atoms: C_29  and  O_30
REMARK    9  A    between atoms: O_30  and  C_33
REMARK                            x       y       z     vdW  Elec       q    Type
REMARK                         _______ _______ _______ _____ _____    ______ ____
ROOT
ATOM      1  F   UNL     1     -35.911  23.750   5.581  0.00  0.00    -0.204 F 
ATOM      2  F   UNL     1     -33.943  24.624   1.340  0.00  0.00    -0.204 F 
ATOM      3  C   UNL     1     -34.948  24.155   3.443  0.00  0.00    +0.051 C 
ATOM      4  C   UNL     1     -33.593  26.342   4.524  0.00  0.00    +0.062 C 
ATOM      5  C   UNL     1     -35.108  24.480   4.790  0.00  0.00    +0.143 C 
ATOM      6  C   UNL     1     -34.110  24.924   2.636  0.00  0.00    +0.143 C 
ATOM      7  C   UNL     1     -34.431  25.573   5.331  0.00  0.00    +0.045 C 
ATOM      8  C   UNL     1     -33.432  26.017   3.176  0.00  0.00    +0.045 C 
ENDROOT
BRANCH   3  13
ATOM      9  O   UNL     1     -38.712  20.379   0.033  0.00  0.00    -0.272 OA
ATOM     10  N   UNL     1     -37.062  20.868   1.599  0.00  0.00    -0.273 N 
ATOM     11  C   UNL     1     -37.055  23.220   2.317  0.00  0.00    +0.048 C 
ATOM     12  C   UNL     1     -37.849  21.919   2.241  0.00  0.00    +0.098 C 
ATOM     13  C   UNL     1     -35.668  22.995   2.870  0.00  0.00    -0.019 C 
ATOM     14  C   UNL     1     -35.767  20.559   2.221  0.00  0.00    +0.120 C 
ATOM     15  C   UNL     1     -35.110  21.770   2.819  0.00  0.00    -0.009 C 
ATOM     16  C   UNL     1     -37.626  20.125   0.559  0.00  0.00    +0.255 C 
BRANCH  16  17
ATOM     17  C   UNL     1     -36.822  18.947   0.064  0.00  0.00    +0.217 C 
BRANCH  17  18
ATOM     18  O   UNL     1     -37.358  17.819   0.725  0.00  0.00    -0.374 OA
ATOM     19  H   UNL     1     -37.547  18.045   1.650  0.00  0.00    +0.211 HD
ENDBRANCH  17  18
BRANCH  17  20
ATOM     20  C   UNL     1     -36.985  18.780  -1.430  0.00  0.00    +0.176 C 
BRANCH  20  21
ATOM     21  O   UNL     1     -36.788  20.030  -2.076  0.00  0.00    -0.379 OA
ATOM     22  H   UNL     1     -36.627  19.883  -3.021  0.00  0.00    +0.211 HD
ENDBRANCH  20  21
ENDBRANCH  17  20
ENDBRANCH  16  17
ENDBRANCH   3  13
BRANCH   4  25
ATOM     23  O   UNL     1     -31.873  28.856   6.518  0.00  0.00    -0.432 OA
ATOM     24  O   UNL     1     -32.701  26.925   7.373  0.00  0.00    -0.226 OA
ATOM     25  N   UNL     1     -32.899  27.456   5.075  0.00  0.00    -0.221 N 
ATOM     26  C   UNL     1     -31.619  29.380   5.207  0.00  0.00    +0.234 C 
ATOM     27  C   UNL     1     -32.586  28.635   4.313  0.00  0.00    +0.149 C 
ATOM     28  C   UNL     1     -32.517  27.644   6.401  0.00  0.00    +0.409 C 
BRANCH  26  29
ATOM     29  C   UNL     1     -30.160  29.132   4.853  0.00  0.00    +0.252 C 
BRANCH  29  30
ATOM     30  O   UNL     1     -29.396  29.134   6.047  0.00  0.00    -0.454 OA
BRANCH  30  33
ATOM     31  O   UNL     1     -27.545  26.220   5.762  0.00  0.00    -0.347 OA
ATOM     32  N   UNL     1     -28.431  27.168   5.262  0.00  0.00    -0.039 NA
ATOM     33  C   UNL     1     -28.572  28.061   6.244  0.00  0.00    +0.264 C 
ATOM     34  C   UNL     1     -27.807  27.735   7.378  0.00  0.00    +0.104 C 
ATOM     35  C   UNL     1     -27.181  26.569   7.024  0.00  0.00    +0.217 C 
ENDBRANCH  30  33
ENDBRANCH  29  30
ENDBRANCH  26  29
ENDBRANCH   4  25
TORSDOF 9
ENDMDL
MODEL 3
REMARK VINA RESULT:      -6.4      2.966     10.553
REMARK  Name = 213049
REMARK  9 active torsions:
REMARK  status: ('A' for Active; 'I' for Inactive)
REMARK    1  A    between atoms: C_3  and  C_13
REMARK    2  A    between atoms: C_4  and  N_25
REMARK    3  A    between atoms: C_16  and  C_17
REMARK    4  A    between atoms: C_17  and  O_18
REMARK    5  A    between atoms: C_17  and  C_20
REMARK    6  A    between atoms: C_20  and  O_21
REMARK    7  A    between atoms: C_26  and  C_29
REMARK    8  A    between atoms: C_29  and  O_30
REMARK    9  A    between atoms: O_30  and  C_33
REMARK                            x       y       z     vdW  Elec       q    Type
REMARK                         _______ _______ _______ _____ _____    ______ ____
ROOT
ATOM      1  F   UNL     1     -32.912  27.376   7.454  0.00  0.00    -0.204 F 
ATOM      2  F   UNL     1     -32.254  27.784   2.761  0.00  0.00    -0.204 F 
ATOM      3  C   UNL     1     -32.554  27.610   5.113  0.00  0.00    +0.051 C 
ATOM      4  C   UNL     1     -34.425  25.587   4.676  0.00  0.00    +0.062 C 
ATOM      5  C   UNL     1     -33.189  27.000   6.196  0.00  0.00    +0.143 C 
ATOM      6  C   UNL     1     -32.854  27.207   3.812  0.00  0.00    +0.143 C 
ATOM      7  C   UNL     1     -34.125  25.990   5.977  0.00  0.00    +0.045 C 
ATOM      8  C   UNL     1     -33.790  26.196   3.593  0.00  0.00    +0.045 C 
ENDROOT
BRANCH   3  13
ATOM      9  O   UNL     1     -27.228  30.961   5.796  0.00  0.00    -0.272 OA
ATOM     10  N   UNL     1     -29.531  30.647   5.671  0.00  0.00    -0.273 N 
ATOM     11  C   UNL     1     -30.217  28.298   5.916  0.00  0.00    +0.048 C 
ATOM     12  C   UNL     1     -29.517  29.489   6.564  0.00  0.00    +0.098 C 
ATOM     13  C   UNL     1     -31.560  28.684   5.346  0.00  0.00    -0.019 C 
ATOM     14  C   UNL     1     -30.853  31.102   5.223  0.00  0.00    +0.120 C 
ATOM     15  C   UNL     1     -31.824  29.970   5.047  0.00  0.00    -0.009 C 
ATOM     16  C   UNL     1     -28.341  31.337   5.422  0.00  0.00    +0.255 C 
BRANCH  16  17
ATOM     17  C   UNL     1     -28.463  32.619   4.634  0.00  0.00    +0.217 C 
BRANCH  17  18
ATOM     18  O   UNL     1     -27.546  33.515   5.227  0.00  0.00    -0.374 OA
ATOM     19  H   UNL     1     -26.688  33.444   4.780  0.00  0.00    +0.211 HD
ENDBRANCH  17  18
BRANCH  17  20
ATOM     20  C   UNL     1     -28.082  32.392   3.187  0.00  0.00    +0.176 C 
BRANCH  20  21
ATOM     21  O   UNL     1     -27.380  31.164   3.064  0.00  0.00    -0.379 OA
ATOM     22  H   UNL     1     -26.899  30.982   3.887  0.00  0.00    +0.211 HD
ENDBRANCH  20  21
ENDBRANCH  17  20
ENDBRANCH  16  17
ENDBRANCH   3  13
BRANCH   4  25
ATOM     23  O   UNL     1     -37.279  23.456   3.917  0.00  0.00    -0.432 OA
ATOM     24  O   UNL     1     -37.302  25.713   3.694  0.00  0.00    -0.226 OA
ATOM     25  N   UNL     1     -35.382  24.556   4.452  0.00  0.00    -0.221 N 
ATOM     26  C   UNL     1     -36.277  22.448   4.118  0.00  0.00    +0.234 C 
ATOM     27  C   UNL     1     -35.140  23.181   4.796  0.00  0.00    +0.149 C 
ATOM     28  C   UNL     1     -36.687  24.698   3.988  0.00  0.00    +0.409 C 
BRANCH  26  29
ATOM     29  C   UNL     1     -35.893  21.862   2.768  0.00  0.00    +0.252 C 
BRANCH  29  30
ATOM     30  O   UNL     1     -35.187  20.651   2.983  0.00  0.00    -0.454 OA
BRANCH  30  33
ATOM     31  O   UNL     1     -35.347  18.895   0.001  0.00  0.00    -0.347 OA
ATOM     32  N   UNL     1     -35.913  19.689   0.992  0.00  0.00    -0.039 NA
ATOM     33  C   UNL     1     -34.932  19.890   1.875  0.00  0.00    +0.264 C 
ATOM     34  C   UNL     1     -33.736  19.255   1.500  0.00  0.00    +0.104 C 
ATOM     35  C   UNL     1     -34.050  18.642   0.315  0.00  0.00    +0.217 C 
ENDBRANCH  30  33
ENDBRANCH  29  30
ENDBRANCH  26  29
ENDBRANCH   4  25
TORSDOF 9
ENDMDL
MODEL 4
REMARK VINA RESULT:      -6.3      3.167      5.632
REMARK  Name = 213049
REMARK  9 active torsions:
REMARK  status: ('A' for Active; 'I' for Inactive)
REMARK    1  A    between atoms: C_3  and  C_13
REMARK    2  A    between atoms: C_4  and  N_25
REMARK    3  A    between atoms: C_16  and  C_17
REMARK    4  A    between atoms: C_17  and  O_18
REMARK    5  A    between atoms: C_17  and  C_20
REMARK    6  A    between atoms: C_20  and  O_21
REMARK    7  A    between atoms: C_26  and  C_29
REMARK    8  A    between atoms: C_29  and  O_30
REMARK    9  A    between atoms: O_30  and  C_33
REMARK                            x       y       z     vdW  Elec       q    Type
REMARK                         _______ _______ _______ _____ _____    ______ ____
ROOT
ATOM      1  F   UNL     1     -38.355  20.762   0.013  0.00  0.00    -0.204 F 
ATOM      2  F   UNL     1     -34.193  19.031   1.531  0.00  0.00    -0.204 F 
ATOM      3  C   UNL     1     -36.273  19.869   0.741  0.00  0.00    +0.051 C 
ATOM      4  C   UNL     1     -36.233  21.763   2.789  0.00  0.00    +0.062 C 
ATOM      5  C   UNL     1     -37.320  20.782   0.868  0.00  0.00    +0.143 C 
ATOM      6  C   UNL     1     -35.206  19.903   1.639  0.00  0.00    +0.143 C 
ATOM      7  C   UNL     1     -37.301  21.729   1.892  0.00  0.00    +0.045 C 
ATOM      8  C   UNL     1     -35.186  20.850   2.662  0.00  0.00    +0.045 C 
ENDROOT
BRANCH   3  13
ATOM      9  O   UNL     1     -34.818  16.147  -4.167  0.00  0.00    -0.272 OA
ATOM     10  N   UNL     1     -36.140  16.918  -2.414  0.00  0.00    -0.273 N 
ATOM     11  C   UNL     1     -35.474  19.135  -1.583  0.00  0.00    +0.048 C 
ATOM     12  C   UNL     1     -35.968  18.324  -2.777  0.00  0.00    +0.098 C 
ATOM     13  C   UNL     1     -36.295  18.863  -0.346  0.00  0.00    -0.019 C 
ATOM     14  C   UNL     1     -37.046  16.647  -1.290  0.00  0.00    +0.120 C 
ATOM     15  C   UNL     1     -37.007  17.724  -0.244  0.00  0.00    -0.009 C 
ATOM     16  C   UNL     1     -35.579  15.925  -3.222  0.00  0.00    +0.255 C 
BRANCH  16  17
ATOM     17  C   UNL     1     -35.943  14.500  -2.882  0.00  0.00    +0.217 C 
BRANCH  17  18
ATOM     18  O   UNL     1     -36.161  13.860  -4.123  0.00  0.00    -0.374 OA
ATOM     19  H   UNL     1     -36.622  13.020  -3.977  0.00  0.00    +0.211 HD
ENDBRANCH  17  18
BRANCH  17  20
ATOM     20  C   UNL     1     -34.804  13.818  -2.157  0.00  0.00    +0.176 C 
BRANCH  20  21
ATOM     21  O   UNL     1     -35.049  13.836  -0.758  0.00  0.00    -0.379 OA
ATOM     22  H   UNL     1     -35.097  12.926  -0.426  0.00  0.00    +0.211 HD
ENDBRANCH  20  21
ENDBRANCH  17  20
ENDBRANCH  16  17
ENDBRANCH   3  13
BRANCH   4  25
ATOM     23  O   UNL     1     -35.892  23.742   5.827  0.00  0.00    -0.432 OA
ATOM     24  O   UNL     1     -35.216  21.584   5.650  0.00  0.00    -0.226 OA
ATOM     25  N   UNL     1     -36.214  22.729   3.835  0.00  0.00    -0.221 N 
ATOM     26  C   UNL     1     -36.305  24.773   4.918  0.00  0.00    +0.234 C 
ATOM     27  C   UNL     1     -36.832  24.022   3.715  0.00  0.00    +0.149 C 
ATOM     28  C   UNL     1     -35.716  22.569   5.126  0.00  0.00    +0.409 C 
BRANCH  26  29
ATOM     29  C   UNL     1     -35.106  25.653   4.597  0.00  0.00    +0.252 C 
BRANCH  29  30
ATOM     30  O   UNL     1     -34.233  25.656   5.714  0.00  0.00    -0.454 OA
BRANCH  30  33
ATOM     31  O   UNL     1     -32.451  28.596   5.284  0.00  0.00    -0.347 OA
ATOM     32  N   UNL     1     -33.323  27.610   4.836  0.00  0.00    -0.039 NA
ATOM     33  C   UNL     1     -33.427  26.753   5.854  0.00  0.00    +0.264 C 
ATOM     34  C   UNL     1     -32.652  27.140   6.961  0.00  0.00    +0.104 C 
ATOM     35  C   UNL     1     -32.058  28.305   6.551  0.00  0.00    +0.217 C 
ENDBRANCH  30  33
ENDBRANCH  29  30
ENDBRANCH  26  29
ENDBRANCH   4  25
TORSDOF 9
ENDMDL
MODEL 5
REMARK VINA RESULT:      -6.3      7.697     10.365
REMARK  Name = 213049
REMARK  9 active torsions:
REMARK  status: ('A' for Active; 'I' for Inactive)
REMARK    1  A    between atoms: C_3  and  C_13
REMARK    2  A    between atoms: C_4  and  N_25
REMARK    3  A    between atoms: C_16  and  C_17
REMARK    4  A    between atoms: C_17  and  O_18
REMARK    5  A    between atoms: C_17  and  C_20
REMARK    6  A    between atoms: C_20  and  O_21
REMARK    7  A    between atoms: C_26  and  C_29
REMARK    8  A    between atoms: C_29  and  O_30
REMARK    9  A    between atoms: O_30  and  C_33
REMARK                            x       y       z     vdW  Elec       q    Type
REMARK                         _______ _______ _______ _____ _____    ______ ____
ROOT
ATOM      1  F   UNL     1     -39.984  26.270  -0.034  0.00  0.00    -0.204 F 
ATOM      2  F   UNL     1     -40.905  25.601   4.583  0.00  0.00    -0.204 F 
ATOM      3  C   UNL     1     -40.410  25.912   2.279  0.00  0.00    +0.051 C 
ATOM      4  C   UNL     1     -42.673  27.529   2.060  0.00  0.00    +0.062 C 
ATOM      5  C   UNL     1     -40.742  26.486   1.051  0.00  0.00    +0.143 C 
ATOM      6  C   UNL     1     -41.210  26.147   3.397  0.00  0.00    +0.143 C 
ATOM      7  C   UNL     1     -41.874  27.294   0.942  0.00  0.00    +0.045 C 
ATOM      8  C   UNL     1     -42.341  26.955   3.289  0.00  0.00    +0.045 C 
ENDROOT
BRANCH   3  13
ATOM      9  O   UNL     1     -34.665  23.586   3.561  0.00  0.00    -0.272 OA
ATOM     10  N   UNL     1     -36.856  23.504   2.781  0.00  0.00    -0.273 N 
ATOM     11  C   UNL     1     -37.856  25.723   2.428  0.00  0.00    +0.048 C 
ATOM     12  C   UNL     1     -36.740  24.759   2.039  0.00  0.00    +0.098 C 
ATOM     13  C   UNL     1     -39.208  25.053   2.394  0.00  0.00    -0.019 C 
ATOM     14  C   UNL     1     -38.130  22.786   2.639  0.00  0.00    +0.120 C 
ATOM     15  C   UNL     1     -39.302  23.713   2.485  0.00  0.00    -0.009 C 
ATOM     16  C   UNL     1     -35.737  22.988   3.439  0.00  0.00    +0.255 C 
BRANCH  16  17
ATOM     17  C   UNL     1     -35.887  21.609   4.035  0.00  0.00    +0.217 C 
BRANCH  17  18
ATOM     18  O   UNL     1     -35.247  20.734   3.128  0.00  0.00    -0.374 OA
ATOM     19  H   UNL     1     -35.077  19.884   3.563  0.00  0.00    +0.211 HD
ENDBRANCH  17  18
BRANCH  17  20
ATOM     20  C   UNL     1     -35.200  21.532   5.380  0.00  0.00    +0.176 C 
BRANCH  20  21
ATOM     21  O   UNL     1     -36.092  21.963   6.398  0.00  0.00    -0.379 OA
ATOM     22  H   UNL     1     -36.643  21.217   6.681  0.00  0.00    +0.211 HD
ENDBRANCH  20  21
ENDBRANCH  17  20
ENDBRANCH  16  17
ENDBRANCH   3  13
BRANCH   4  25
ATOM     23  O   UNL     1     -45.971  29.055   1.826  0.00  0.00    -0.432 OA
ATOM     24  O   UNL     1     -45.633  26.824   2.056  0.00  0.00    -0.226 OA
ATOM     25  N   UNL     1     -43.829  28.353   1.949  0.00  0.00    -0.221 N 
ATOM     26  C   UNL     1     -45.170  30.239   1.949  0.00  0.00    +0.234 C 
ATOM     27  C   UNL     1     -43.758  29.765   1.686  0.00  0.00    +0.149 C 
ATOM     28  C   UNL     1     -45.162  27.949   1.965  0.00  0.00    +0.409 C 
BRANCH  26  29
ATOM     29  C   UNL     1     -45.359  30.817   3.344  0.00  0.00    +0.252 C 
BRANCH  29  30
ATOM     30  O   UNL     1     -44.133  30.715   4.048  0.00  0.00    -0.454 OA
BRANCH  30  33
ATOM     31  O   UNL     1     -43.537  30.043   7.394  0.00  0.00    -0.347 OA
ATOM     32  N   UNL     1     -43.138  30.493   6.140  0.00  0.00    -0.039 NA
ATOM     33  C   UNL     1     -44.214  30.349   5.363  0.00  0.00    +0.264 C 
ATOM     34  C   UNL     1     -45.312  29.818   6.063  0.00  0.00    +0.104 C 
ATOM     35  C   UNL     1     -44.834  29.643   7.335  0.00  0.00    +0.217 C 
ENDBRANCH  30  33
ENDBRANCH  29  30
ENDBRANCH  26  29
ENDBRANCH   4  25
TORSDOF 9
ENDMDL
MODEL 6
REMARK VINA RESULT:      -6.2      2.379      3.776
REMARK  Name = 213049
REMARK  9 active torsions:
REMARK  status: ('A' for Active; 'I' for Inactive)
REMARK    1  A    between atoms: C_3  and  C_13
REMARK    2  A    between atoms: C_4  and  N_25
REMARK    3  A    between atoms: C_16  and  C_17
REMARK    4  A    between atoms: C_17  and  O_18
REMARK    5  A    between atoms: C_17  and  C_20
REMARK    6  A    between atoms: C_20  and  O_21
REMARK    7  A    between atoms: C_26  and  C_29
REMARK    8  A    between atoms: C_29  and  O_30
REMARK    9  A    between atoms: O_30  and  C_33
REMARK                            x       y       z     vdW  Elec       q    Type
REMARK                         _______ _______ _______ _____ _____    ______ ____
ROOT
ATOM      1  F   UNL     1     -33.361  22.552  -0.376  0.00  0.00    -0.204 F 
ATOM      2  F   UNL     1     -36.319  20.819   2.921  0.00  0.00    -0.204 F 
ATOM      3  C   UNL     1     -34.839  21.648   1.254  0.00  0.00    +0.051 C 
ATOM      4  C   UNL     1     -34.878  24.132   2.523  0.00  0.00    +0.062 C 
ATOM      5  C   UNL     1     -34.098  22.709   0.735  0.00  0.00    +0.143 C 
ATOM      6  C   UNL     1     -35.600  21.829   2.409  0.00  0.00    +0.143 C 
ATOM      7  C   UNL     1     -34.118  23.951   1.368  0.00  0.00    +0.045 C 
ATOM      8  C   UNL     1     -35.620  23.070   3.044  0.00  0.00    +0.045 C 
ENDROOT
BRANCH   3  13
ATOM      9  O   UNL     1     -34.566  15.462  -0.058  0.00  0.00    -0.272 OA
ATOM     10  N   UNL     1     -34.850  17.719  -0.547  0.00  0.00    -0.273 N 
ATOM     11  C   UNL     1     -34.014  19.219   1.214  0.00  0.00    +0.048 C 
ATOM     12  C   UNL     1     -33.665  18.129   0.205  0.00  0.00    +0.098 C 
ATOM     13  C   UNL     1     -34.818  20.329   0.580  0.00  0.00    -0.019 C 
ATOM     14  C   UNL     1     -35.555  18.784  -1.273  0.00  0.00    +0.120 C 
ATOM     15  C   UNL     1     -35.504  20.104  -0.556  0.00  0.00    -0.009 C 
ATOM     16  C   UNL     1     -35.154  16.360  -0.664  0.00  0.00    +0.255 C 
BRANCH  16  17
ATOM     17  C   UNL     1     -36.288  16.006  -1.596  0.00  0.00    +0.217 C 
BRANCH  17  18
ATOM     18  O   UNL     1     -35.822  14.910  -2.357  0.00  0.00    -0.374 OA
ATOM     19  H   UNL     1     -35.063  14.504  -1.911  0.00  0.00    +0.211 HD
ENDBRANCH  17  18
BRANCH  17  20
ATOM     20  C   UNL     1     -37.512  15.589  -0.811  0.00  0.00    +0.176 C 
BRANCH  20  21
ATOM     21  O   UNL     1     -37.267  15.751   0.579  0.00  0.00    -0.379 OA
ATOM     22  H   UNL     1     -36.318  15.890   0.726  0.00  0.00    +0.211 HD
ENDBRANCH  20  21
ENDBRANCH  17  20
ENDBRANCH  16  17
ENDBRANCH   3  13
BRANCH   4  25
ATOM     23  O   UNL     1     -34.907  27.015   4.749  0.00  0.00    -0.432 OA
ATOM     24  O   UNL     1     -34.826  24.867   5.475  0.00  0.00    -0.226 OA
ATOM     25  N   UNL     1     -34.900  25.401   3.170  0.00  0.00    -0.221 N 
ATOM     26  C   UNL     1     -34.739  27.687   3.492  0.00  0.00    +0.234 C 
ATOM     27  C   UNL     1     -35.078  26.637   2.457  0.00  0.00    +0.149 C 
ATOM     28  C   UNL     1     -34.863  25.654   4.540  0.00  0.00    +0.409 C 
BRANCH  26  29
ATOM     29  C   UNL     1     -33.305  28.188   3.391  0.00  0.00    +0.252 C 
BRANCH  29  30
ATOM     30  O   UNL     1     -33.098  29.175   4.388  0.00  0.00    -0.454 OA
BRANCH  30  33
ATOM     31  O   UNL     1     -30.358  27.968   6.131  0.00  0.00    -0.347 OA
ATOM     32  N   UNL     1     -31.426  27.807   5.256  0.00  0.00    -0.039 NA
ATOM     33  C   UNL     1     -32.000  29.011   5.187  0.00  0.00    +0.264 C 
ATOM     34  C   UNL     1     -31.344  29.963   5.987  0.00  0.00    +0.104 C 
ATOM     35  C   UNL     1     -30.319  29.256   6.559  0.00  0.00    +0.217 C 
ENDBRANCH  30  33
ENDBRANCH  29  30
ENDBRANCH  26  29
ENDBRANCH   4  25
TORSDOF 9
ENDMDL
MODEL 7
REMARK VINA RESULT:      -6.2      5.105      7.751
REMARK  Name = 213049
REMARK  9 active torsions:
REMARK  status: ('A' for Active; 'I' for Inactive)
REMARK    1  A    between atoms: C_3  and  C_13
REMARK    2  A    between atoms: C_4  and  N_25
REMARK    3  A    between atoms: C_16  and  C_17
REMARK    4  A    between atoms: C_17  and  O_18
REMARK    5  A    between atoms: C_17  and  C_20
REMARK    6  A    between atoms: C_20  and  O_21
REMARK    7  A    between atoms: C_26  and  C_29
REMARK    8  A    between atoms: C_29  and  O_30
REMARK    9  A    between atoms: O_30  and  C_33
REMARK                            x       y       z     vdW  Elec       q    Type
REMARK                         _______ _______ _______ _____ _____    ______ ____
ROOT
ATOM      1  F   UNL     1     -35.039  20.882  -1.522  0.00  0.00    -0.204 F 
ATOM      2  F   UNL     1     -34.865  20.508   3.216  0.00  0.00    -0.204 F 
ATOM      3  C   UNL     1     -34.916  20.675   0.844  0.00  0.00    +0.051 C 
ATOM      4  C   UNL     1     -37.313  22.089   1.043  0.00  0.00    +0.062 C 
ATOM      5  C   UNL     1     -35.559  21.123  -0.309  0.00  0.00    +0.143 C 
ATOM      6  C   UNL     1     -35.470  20.934   2.098  0.00  0.00    +0.143 C 
ATOM      7  C   UNL     1     -36.758  21.830  -0.210  0.00  0.00    +0.045 C 
ATOM      8  C   UNL     1     -36.669  21.641   2.197  0.00  0.00    +0.045 C 
ENDROOT
BRANCH   3  13
ATOM      9  O   UNL     1     -30.514  16.171   0.212  0.00  0.00    -0.272 OA
ATOM     10  N   UNL     1     -31.295  18.353   0.423  0.00  0.00    -0.273 N 
ATOM     11  C   UNL     1     -33.619  18.492   1.214  0.00  0.00    +0.048 C 
ATOM     12  C   UNL     1     -32.201  18.023   1.522  0.00  0.00    +0.098 C 
ATOM     13  C   UNL     1     -33.642  19.924   0.739  0.00  0.00    -0.019 C 
ATOM     14  C   UNL     1     -31.220  19.772   0.050  0.00  0.00    +0.120 C 
ATOM     15  C   UNL     1     -32.533  20.483   0.220  0.00  0.00    -0.009 C 
ATOM     16  C   UNL     1     -30.456  17.363  -0.097  0.00  0.00    +0.255 C 
BRANCH  16  17
ATOM     17  C   UNL     1     -29.431  17.818  -1.107  0.00  0.00    +0.217 C 
BRANCH  17  18
ATOM     18  O   UNL     1     -28.220  17.200  -0.721  0.00  0.00    -0.374 OA
ATOM     19  H   UNL     1     -28.174  17.155   0.247  0.00  0.00    +0.211 HD
ENDBRANCH  17  18
BRANCH  17  20
ATOM     20  C   UNL     1     -29.811  17.356  -2.497  0.00  0.00    +0.176 C 
BRANCH  20  21
ATOM     21  O   UNL     1     -29.696  15.942  -2.579  0.00  0.00    -0.379 OA
ATOM     22  H   UNL     1     -30.272  15.612  -3.286  0.00  0.00    +0.211 HD
ENDBRANCH  20  21
ENDBRANCH  17  20
ENDBRANCH  16  17
ENDBRANCH   3  13
BRANCH   4  25
ATOM     23  O   UNL     1     -40.690  23.352   1.552  0.00  0.00    -0.432 OA
ATOM     24  O   UNL     1     -40.053  21.232   2.047  0.00  0.00    -0.226 OA
ATOM     25  N   UNL     1     -38.537  22.809   1.144  0.00  0.00    -0.221 N 
ATOM     26  C   UNL     1     -40.024  24.580   1.224  0.00  0.00    +0.234 C 
ATOM     27  C   UNL     1     -38.701  24.144   0.635  0.00  0.00    +0.149 C 
ATOM     28  C   UNL     1     -39.756  22.342   1.629  0.00  0.00    +0.409 C 
BRANCH  26  29
ATOM     29  C   UNL     1     -39.872  25.409   2.492  0.00  0.00    +0.252 C 
BRANCH  29  30
ATOM     30  O   UNL     1     -38.611  26.057   2.462  0.00  0.00    -0.454 OA
BRANCH  30  33
ATOM     31  O   UNL     1     -36.813  24.309   4.852  0.00  0.00    -0.347 OA
ATOM     32  N   UNL     1     -37.952  24.524   4.085  0.00  0.00    -0.039 NA
ATOM     33  C   UNL     1     -37.668  25.594   3.337  0.00  0.00    +0.264 C 
ATOM     34  C   UNL     1     -36.377  26.092   3.586  0.00  0.00    +0.104 C 
ATOM     35  C   UNL     1     -35.882  25.249   4.546  0.00  0.00    +0.217 C 
ENDBRANCH  30  33
ENDBRANCH  29  30
ENDBRANCH  26  29
ENDBRANCH   4  25
TORSDOF 9
ENDMDL
MODEL 8
REMARK VINA RESULT:      -6.1      5.964      8.064
REMARK  Name = 213049
REMARK  9 active torsions:
REMARK  status: ('A' for Active; 'I' for Inactive)
REMARK    1  A    between atoms: C_3  and  C_13
REMARK    2  A    between atoms: C_4  and  N_25
REMARK    3  A    between atoms: C_16  and  C_17
REMARK    4  A    between atoms: C_17  and  O_18
REMARK    5  A    between atoms: C_17  and  C_20
REMARK    6  A    between atoms: C_20  and  O_21
REMARK    7  A    between atoms: C_26  and  C_29
REMARK    8  A    between atoms: C_29  and  O_30
REMARK    9  A    between atoms: O_30  and  C_33
REMARK                            x       y       z     vdW  Elec       q    Type
REMARK                         _______ _______ _______ _____ _____    ______ ____
ROOT
ATOM      1  F   UNL     1     -36.958  27.802   1.305  0.00  0.00    -0.204 F 
ATOM      2  F   UNL     1     -32.829  28.685   3.492  0.00  0.00    -0.204 F 
ATOM      3  C   UNL     1     -34.892  28.204   2.413  0.00  0.00    +0.051 C 
ATOM      4  C   UNL     1     -34.924  30.811   1.418  0.00  0.00    +0.062 C 
ATOM      5  C   UNL     1     -35.948  28.632   1.609  0.00  0.00    +0.143 C 
ATOM      6  C   UNL     1     -33.851  29.080   2.719  0.00  0.00    +0.143 C 
ATOM      7  C   UNL     1     -35.965  29.935   1.112  0.00  0.00    +0.045 C 
ATOM      8  C   UNL     1     -33.866  30.383   2.222  0.00  0.00    +0.045 C 
ENDROOT
BRANCH   3  13
ATOM      9  O   UNL     1     -36.161  22.830   5.506  0.00  0.00    -0.272 OA
ATOM     10  N   UNL     1     -35.039  24.178   3.977  0.00  0.00    -0.273 N 
ATOM     11  C   UNL     1     -35.403  26.584   4.335  0.00  0.00    +0.048 C 
ATOM     12  C   UNL     1     -34.874  25.279   4.924  0.00  0.00    +0.098 C 
ATOM     13  C   UNL     1     -34.875  26.820   2.941  0.00  0.00    -0.019 C 
ATOM     14  C   UNL     1     -34.408  24.357   2.662  0.00  0.00    +0.120 C 
ATOM     15  C   UNL     1     -34.422  25.788   2.204  0.00  0.00    -0.009 C 
ATOM     16  C   UNL     1     -35.631  22.986   4.404  0.00  0.00    +0.255 C 
BRANCH  16  17
ATOM     17  C   UNL     1     -35.609  21.839   3.424  0.00  0.00    +0.217 C 
BRANCH  17  18
ATOM     18  O   UNL     1     -35.463  20.674   4.209  0.00  0.00    -0.374 OA
ATOM     19  H   UNL     1     -35.693  19.894   3.679  0.00  0.00    +0.211 HD
ENDBRANCH  17  18
BRANCH  17  20
ATOM     20  C   UNL     1     -36.911  21.769   2.656  0.00  0.00    +0.176 C 
BRANCH  20  21
ATOM     21  O   UNL     1     -37.247  20.412   2.407  0.00  0.00    -0.379 OA
ATOM     22  H   UNL     1     -38.037  20.372   1.846  0.00  0.00    +0.211 HD
ENDBRANCH  20  21
ENDBRANCH  17  20
ENDBRANCH  16  17
ENDBRANCH   3  13
BRANCH   4  25
ATOM     23  O   UNL     1     -34.763  33.930  -0.455  0.00  0.00    -0.432 OA
ATOM     24  O   UNL     1     -34.250  31.905  -1.339  0.00  0.00    -0.226 OA
ATOM     25  N   UNL     1     -34.941  32.142   0.912  0.00  0.00    -0.221 N 
ATOM     26  C   UNL     1     -35.403  34.403   0.739  0.00  0.00    +0.234 C 
ATOM     27  C   UNL     1     -35.198  33.288   1.741  0.00  0.00    +0.149 C 
ATOM     28  C   UNL     1     -34.624  32.561  -0.378  0.00  0.00    +0.409 C 
BRANCH  26  29
ATOM     29  C   UNL     1     -36.870  34.674   0.435  0.00  0.00    +0.252 C 
BRANCH  29  30
ATOM     30  O   UNL     1     -37.666  33.837   1.258  0.00  0.00    -0.454 OA
BRANCH  30  33
ATOM     31  O   UNL     1     -40.922  34.534   2.212  0.00  0.00    -0.347 OA
ATOM     32  N   UNL     1     -39.964  33.729   1.607  0.00  0.00    -0.039 NA
ATOM     33  C   UNL     1     -38.813  34.388   1.758  0.00  0.00    +0.264 C 
ATOM     34  C   UNL     1     -38.979  35.604   2.444  0.00  0.00    +0.104 C 
ATOM     35  C   UNL     1     -40.323  35.649   2.707  0.00  0.00    +0.217 C 
ENDBRANCH  30  33
ENDBRANCH  29  30
ENDBRANCH  26  29
ENDBRANCH   4  25
TORSDOF 9
ENDMDL
MODEL 9
REMARK VINA RESULT:      -6.1      5.044      7.303
REMARK  Name = 213049
REMARK  9 active torsions:
REMARK  status: ('A' for Active; 'I' for Inactive)
REMARK    1  A    between atoms: C_3  and  C_13
REMARK    2  A    between atoms: C_4  and  N_25
REMARK    3  A    between atoms: C_16  and  C_17
REMARK    4  A    between atoms: C_17  and  O_18
REMARK    5  A    between atoms: C_17  and  C_20
REMARK    6  A    between atoms: C_20  and  O_21
REMARK    7  A    between atoms: C_26  and  C_29
REMARK    8  A    between atoms: C_29  and  O_30
REMARK    9  A    between atoms: O_30  and  C_33
REMARK                            x       y       z     vdW  Elec       q    Type
REMARK                         _______ _______ _______ _____ _____    ______ ____
ROOT
ATOM      1  F   UNL     1     -32.414  22.086  -0.927  0.00  0.00    -0.204 F 
ATOM      2  F   UNL     1     -33.579  18.162   1.494  0.00  0.00    -0.204 F 
ATOM      3  C   UNL     1     -32.968  20.102   0.264  0.00  0.00    +0.051 C 
ATOM      4  C   UNL     1     -34.874  21.552   1.694  0.00  0.00    +0.062 C 
ATOM      5  C   UNL     1     -33.149  21.461   0.007  0.00  0.00    +0.143 C 
ATOM      6  C   UNL     1     -33.740  19.467   1.236  0.00  0.00    +0.143 C 
ATOM      7  C   UNL     1     -34.102  22.186   0.721  0.00  0.00    +0.045 C 
ATOM      8  C   UNL     1     -34.693  20.192   1.952  0.00  0.00    +0.045 C 
ENDROOT
BRANCH   3  13
ATOM      9  O   UNL     1     -27.937  16.675  -1.472  0.00  0.00    -0.272 OA
ATOM     10  N   UNL     1     -29.974  17.754  -1.788  0.00  0.00    -0.273 N 
ATOM     11  C   UNL     1     -30.529  19.349   0.000  0.00  0.00    +0.048 C 
ATOM     12  C   UNL     1     -29.544  18.972  -1.102  0.00  0.00    +0.098 C 
ATOM     13  C   UNL     1     -31.954  19.332  -0.496  0.00  0.00    -0.019 C 
ATOM     14  C   UNL     1     -31.315  17.789  -2.386  0.00  0.00    +0.120 C 
ATOM     15  C   UNL     1     -32.282  18.619  -1.590  0.00  0.00    -0.009 C 
ATOM     16  C   UNL     1     -29.064  16.710  -1.971  0.00  0.00    +0.255 C 
BRANCH  16  17
ATOM     17  C   UNL     1     -29.526  15.562  -2.836  0.00  0.00    +0.217 C 
BRANCH  17  18
ATOM     18  O   UNL     1     -28.395  15.179  -3.591  0.00  0.00    -0.374 OA
ATOM     19  H   UNL     1     -28.658  15.016  -4.510  0.00  0.00    +0.211 HD
ENDBRANCH  17  18
BRANCH  17  20
ATOM     20  C   UNL     1     -29.979  14.400  -1.981  0.00  0.00    +0.176 C 
BRANCH  20  21
ATOM     21  O   UNL     1     -29.447  14.534  -0.670  0.00  0.00    -0.379 OA
ATOM     22  H   UNL     1     -28.564  14.136  -0.638  0.00  0.00    +0.211 HD
ENDBRANCH  20  21
ENDBRANCH  17  20
ENDBRANCH  16  17
ENDBRANCH   3  13
BRANCH   4  25
ATOM     23  O   UNL     1     -37.060  23.187   4.104  0.00  0.00    -0.432 OA
ATOM     24  O   UNL     1     -35.343  21.824   4.687  0.00  0.00    -0.226 OA
ATOM     25  N   UNL     1     -35.849  22.291   2.423  0.00  0.00    -0.221 N 
ATOM     26  C   UNL     1     -37.495  23.844   2.905  0.00  0.00    +0.234 C 
ATOM     27  C   UNL     1     -36.927  22.998   1.787  0.00  0.00    +0.149 C 
ATOM     28  C   UNL     1     -35.991  22.371   3.806  0.00  0.00    +0.409 C 
BRANCH  26  29
ATOM     29  C   UNL     1     -36.964  25.271   2.907  0.00  0.00    +0.252 C 
BRANCH  29  30
ATOM     30  O   UNL     1     -36.922  25.738   4.245  0.00  0.00    -0.454 OA
BRANCH  30  33
ATOM     31  O   UNL     1     -33.879  27.279   4.846  0.00  0.00    -0.347 OA
ATOM     32  N   UNL     1     -35.075  27.151   4.150  0.00  0.00    -0.039 NA
ATOM     33  C   UNL     1     -35.696  26.115   4.720  0.00  0.00    +0.264 C 
ATOM     34  C   UNL     1     -34.948  25.555   5.770  0.00  0.00    +0.104 C 
ATOM     35  C   UNL     1     -33.814  26.323   5.808  0.00  0.00    +0.217 C 
ENDBRANCH  30  33
ENDBRANCH  29  30
ENDBRANCH  26  29
ENDBRANCH   4  25
TORSDOF 9
ENDMDL
