MODEL 1
REMARK VINA RESULT:      -5.4      0.000      0.000
REMARK  Name = 195031
REMARK  7 active torsions:
REMARK  status: ('A' for Active; 'I' for Inactive)
REMARK    1  A    between atoms: C_1  and  S_2
REMARK    2  A    between atoms: C_1  and  C_12
REMARK    3  A    between atoms: S_2  and  C_5
REMARK    4  A    between atoms: C_5  and  C_6
REMARK    5  A    between atoms: C_12  and  N_14
REMARK    6  A    between atoms: C_12  and  C_19
REMARK    7  A    between atoms: C_19  and  O_20
REMARK                            x       y       z     vdW  Elec       q    Type
REMARK                         _______ _______ _______ _____ _____    ______ ____
ROOT
ATOM      1  C   UNL     1     -35.334  23.055   2.727  0.00  0.00    +0.142 C 
ENDROOT
BRANCH   1   2
ATOM      2  S   UNL     1     -35.938  21.434   2.367  0.00  0.00    -0.007 S 
ATOM      3  O   UNL     1     -35.197  20.484   3.180  0.00  0.00    -0.173 OA
ATOM      4  O   UNL     1     -37.389  21.471   2.410  0.00  0.00    -0.173 OA
BRANCH   2   5
ATOM      5  C   UNL     1     -35.456  21.184   0.674  0.00  0.00    +0.177 C 
BRANCH   5   6
ATOM      6  C   UNL     1     -34.183  20.398   0.673  0.00  0.00    +0.001 C 
ATOM      7  C   UNL     1     -33.015  20.976   0.184  0.00  0.00    -0.003 C 
ATOM      8  C   UNL     1     -34.172  19.096   1.164  0.00  0.00    -0.003 C 
ATOM      9  C   UNL     1     -31.826  20.244   0.184  0.00  0.00    -0.000 C 
ATOM     10  C   UNL     1     -32.984  18.364   1.164  0.00  0.00    -0.000 C 
ATOM     11  C   UNL     1     -31.811  18.939   0.674  0.00  0.00    -0.000 C 
ENDBRANCH   5   6
ENDBRANCH   2   5
ENDBRANCH   1   2
BRANCH   1  12
ATOM     12  C   UNL     1     -35.686  23.568   4.130  0.00  0.00    +0.065 C 
ATOM     13  C   UNL     1     -34.460  24.108   4.876  0.00  0.00    -0.009 C 
BRANCH  12  14
ATOM     14  N   UNL     1     -36.224  22.440   4.906  0.00  0.00    +0.391 N 
ATOM     15  H   UNL     1     -35.830  22.456   5.847  0.00  0.00    -0.088 HD
ATOM     16  H   UNL     1     -35.976  21.562   4.449  0.00  0.00    -0.088 HD
ATOM     17  H   UNL     1     -37.239  22.518   4.962  0.00  0.00    -0.088 HD
ENDBRANCH  12  14
BRANCH  12  19
ATOM     18  O   UNL     1     -36.613  25.820   4.280  0.00  0.00    -0.253 OA
ATOM     19  C   UNL     1     -36.788  24.626   4.065  0.00  0.00    +0.296 C 
BRANCH  19  20
ATOM     20  O   UNL     1     -37.999  24.124   3.706  0.00  0.00    -0.482 OA
ATOM     21  H   UNL     1     -38.048  23.346   3.185  0.00  0.00    +0.295 HD
ENDBRANCH  19  20
ENDBRANCH  12  19
ENDBRANCH   1  12
TORSDOF 7
ENDMDL
MODEL 2
REMARK VINA RESULT:      -5.4      3.542      5.384
REMARK  Name = 195031
REMARK  7 active torsions:
REMARK  status: ('A' for Active; 'I' for Inactive)
REMARK    1  A    between atoms: C_1  and  S_2
REMARK    2  A    between atoms: C_1  and  C_12
REMARK    3  A    between atoms: S_2  and  C_5
REMARK    4  A    between atoms: C_5  and  C_6
REMARK    5  A    between atoms: C_12  and  N_14
REMARK    6  A    between atoms: C_12  and  C_19
REMARK    7  A    between atoms: C_19  and  O_20
REMARK                            x       y       z     vdW  Elec       q    Type
REMARK                         _______ _______ _______ _____ _____    ______ ____
ROOT
ATOM      1  C   UNL     1     -37.980  23.531   1.216  0.00  0.00    +0.142 C 
ENDROOT
BRANCH   1   2
ATOM      2  S   UNL     1     -37.799  24.648   2.573  0.00  0.00    -0.007 S 
ATOM      3  O   UNL     1     -38.197  25.973   2.125  0.00  0.00    -0.173 OA
ATOM      4  O   UNL     1     -38.416  24.046   3.741  0.00  0.00    -0.173 OA
BRANCH   2   5
ATOM      5  C   UNL     1     -36.043  24.678   2.848  0.00  0.00    +0.177 C 
BRANCH   5   6
ATOM      6  C   UNL     1     -35.723  23.634   3.871  0.00  0.00    +0.001 C 
ATOM      7  C   UNL     1     -35.628  23.989   5.214  0.00  0.00    -0.003 C 
ATOM      8  C   UNL     1     -35.525  22.315   3.475  0.00  0.00    -0.003 C 
ATOM      9  C   UNL     1     -35.332  23.015   6.168  0.00  0.00    -0.000 C 
ATOM     10  C   UNL     1     -35.229  21.341   4.430  0.00  0.00    -0.000 C 
ATOM     11  C   UNL     1     -35.132  21.693   5.777  0.00  0.00    -0.000 C 
ENDBRANCH   5   6
ENDBRANCH   2   5
ENDBRANCH   1   2
BRANCH   1  12
ATOM     12  C   UNL     1     -39.422  23.075   0.956  0.00  0.00    +0.065 C 
ATOM     13  C   UNL     1     -39.798  23.152  -0.529  0.00  0.00    -0.009 C 
BRANCH  12  14
ATOM     14  N   UNL     1     -40.325  23.970   1.696  0.00  0.00    +0.391 N 
ATOM     15  H   UNL     1     -40.043  24.939   1.545  0.00  0.00    -0.088 HD
ATOM     16  H   UNL     1     -40.278  23.754   2.692  0.00  0.00    -0.088 HD
ATOM     17  H   UNL     1     -41.280  23.839   1.365  0.00  0.00    -0.088 HD
ENDBRANCH  12  14
BRANCH  12  19
ATOM     18  O   UNL     1     -40.595  20.947   1.179  0.00  0.00    -0.253 OA
ATOM     19  C   UNL     1     -39.655  21.665   1.499  0.00  0.00    +0.296 C 
BRANCH  19  20
ATOM     20  O   UNL     1     -38.689  21.251   2.362  0.00  0.00    -0.482 OA
ATOM     21  H   UNL     1     -38.778  20.430   2.807  0.00  0.00    +0.295 HD
ENDBRANCH  19  20
ENDBRANCH  12  19
ENDBRANCH   1  12
TORSDOF 7
ENDMDL
MODEL 3
REMARK VINA RESULT:      -5.3      3.076      5.893
REMARK  Name = 195031
REMARK  7 active torsions:
REMARK  status: ('A' for Active; 'I' for Inactive)
REMARK    1  A    between atoms: C_1  and  S_2
REMARK    2  A    between atoms: C_1  and  C_12
REMARK    3  A    between atoms: S_2  and  C_5
REMARK    4  A    between atoms: C_5  and  C_6
REMARK    5  A    between atoms: C_12  and  N_14
REMARK    6  A    between atoms: C_12  and  C_19
REMARK    7  A    between atoms: C_19  and  O_20
REMARK                            x       y       z     vdW  Elec       q    Type
REMARK                         _______ _______ _______ _____ _____    ______ ____
ROOT
ATOM      1  C   UNL     1     -37.574  22.574   1.047  0.00  0.00    +0.142 C 
ENDROOT
BRANCH   1   2
ATOM      2  S   UNL     1     -37.891  23.473   2.534  0.00  0.00    -0.007 S 
ATOM      3  O   UNL     1     -39.312  23.773   2.588  0.00  0.00    -0.173 OA
ATOM      4  O   UNL     1     -37.239  22.780   3.631  0.00  0.00    -0.173 OA
BRANCH   2   5
ATOM      5  C   UNL     1     -37.028  25.007   2.278  0.00  0.00    +0.177 C 
BRANCH   5   6
ATOM      6  C   UNL     1     -36.081  25.194   3.422  0.00  0.00    +0.001 C 
ATOM      7  C   UNL     1     -36.551  25.705   4.629  0.00  0.00    -0.003 C 
ATOM      8  C   UNL     1     -34.740  24.856   3.274  0.00  0.00    -0.003 C 
ATOM      9  C   UNL     1     -35.669  25.879   5.697  0.00  0.00    -0.000 C 
ATOM     10  C   UNL     1     -33.859  25.030   4.341  0.00  0.00    -0.000 C 
ATOM     11  C   UNL     1     -34.324  25.542   5.553  0.00  0.00    -0.000 C 
ENDBRANCH   5   6
ENDBRANCH   2   5
ENDBRANCH   1   2
BRANCH   1  12
ATOM     12  C   UNL     1     -37.999  21.100   1.092  0.00  0.00    +0.065 C 
ATOM     13  C   UNL     1     -38.677  20.650  -0.208  0.00  0.00    -0.009 C 
BRANCH  12  14
ATOM     14  N   UNL     1     -38.970  20.938   2.186  0.00  0.00    +0.391 N 
ATOM     15  H   UNL     1     -39.064  21.820   2.691  0.00  0.00    -0.088 HD
ATOM     16  H   UNL     1     -38.644  20.214   2.825  0.00  0.00    -0.088 HD
ATOM     17  H   UNL     1     -39.875  20.669   1.801  0.00  0.00    -0.088 HD
ENDBRANCH  12  14
BRANCH  12  19
ATOM     18  O   UNL     1     -35.968  19.838   0.604  0.00  0.00    -0.253 OA
ATOM     19  C   UNL     1     -36.809  20.198   1.420  0.00  0.00    +0.296 C 
BRANCH  19  20
ATOM     20  O   UNL     1     -36.741  19.848   2.732  0.00  0.00    -0.482 OA
ATOM     21  H   UNL     1     -36.794  18.945   2.979  0.00  0.00    +0.295 HD
ENDBRANCH  19  20
ENDBRANCH  12  19
ENDBRANCH   1  12
TORSDOF 7
ENDMDL
MODEL 4
REMARK VINA RESULT:      -5.3      4.331      5.786
REMARK  Name = 195031
REMARK  7 active torsions:
REMARK  status: ('A' for Active; 'I' for Inactive)
REMARK    1  A    between atoms: C_1  and  S_2
REMARK    2  A    between atoms: C_1  and  C_12
REMARK    3  A    between atoms: S_2  and  C_5
REMARK    4  A    between atoms: C_5  and  C_6
REMARK    5  A    between atoms: C_12  and  N_14
REMARK    6  A    between atoms: C_12  and  C_19
REMARK    7  A    between atoms: C_19  and  O_20
REMARK                            x       y       z     vdW  Elec       q    Type
REMARK                         _______ _______ _______ _____ _____    ______ ____
ROOT
ATOM      1  C   UNL     1     -34.748  27.136   3.656  0.00  0.00    +0.142 C 
ENDROOT
BRANCH   1   2
ATOM      2  S   UNL     1     -34.156  26.109   4.966  0.00  0.00    -0.007 S 
ATOM      3  O   UNL     1     -33.284  25.098   4.392  0.00  0.00    -0.173 OA
ATOM      4  O   UNL     1     -33.687  26.968   6.039  0.00  0.00    -0.173 OA
BRANCH   2   5
ATOM      5  C   UNL     1     -35.626  25.288   5.539  0.00  0.00    +0.177 C 
BRANCH   5   6
ATOM      6  C   UNL     1     -35.526  23.847   5.145  0.00  0.00    +0.001 C 
ATOM      7  C   UNL     1     -35.783  23.472   3.830  0.00  0.00    -0.003 C 
ATOM      8  C   UNL     1     -35.176  22.893   6.095  0.00  0.00    -0.003 C 
ATOM      9  C   UNL     1     -35.689  22.129   3.462  0.00  0.00    -0.000 C 
ATOM     10  C   UNL     1     -35.082  21.550   5.727  0.00  0.00    -0.000 C 
ATOM     11  C   UNL     1     -35.339  21.169   4.410  0.00  0.00    -0.000 C 
ENDBRANCH   5   6
ENDBRANCH   2   5
ENDBRANCH   1   2
BRANCH   1  12
ATOM     12  C   UNL     1     -33.659  27.952   2.947  0.00  0.00    +0.065 C 
ATOM     13  C   UNL     1     -33.446  27.500   1.496  0.00  0.00    -0.009 C 
BRANCH  12  14
ATOM     14  N   UNL     1     -32.394  27.751   3.671  0.00  0.00    +0.391 N 
ATOM     15  H   UNL     1     -31.642  28.240   3.184  0.00  0.00    -0.088 HD
ATOM     16  H   UNL     1     -32.180  26.755   3.714  0.00  0.00    -0.088 HD
ATOM     17  H   UNL     1     -32.481  28.120   4.617  0.00  0.00    -0.088 HD
ENDBRANCH  12  14
BRANCH  12  19
ATOM     18  O   UNL     1     -33.149  30.334   2.800  0.00  0.00    -0.253 OA
ATOM     19  C   UNL     1     -33.970  29.447   3.006  0.00  0.00    +0.296 C 
BRANCH  19  20
ATOM     20  O   UNL     1     -35.275  29.718   3.280  0.00  0.00    -0.482 OA
ATOM     21  H   UNL     1     -35.742  29.190   3.898  0.00  0.00    +0.295 HD
ENDBRANCH  19  20
ENDBRANCH  12  19
ENDBRANCH   1  12
TORSDOF 7
ENDMDL
MODEL 5
REMARK VINA RESULT:      -5.3      4.422      6.107
REMARK  Name = 195031
REMARK  7 active torsions:
REMARK  status: ('A' for Active; 'I' for Inactive)
REMARK    1  A    between atoms: C_1  and  S_2
REMARK    2  A    between atoms: C_1  and  C_12
REMARK    3  A    between atoms: S_2  and  C_5
REMARK    4  A    between atoms: C_5  and  C_6
REMARK    5  A    between atoms: C_12  and  N_14
REMARK    6  A    between atoms: C_12  and  C_19
REMARK    7  A    between atoms: C_19  and  O_20
REMARK                            x       y       z     vdW  Elec       q    Type
REMARK                         _______ _______ _______ _____ _____    ______ ____
ROOT
ATOM      1  C   UNL     1     -34.166  27.652   3.709  0.00  0.00    +0.142 C 
ENDROOT
BRANCH   1   2
ATOM      2  S   UNL     1     -34.064  26.206   4.718  0.00  0.00    -0.007 S 
ATOM      3  O   UNL     1     -33.096  25.303   4.118  0.00  0.00    -0.173 OA
ATOM      4  O   UNL     1     -33.925  26.627   6.101  0.00  0.00    -0.173 OA
BRANCH   2   5
ATOM      5  C   UNL     1     -35.671  25.468   4.540  0.00  0.00    +0.177 C 
BRANCH   5   6
ATOM      6  C   UNL     1     -35.525  23.996   4.773  0.00  0.00    +0.001 C 
ATOM      7  C   UNL     1     -35.596  23.117   3.695  0.00  0.00    -0.003 C 
ATOM      8  C   UNL     1     -35.318  23.516   6.062  0.00  0.00    -0.003 C 
ATOM      9  C   UNL     1     -35.459  21.745   3.911  0.00  0.00    -0.000 C 
ATOM     10  C   UNL     1     -35.181  22.144   6.277  0.00  0.00    -0.000 C 
ATOM     11  C   UNL     1     -35.252  21.259   5.201  0.00  0.00    -0.000 C 
ENDBRANCH   5   6
ENDBRANCH   2   5
ENDBRANCH   1   2
BRANCH   1  12
ATOM     12  C   UNL     1     -32.810  28.276   3.352  0.00  0.00    +0.065 C 
ATOM     13  C   UNL     1     -32.961  29.603   2.598  0.00  0.00    -0.009 C 
BRANCH  12  14
ATOM     14  N   UNL     1     -32.093  27.339   2.475  0.00  0.00    +0.391 N 
ATOM     15  H   UNL     1     -31.140  27.672   2.328  0.00  0.00    -0.088 HD
ATOM     16  H   UNL     1     -32.573  27.276   1.577  0.00  0.00    -0.088 HD
ATOM     17  H   UNL     1     -32.067  26.417   2.910  0.00  0.00    -0.088 HD
ENDBRANCH  12  14
BRANCH  12  19
ATOM     18  O   UNL     1     -30.863  27.922   4.779  0.00  0.00    -0.253 OA
ATOM     19  C   UNL     1     -31.949  28.461   4.602  0.00  0.00    +0.296 C 
BRANCH  19  20
ATOM     20  O   UNL     1     -32.485  29.323   5.506  0.00  0.00    -0.482 OA
ATOM     21  H   UNL     1     -32.722  30.191   5.243  0.00  0.00    +0.295 HD
ENDBRANCH  19  20
ENDBRANCH  12  19
ENDBRANCH   1  12
TORSDOF 7
ENDMDL
MODEL 6
REMARK VINA RESULT:      -5.2      4.201      7.409
REMARK  Name = 195031
REMARK  7 active torsions:
REMARK  status: ('A' for Active; 'I' for Inactive)
REMARK    1  A    between atoms: C_1  and  S_2
REMARK    2  A    between atoms: C_1  and  C_12
REMARK    3  A    between atoms: S_2  and  C_5
REMARK    4  A    between atoms: C_5  and  C_6
REMARK    5  A    between atoms: C_12  and  N_14
REMARK    6  A    between atoms: C_12  and  C_19
REMARK    7  A    between atoms: C_19  and  O_20
REMARK                            x       y       z     vdW  Elec       q    Type
REMARK                         _______ _______ _______ _____ _____    ______ ____
ROOT
ATOM      1  C   UNL     1     -34.892  24.848   3.587  0.00  0.00    +0.142 C 
ENDROOT
BRANCH   1   2
ATOM      2  S   UNL     1     -34.546  26.292   4.544  0.00  0.00    -0.007 S 
ATOM      3  O   UNL     1     -35.451  27.346   4.117  0.00  0.00    -0.173 OA
ATOM      4  O   UNL     1     -34.468  25.904   5.941  0.00  0.00    -0.173 OA
BRANCH   2   5
ATOM      5  C   UNL     1     -32.908  26.746   4.020  0.00  0.00    +0.177 C 
BRANCH   5   6
ATOM      6  C   UNL     1     -32.556  28.037   4.692  0.00  0.00    +0.001 C 
ATOM      7  C   UNL     1     -32.105  28.029   6.010  0.00  0.00    -0.003 C 
ATOM      8  C   UNL     1     -32.680  29.236   3.997  0.00  0.00    -0.003 C 
ATOM      9  C   UNL     1     -31.776  29.231   6.636  0.00  0.00    -0.000 C 
ATOM     10  C   UNL     1     -32.351  30.438   4.624  0.00  0.00    -0.000 C 
ATOM     11  C   UNL     1     -31.899  30.435   5.944  0.00  0.00    -0.000 C 
ENDBRANCH   5   6
ENDBRANCH   2   5
ENDBRANCH   1   2
BRANCH   1  12
ATOM     12  C   UNL     1     -36.218  24.159   3.935  0.00  0.00    +0.065 C 
ATOM     13  C   UNL     1     -37.044  23.822   2.687  0.00  0.00    -0.009 C 
BRANCH  12  14
ATOM     14  N   UNL     1     -37.010  25.082   4.762  0.00  0.00    +0.391 N 
ATOM     15  H   UNL     1     -36.504  25.961   4.871  0.00  0.00    -0.088 HD
ATOM     16  H   UNL     1     -37.169  24.666   5.680  0.00  0.00    -0.088 HD
ATOM     17  H   UNL     1     -37.907  25.261   4.311  0.00  0.00    -0.088 HD
ENDBRANCH  12  14
BRANCH  12  19
ATOM     18  O   UNL     1     -35.924  22.894   6.001  0.00  0.00    -0.253 OA
ATOM     19  C   UNL     1     -35.979  22.905   4.777  0.00  0.00    +0.296 C 
BRANCH  19  20
ATOM     20  O   UNL     1     -35.863  21.770   4.037  0.00  0.00    -0.482 OA
ATOM     21  H   UNL     1     -36.154  21.761   3.146  0.00  0.00    +0.295 HD
ENDBRANCH  19  20
ENDBRANCH  12  19
ENDBRANCH   1  12
TORSDOF 7
ENDMDL
MODEL 7
REMARK VINA RESULT:      -4.9      9.486     11.831
REMARK  Name = 195031
REMARK  7 active torsions:
REMARK  status: ('A' for Active; 'I' for Inactive)
REMARK    1  A    between atoms: C_1  and  S_2
REMARK    2  A    between atoms: C_1  and  C_12
REMARK    3  A    between atoms: S_2  and  C_5
REMARK    4  A    between atoms: C_5  and  C_6
REMARK    5  A    between atoms: C_12  and  N_14
REMARK    6  A    between atoms: C_12  and  C_19
REMARK    7  A    between atoms: C_19  and  O_20
REMARK                            x       y       z     vdW  Elec       q    Type
REMARK                         _______ _______ _______ _____ _____    ______ ____
ROOT
ATOM      1  C   UNL     1     -45.209  29.900   5.768  0.00  0.00    +0.142 C 
ENDROOT
BRANCH   1   2
ATOM      2  S   UNL     1     -43.908  29.583   4.617  0.00  0.00    -0.007 S 
ATOM      3  O   UNL     1     -44.049  30.511   3.507  0.00  0.00    -0.173 OA
ATOM      4  O   UNL     1     -42.660  29.496   5.354  0.00  0.00    -0.173 OA
BRANCH   2   5
ATOM      5  C   UNL     1     -44.287  27.956   4.007  0.00  0.00    +0.177 C 
BRANCH   5   6
ATOM      6  C   UNL     1     -43.114  27.485   3.204  0.00  0.00    +0.001 C 
ATOM      7  C   UNL     1     -43.000  27.856   1.867  0.00  0.00    -0.003 C 
ATOM      8  C   UNL     1     -42.146  26.682   3.798  0.00  0.00    -0.003 C 
ATOM      9  C   UNL     1     -41.907  27.419   1.118  0.00  0.00    -0.000 C 
ATOM     10  C   UNL     1     -41.053  26.245   3.049  0.00  0.00    -0.000 C 
ATOM     11  C   UNL     1     -40.934  26.614   1.708  0.00  0.00    -0.000 C 
ENDBRANCH   5   6
ENDBRANCH   2   5
ENDBRANCH   1   2
BRANCH   1  12
ATOM     12  C   UNL     1     -45.009  31.159   6.623  0.00  0.00    +0.065 C 
ATOM     13  C   UNL     1     -46.242  32.072   6.611  0.00  0.00    -0.009 C 
BRANCH  12  14
ATOM     14  N   UNL     1     -43.882  31.918   6.060  0.00  0.00    +0.391 N 
ATOM     15  H   UNL     1     -43.771  31.683   5.074  0.00  0.00    -0.088 HD
ATOM     16  H   UNL     1     -43.027  31.682   6.564  0.00  0.00    -0.088 HD
ATOM     17  H   UNL     1     -44.065  32.917   6.152  0.00  0.00    -0.088 HD
ENDBRANCH  12  14
BRANCH  12  19
ATOM     18  O   UNL     1     -45.406  30.772   8.999  0.00  0.00    -0.253 OA
ATOM     19  C   UNL     1     -44.624  30.791   8.056  0.00  0.00    +0.296 C 
BRANCH  19  20
ATOM     20  O   UNL     1     -43.316  30.446   8.193  0.00  0.00    -0.482 OA
ATOM     21  H   UNL     1     -43.061  29.546   8.127  0.00  0.00    +0.295 HD
ENDBRANCH  19  20
ENDBRANCH  12  19
ENDBRANCH   1  12
TORSDOF 7
ENDMDL
MODEL 8
REMARK VINA RESULT:      -4.8      2.644      3.625
REMARK  Name = 195031
REMARK  7 active torsions:
REMARK  status: ('A' for Active; 'I' for Inactive)
REMARK    1  A    between atoms: C_1  and  S_2
REMARK    2  A    between atoms: C_1  and  C_12
REMARK    3  A    between atoms: S_2  and  C_5
REMARK    4  A    between atoms: C_5  and  C_6
REMARK    5  A    between atoms: C_12  and  N_14
REMARK    6  A    between atoms: C_12  and  C_19
REMARK    7  A    between atoms: C_19  and  O_20
REMARK                            x       y       z     vdW  Elec       q    Type
REMARK                         _______ _______ _______ _____ _____    ______ ____
ROOT
ATOM      1  C   UNL     1     -35.684  24.840   3.292  0.00  0.00    +0.142 C 
ENDROOT
BRANCH   1   2
ATOM      2  S   UNL     1     -37.375  24.986   2.802  0.00  0.00    -0.007 S 
ATOM      3  O   UNL     1     -38.196  24.326   3.804  0.00  0.00    -0.173 OA
ATOM      4  O   UNL     1     -37.624  26.369   2.436  0.00  0.00    -0.173 OA
BRANCH   2   5
ATOM      5  C   UNL     1     -37.457  24.014   1.315  0.00  0.00    +0.177 C 
BRANCH   5   6
ATOM      6  C   UNL     1     -36.543  22.841   1.487  0.00  0.00    +0.001 C 
ATOM      7  C   UNL     1     -35.318  22.818   0.826  0.00  0.00    -0.003 C 
ATOM      8  C   UNL     1     -36.921  21.782   2.307  0.00  0.00    -0.003 C 
ATOM      9  C   UNL     1     -34.464  21.726   0.986  0.00  0.00    -0.000 C 
ATOM     10  C   UNL     1     -36.068  20.690   2.467  0.00  0.00    -0.000 C 
ATOM     11  C   UNL     1     -34.839  20.662   1.806  0.00  0.00    -0.000 C 
ENDBRANCH   5   6
ENDBRANCH   2   5
ENDBRANCH   1   2
BRANCH   1  12
ATOM     12  C   UNL     1     -35.428  25.116   4.779  0.00  0.00    +0.065 C 
ATOM     13  C   UNL     1     -35.514  23.843   5.631  0.00  0.00    -0.009 C 
BRANCH  12  14
ATOM     14  N   UNL     1     -36.462  26.047   5.256  0.00  0.00    +0.391 N 
ATOM     15  H   UNL     1     -37.279  25.520   5.565  0.00  0.00    -0.088 HD
ATOM     16  H   UNL     1     -36.730  26.676   4.499  0.00  0.00    -0.088 HD
ATOM     17  H   UNL     1     -36.096  26.593   6.036  0.00  0.00    -0.088 HD
ENDBRANCH  12  14
BRANCH  12  19
ATOM     18  O   UNL     1     -33.147  25.752   4.190  0.00  0.00    -0.253 OA
ATOM     19  C   UNL     1     -34.080  25.811   4.982  0.00  0.00    +0.296 C 
BRANCH  19  20
ATOM     20  O   UNL     1     -34.016  26.544   6.125  0.00  0.00    -0.482 OA
ATOM     21  H   UNL     1     -34.777  26.998   6.433  0.00  0.00    +0.295 HD
ENDBRANCH  19  20
ENDBRANCH  12  19
ENDBRANCH   1  12
TORSDOF 7
ENDMDL
MODEL 9
REMARK VINA RESULT:      -4.7      4.067      5.799
REMARK  Name = 195031
REMARK  7 active torsions:
REMARK  status: ('A' for Active; 'I' for Inactive)
REMARK    1  A    between atoms: C_1  and  S_2
REMARK    2  A    between atoms: C_1  and  C_12
REMARK    3  A    between atoms: S_2  and  C_5
REMARK    4  A    between atoms: C_5  and  C_6
REMARK    5  A    between atoms: C_12  and  N_14
REMARK    6  A    between atoms: C_12  and  C_19
REMARK    7  A    between atoms: C_19  and  O_20
REMARK                            x       y       z     vdW  Elec       q    Type
REMARK                         _______ _______ _______ _____ _____    ______ ____
ROOT
ATOM      1  C   UNL     1     -38.953  25.035   0.969  0.00  0.00    +0.142 C 
ENDROOT
BRANCH   1   2
ATOM      2  S   UNL     1     -38.124  25.117   2.527  0.00  0.00    -0.007 S 
ATOM      3  O   UNL     1     -37.880  26.516   2.837  0.00  0.00    -0.173 OA
ATOM      4  O   UNL     1     -38.835  24.265   3.464  0.00  0.00    -0.173 OA
BRANCH   2   5
ATOM      5  C   UNL     1     -36.551  24.357   2.195  0.00  0.00    +0.177 C 
BRANCH   5   6
ATOM      6  C   UNL     1     -36.033  23.801   3.484  0.00  0.00    +0.001 C 
ATOM      7  C   UNL     1     -35.630  24.667   4.497  0.00  0.00    -0.003 C 
ATOM      8  C   UNL     1     -35.957  22.423   3.664  0.00  0.00    -0.003 C 
ATOM      9  C   UNL     1     -35.147  24.149   5.700  0.00  0.00    -0.000 C 
ATOM     10  C   UNL     1     -35.475  21.906   4.866  0.00  0.00    -0.000 C 
ATOM     11  C   UNL     1     -35.070  22.770   5.884  0.00  0.00    -0.000 C 
ENDBRANCH   5   6
ENDBRANCH   2   5
ENDBRANCH   1   2
BRANCH   1  12
ATOM     12  C   UNL     1     -40.436  25.427   1.016  0.00  0.00    +0.065 C 
ATOM     13  C   UNL     1     -40.825  26.372  -0.128  0.00  0.00    -0.009 C 
BRANCH  12  14
ATOM     14  N   UNL     1     -40.682  26.131   2.285  0.00  0.00    +0.391 N 
ATOM     15  H   UNL     1     -40.484  27.125   2.167  0.00  0.00    -0.088 HD
ATOM     16  H   UNL     1     -40.076  25.748   3.010  0.00  0.00    -0.088 HD
ATOM     17  H   UNL     1     -41.657  26.009   2.558  0.00  0.00    -0.088 HD
ENDBRANCH  12  14
BRANCH  12  19
ATOM     18  O   UNL     1     -42.531  24.199   0.779  0.00  0.00    -0.253 OA
ATOM     19  C   UNL     1     -41.330  24.186   1.018  0.00  0.00    +0.296 C 
BRANCH  19  20
ATOM     20  O   UNL     1     -40.655  23.035   1.281  0.00  0.00    -0.482 OA
ATOM     21  H   UNL     1     -39.986  23.023   1.937  0.00  0.00    +0.295 HD
ENDBRANCH  19  20
ENDBRANCH  12  19
ENDBRANCH   1  12
TORSDOF 7
ENDMDL
