MODEL 1
REMARK VINA RESULT:      -7.2      0.000      0.000
REMARK  Name = 5484238
REMARK  5 active torsions:
REMARK  status: ('A' for Active; 'I' for Inactive)
REMARK    1  A    between atoms: C_3  and  C_15
REMARK    2  A    between atoms: C_7  and  O_29
REMARK    3  A    between atoms: C_9  and  O_31
REMARK    4  A    between atoms: C_19  and  O_25
REMARK    5  A    between atoms: C_21  and  O_27
REMARK                            x       y       z     vdW  Elec       q    Type
REMARK                         _______ _______ _______ _____ _____    ______ ____
ROOT
ATOM      1  O   UNL     1     -36.640  25.958   2.082  0.00  0.00    -0.421 OA
ATOM      2  O   UNL     1     -36.857  27.684   0.595  0.00  0.00    -0.244 OA
ATOM      3  C   UNL     1     -36.467  24.167   3.648  0.00  0.00    +0.074 C 
ATOM      4  C   UNL     1     -36.055  25.443   3.258  0.00  0.00    +0.154 C 
ATOM      5  C   UNL     1     -35.123  26.187   3.987  0.00  0.00    +0.065 C 
ATOM      6  C   UNL     1     -34.609  25.609   5.156  0.00  0.00    -0.013 C 
ATOM      7  C   UNL     1     -35.938  23.609   4.806  0.00  0.00    +0.136 C 
ATOM      8  C   UNL     1     -35.013  24.330   5.560  0.00  0.00    +0.033 C 
ATOM      9  C   UNL     1     -34.765  27.516   3.479  0.00  0.00    +0.148 C 
ATOM     10  C   UNL     1     -33.656  26.303   6.077  0.00  0.00    +0.031 C 
ATOM     11  C   UNL     1     -35.342  27.992   2.372  0.00  0.00    +0.119 C 
ATOM     12  C   UNL     1     -36.336  27.225   1.605  0.00  0.00    +0.349 C 
ENDROOT
BRANCH   3  15
ATOM     13  O   UNL     1     -35.662  22.033   2.083  0.00  0.00    -0.421 OA
ATOM     14  O   UNL     1     -33.956  20.677   1.385  0.00  0.00    -0.244 OA
ATOM     15  C   UNL     1     -37.435  23.426   2.862  0.00  0.00    +0.074 C 
ATOM     16  C   UNL     1     -37.036  22.351   2.064  0.00  0.00    +0.154 C 
ATOM     17  C   UNL     1     -37.939  21.615   1.291  0.00  0.00    +0.065 C 
ATOM     18  C   UNL     1     -39.289  21.985   1.349  0.00  0.00    -0.013 C 
ATOM     19  C   UNL     1     -38.779  23.780   2.899  0.00  0.00    +0.136 C 
ATOM     20  C   UNL     1     -39.704  23.060   2.145  0.00  0.00    +0.033 C 
ATOM     21  C   UNL     1     -37.404  20.508   0.490  0.00  0.00    +0.148 C 
ATOM     22  C   UNL     1     -40.383  21.256   0.633  0.00  0.00    +0.031 C 
ATOM     23  C   UNL     1     -36.101  20.212   0.533  0.00  0.00    +0.119 C 
ATOM     24  C   UNL     1     -35.146  20.970   1.355  0.00  0.00    +0.349 C 
BRANCH  19  25
ATOM     25  O   UNL     1     -39.220  24.819   3.663  0.00  0.00    -0.505 OA
ATOM     26  H   UNL     1     -39.806  24.660   4.376  0.00  0.00    +0.292 HD
ENDBRANCH  19  25
BRANCH  21  27
ATOM     27  O   UNL     1     -38.225  19.803  -0.364  0.00  0.00    -0.471 OA
ATOM     28  C   UNL     1     -37.772  18.471  -0.509  0.00  0.00    +0.252 C 
ENDBRANCH  21  27
ENDBRANCH   3  15
BRANCH   7  29
ATOM     29  O   UNL     1     -36.307  22.368   5.234  0.00  0.00    -0.505 OA
ATOM     30  H   UNL     1     -37.213  22.172   5.370  0.00  0.00    +0.292 HD
ENDBRANCH   7  29
BRANCH   9  31
ATOM     31  O   UNL     1     -33.785  28.261   4.100  0.00  0.00    -0.471 OA
ATOM     32  C   UNL     1     -32.744  28.575   3.195  0.00  0.00    +0.252 C 
ENDBRANCH   9  31
TORSDOF 5
ENDMDL
MODEL 2
REMARK VINA RESULT:      -7.2      0.046      7.131
REMARK  Name = 5484238
REMARK  5 active torsions:
REMARK  status: ('A' for Active; 'I' for Inactive)
REMARK    1  A    between atoms: C_3  and  C_15
REMARK    2  A    between atoms: C_7  and  O_29
REMARK    3  A    between atoms: C_9  and  O_31
REMARK    4  A    between atoms: C_19  and  O_25
REMARK    5  A    between atoms: C_21  and  O_27
REMARK                            x       y       z     vdW  Elec       q    Type
REMARK                         _______ _______ _______ _____ _____    ______ ____
ROOT
ATOM      1  O   UNL     1     -35.667  22.003   2.136  0.00  0.00    -0.421 OA
ATOM      2  O   UNL     1     -33.966  20.626   1.468  0.00  0.00    -0.244 OA
ATOM      3  C   UNL     1     -37.435  23.419   2.886  0.00  0.00    +0.074 C 
ATOM      4  C   UNL     1     -37.039  22.330   2.106  0.00  0.00    +0.154 C 
ATOM      5  C   UNL     1     -37.942  21.589   1.337  0.00  0.00    +0.065 C 
ATOM      6  C   UNL     1     -39.290  21.969   1.382  0.00  0.00    -0.013 C 
ATOM      7  C   UNL     1     -38.776  23.783   2.909  0.00  0.00    +0.136 C 
ATOM      8  C   UNL     1     -39.702  23.058   2.161  0.00  0.00    +0.033 C 
ATOM      9  C   UNL     1     -37.410  20.468   0.555  0.00  0.00    +0.148 C 
ATOM     10  C   UNL     1     -40.384  21.238   0.670  0.00  0.00    +0.031 C 
ATOM     11  C   UNL     1     -36.110  20.163   0.610  0.00  0.00    +0.119 C 
ATOM     12  C   UNL     1     -35.153  20.926   1.427  0.00  0.00    +0.349 C 
ENDROOT
BRANCH   3  15
ATOM     13  O   UNL     1     -36.657  25.956   2.104  0.00  0.00    -0.421 OA
ATOM     14  O   UNL     1     -36.891  27.683   0.621  0.00  0.00    -0.244 OA
ATOM     15  C   UNL     1     -36.466  24.164   3.667  0.00  0.00    +0.074 C 
ATOM     16  C   UNL     1     -36.063  25.442   3.276  0.00  0.00    +0.154 C 
ATOM     17  C   UNL     1     -35.131  26.190   4.001  0.00  0.00    +0.065 C 
ATOM     18  C   UNL     1     -34.607  25.614   5.166  0.00  0.00    -0.013 C 
ATOM     19  C   UNL     1     -35.928  23.608   4.823  0.00  0.00    +0.136 C 
ATOM     20  C   UNL     1     -35.002  24.332   5.571  0.00  0.00    +0.033 C 
ATOM     21  C   UNL     1     -34.782  27.521   3.492  0.00  0.00    +0.148 C 
ATOM     22  C   UNL     1     -33.652  26.311   6.084  0.00  0.00    +0.031 C 
ATOM     23  C   UNL     1     -35.368  27.997   2.389  0.00  0.00    +0.119 C 
ATOM     24  C   UNL     1     -36.362  27.225   1.627  0.00  0.00    +0.349 C 
BRANCH  19  25
ATOM     25  O   UNL     1     -36.289  22.365   5.249  0.00  0.00    -0.505 OA
ATOM     26  H   UNL     1     -37.195  22.143   5.332  0.00  0.00    +0.292 HD
ENDBRANCH  19  25
BRANCH  21  27
ATOM     27  O   UNL     1     -33.802  28.271   4.108  0.00  0.00    -0.471 OA
ATOM     28  C   UNL     1     -32.762  28.580   3.201  0.00  0.00    +0.252 C 
ENDBRANCH  21  27
ENDBRANCH   3  15
BRANCH   7  29
ATOM     29  O   UNL     1     -39.216  24.836   3.656  0.00  0.00    -0.505 OA
ATOM     30  H   UNL     1     -38.603  25.462   3.986  0.00  0.00    +0.292 HD
ENDBRANCH   7  29
BRANCH   9  31
ATOM     31  O   UNL     1     -38.231  19.756  -0.293  0.00  0.00    -0.471 OA
ATOM     32  C   UNL     1     -37.757  18.433  -0.458  0.00  0.00    +0.252 C 
ENDBRANCH   9  31
TORSDOF 5
ENDMDL
MODEL 3
REMARK VINA RESULT:      -6.8      1.344      6.706
REMARK  Name = 5484238
REMARK  5 active torsions:
REMARK  status: ('A' for Active; 'I' for Inactive)
REMARK    1  A    between atoms: C_3  and  C_15
REMARK    2  A    between atoms: C_7  and  O_29
REMARK    3  A    between atoms: C_9  and  O_31
REMARK    4  A    between atoms: C_19  and  O_25
REMARK    5  A    between atoms: C_21  and  O_27
REMARK                            x       y       z     vdW  Elec       q    Type
REMARK                         _______ _______ _______ _____ _____    ______ ____
ROOT
ATOM      1  O   UNL     1     -38.634  24.988   3.010  0.00  0.00    -0.421 OA
ATOM      2  O   UNL     1     -40.248  26.594   3.239  0.00  0.00    -0.244 OA
ATOM      3  C   UNL     1     -36.919  23.350   2.744  0.00  0.00    +0.074 C 
ATOM      4  C   UNL     1     -38.214  23.771   2.433  0.00  0.00    +0.154 C 
ATOM      5  C   UNL     1     -39.058  23.042   1.589  0.00  0.00    +0.065 C 
ATOM      6  C   UNL     1     -38.553  21.856   1.040  0.00  0.00    -0.013 C 
ATOM      7  C   UNL     1     -36.442  22.166   2.195  0.00  0.00    +0.136 C 
ATOM      8  C   UNL     1     -37.256  21.422   1.343  0.00  0.00    +0.033 C 
ATOM      9  C   UNL     1     -40.399  23.581   1.336  0.00  0.00    +0.148 C 
ATOM     10  C   UNL     1     -39.307  21.000   0.071  0.00  0.00    +0.031 C 
ATOM     11  C   UNL     1     -40.772  24.744   1.879  0.00  0.00    +0.119 C 
ATOM     12  C   UNL     1     -39.887  25.527   2.756  0.00  0.00    +0.349 C 
ENDROOT
BRANCH   3  15
ATOM     13  O   UNL     1     -35.826  25.740   1.880  0.00  0.00    -0.421 OA
ATOM     14  O   UNL     1     -35.639  27.294   0.211  0.00  0.00    -0.244 OA
ATOM     15  C   UNL     1     -36.076  24.134   3.626  0.00  0.00    +0.074 C 
ATOM     16  C   UNL     1     -35.515  25.338   3.197  0.00  0.00    +0.154 C 
ATOM     17  C   UNL     1     -34.695  26.119   4.016  0.00  0.00    +0.065 C 
ATOM     18  C   UNL     1     -34.456  25.657   5.317  0.00  0.00    -0.013 C 
ATOM     19  C   UNL     1     -35.819  23.690   4.919  0.00  0.00    +0.136 C 
ATOM     20  C   UNL     1     -35.012  24.451   5.763  0.00  0.00    +0.033 C 
ATOM     21  C   UNL     1     -34.160  27.365   3.455  0.00  0.00    +0.148 C 
ATOM     22  C   UNL     1     -33.655  26.409   6.334  0.00  0.00    +0.031 C 
ATOM     23  C   UNL     1     -34.480  27.737   2.212  0.00  0.00    +0.119 C 
ATOM     24  C   UNL     1     -35.354  26.930   1.346  0.00  0.00    +0.349 C 
BRANCH  19  25
ATOM     25  O   UNL     1     -36.343  22.523   5.388  0.00  0.00    -0.505 OA
ATOM     26  H   UNL     1     -35.835  21.972   5.949  0.00  0.00    +0.292 HD
ENDBRANCH  19  25
BRANCH  21  27
ATOM     27  O   UNL     1     -33.272  28.133   4.178  0.00  0.00    -0.471 OA
ATOM     28  C   UNL     1     -32.047  28.271   3.485  0.00  0.00    +0.252 C 
ENDBRANCH  21  27
ENDBRANCH   3  15
BRANCH   7  29
ATOM     29  O   UNL     1     -35.185  21.711   2.464  0.00  0.00    -0.505 OA
ATOM     30  H   UNL     1     -34.928  21.546   3.350  0.00  0.00    +0.292 HD
ENDBRANCH   7  29
BRANCH   9  31
ATOM     31  O   UNL     1     -41.310  22.866   0.588  0.00  0.00    -0.471 OA
ATOM     32  C   UNL     1     -41.937  23.698  -0.369  0.00  0.00    +0.252 C 
ENDBRANCH   9  31
TORSDOF 5
ENDMDL
MODEL 4
REMARK VINA RESULT:      -6.8      1.339      3.316
REMARK  Name = 5484238
REMARK  5 active torsions:
REMARK  status: ('A' for Active; 'I' for Inactive)
REMARK    1  A    between atoms: C_3  and  C_15
REMARK    2  A    between atoms: C_7  and  O_29
REMARK    3  A    between atoms: C_9  and  O_31
REMARK    4  A    between atoms: C_19  and  O_25
REMARK    5  A    between atoms: C_21  and  O_27
REMARK                            x       y       z     vdW  Elec       q    Type
REMARK                         _______ _______ _______ _____ _____    ______ ____
ROOT
ATOM      1  O   UNL     1     -35.855  25.760   1.930  0.00  0.00    -0.421 OA
ATOM      2  O   UNL     1     -35.697  27.332   0.275  0.00  0.00    -0.244 OA
ATOM      3  C   UNL     1     -36.075  24.132   3.661  0.00  0.00    +0.074 C 
ATOM      4  C   UNL     1     -35.531  25.347   3.239  0.00  0.00    +0.154 C 
ATOM      5  C   UNL     1     -34.714  26.129   4.062  0.00  0.00    +0.065 C 
ATOM      6  C   UNL     1     -34.460  25.656   5.356  0.00  0.00    -0.013 C 
ATOM      7  C   UNL     1     -35.804  23.678   4.946  0.00  0.00    +0.136 C 
ATOM      8  C   UNL     1     -35.000  24.439   5.793  0.00  0.00    +0.033 C 
ATOM      9  C   UNL     1     -34.196  27.386   3.510  0.00  0.00    +0.148 C 
ATOM     10  C   UNL     1     -33.661  26.406   6.375  0.00  0.00    +0.031 C 
ATOM     11  C   UNL     1     -34.529  27.767   2.273  0.00  0.00    +0.119 C 
ATOM     12  C   UNL     1     -35.400  26.961   1.405  0.00  0.00    +0.349 C 
ENDROOT
BRANCH   3  15
ATOM     13  O   UNL     1     -38.625  24.995   3.024  0.00  0.00    -0.421 OA
ATOM     14  O   UNL     1     -40.233  26.609   3.234  0.00  0.00    -0.244 OA
ATOM     15  C   UNL     1     -36.916  23.349   2.776  0.00  0.00    +0.074 C 
ATOM     16  C   UNL     1     -38.207  23.774   2.454  0.00  0.00    +0.154 C 
ATOM     17  C   UNL     1     -39.048  23.045   1.607  0.00  0.00    +0.065 C 
ATOM     18  C   UNL     1     -38.545  21.855   1.067  0.00  0.00    -0.013 C 
ATOM     19  C   UNL     1     -36.440  22.160   2.234  0.00  0.00    +0.136 C 
ATOM     20  C   UNL     1     -37.252  21.416   1.380  0.00  0.00    +0.033 C 
ATOM     21  C   UNL     1     -40.385  23.589   1.343  0.00  0.00    +0.148 C 
ATOM     22  C   UNL     1     -39.295  20.998   0.095  0.00  0.00    +0.031 C 
ATOM     23  C   UNL     1     -40.756  24.756   1.879  0.00  0.00    +0.119 C 
ATOM     24  C   UNL     1     -39.874  25.538   2.758  0.00  0.00    +0.349 C 
BRANCH  19  25
ATOM     25  O   UNL     1     -35.187  21.702   2.514  0.00  0.00    -0.505 OA
ATOM     26  H   UNL     1     -34.644  22.165   3.120  0.00  0.00    +0.292 HD
ENDBRANCH  19  25
BRANCH  21  27
ATOM     27  O   UNL     1     -41.294  22.875   0.593  0.00  0.00    -0.471 OA
ATOM     28  C   UNL     1     -41.907  23.704  -0.376  0.00  0.00    +0.252 C 
ENDBRANCH  21  27
ENDBRANCH   3  15
BRANCH   7  29
ATOM     29  O   UNL     1     -36.312  22.500   5.408  0.00  0.00    -0.505 OA
ATOM     30  H   UNL     1     -36.685  21.885   4.807  0.00  0.00    +0.292 HD
ENDBRANCH   7  29
BRANCH   9  31
ATOM     31  O   UNL     1     -33.312  28.156   4.236  0.00  0.00    -0.471 OA
ATOM     32  C   UNL     1     -32.073  28.267   3.562  0.00  0.00    +0.252 C 
ENDBRANCH   9  31
TORSDOF 5
ENDMDL
MODEL 5
REMARK VINA RESULT:      -6.5      2.614      4.372
REMARK  Name = 5484238
REMARK  5 active torsions:
REMARK  status: ('A' for Active; 'I' for Inactive)
REMARK    1  A    between atoms: C_3  and  C_15
REMARK    2  A    between atoms: C_7  and  O_29
REMARK    3  A    between atoms: C_9  and  O_31
REMARK    4  A    between atoms: C_19  and  O_25
REMARK    5  A    between atoms: C_21  and  O_27
REMARK                            x       y       z     vdW  Elec       q    Type
REMARK                         _______ _______ _______ _____ _____    ______ ____
ROOT
ATOM      1  O   UNL     1     -33.654  27.457   4.070  0.00  0.00    -0.421 OA
ATOM      2  O   UNL     1     -31.733  27.904   5.232  0.00  0.00    -0.244 OA
ATOM      3  C   UNL     1     -35.627  26.953   2.829  0.00  0.00    +0.074 C 
ATOM      4  C   UNL     1     -34.636  27.882   3.152  0.00  0.00    +0.154 C 
ATOM      5  C   UNL     1     -34.600  29.165   2.596  0.00  0.00    +0.065 C 
ATOM      6  C   UNL     1     -35.602  29.497   1.675  0.00  0.00    -0.013 C 
ATOM      7  C   UNL     1     -36.616  27.307   1.918  0.00  0.00    +0.136 C 
ATOM      8  C   UNL     1     -36.602  28.576   1.341  0.00  0.00    +0.033 C 
ATOM      9  C   UNL     1     -33.511  30.057   3.013  0.00  0.00    +0.148 C 
ATOM     10  C   UNL     1     -35.663  30.803   0.947  0.00  0.00    +0.031 C 
ATOM     11  C   UNL     1     -32.581  29.629   3.872  0.00  0.00    +0.119 C 
ATOM     12  C   UNL     1     -32.600  28.277   4.450  0.00  0.00    +0.349 C 
ENDROOT
BRANCH   3  15
ATOM     13  O   UNL     1     -35.005  24.724   1.314  0.00  0.00    -0.421 OA
ATOM     14  O   UNL     1     -34.355  23.876  -0.709  0.00  0.00    -0.244 OA
ATOM     15  C   UNL     1     -35.632  25.633   3.429  0.00  0.00    +0.074 C 
ATOM     16  C   UNL     1     -35.325  24.501   2.671  0.00  0.00    +0.154 C 
ATOM     17  C   UNL     1     -35.321  23.213   3.212  0.00  0.00    +0.065 C 
ATOM     18  C   UNL     1     -35.629  23.084   4.573  0.00  0.00    -0.013 C 
ATOM     19  C   UNL     1     -35.941  25.481   4.777  0.00  0.00    +0.136 C 
ATOM     20  C   UNL     1     -35.938  24.210   5.347  0.00  0.00    +0.033 C 
ATOM     21  C   UNL     1     -34.985  22.099   2.318  0.00  0.00    +0.148 C 
ATOM     22  C   UNL     1     -35.603  21.784   5.314  0.00  0.00    +0.031 C 
ATOM     23  C   UNL     1     -34.669  22.332   1.040  0.00  0.00    +0.119 C 
ATOM     24  C   UNL     1     -34.654  23.685   0.464  0.00  0.00    +0.349 C 
BRANCH  19  25
ATOM     25  O   UNL     1     -36.246  26.553   5.561  0.00  0.00    -0.505 OA
ATOM     26  H   UNL     1     -36.961  26.505   6.163  0.00  0.00    +0.292 HD
ENDBRANCH  19  25
BRANCH  21  27
ATOM     27  O   UNL     1     -35.054  20.797   2.766  0.00  0.00    -0.471 OA
ATOM     28  C   UNL     1     -34.615  19.898   1.766  0.00  0.00    +0.252 C 
ENDBRANCH  21  27
ENDBRANCH   3  15
BRANCH   7  29
ATOM     29  O   UNL     1     -37.606  26.437   1.566  0.00  0.00    -0.505 OA
ATOM     30  H   UNL     1     -38.010  26.506   0.724  0.00  0.00    +0.292 HD
ENDBRANCH   7  29
BRANCH   9  31
ATOM     31  O   UNL     1     -33.471  31.363   2.574  0.00  0.00    -0.471 OA
ATOM     32  C   UNL     1     -32.219  31.952   2.866  0.00  0.00    +0.252 C 
ENDBRANCH   9  31
TORSDOF 5
ENDMDL
MODEL 6
REMARK VINA RESULT:      -6.4      2.586      7.010
REMARK  Name = 5484238
REMARK  5 active torsions:
REMARK  status: ('A' for Active; 'I' for Inactive)
REMARK    1  A    between atoms: C_3  and  C_15
REMARK    2  A    between atoms: C_7  and  O_29
REMARK    3  A    between atoms: C_9  and  O_31
REMARK    4  A    between atoms: C_19  and  O_25
REMARK    5  A    between atoms: C_21  and  O_27
REMARK                            x       y       z     vdW  Elec       q    Type
REMARK                         _______ _______ _______ _____ _____    ______ ____
ROOT
ATOM      1  O   UNL     1     -35.020  24.707   1.317  0.00  0.00    -0.421 OA
ATOM      2  O   UNL     1     -34.381  23.852  -0.707  0.00  0.00    -0.244 OA
ATOM      3  C   UNL     1     -35.637  25.624   3.431  0.00  0.00    +0.074 C 
ATOM      4  C   UNL     1     -35.330  24.490   2.676  0.00  0.00    +0.154 C 
ATOM      5  C   UNL     1     -35.317  23.204   3.225  0.00  0.00    +0.065 C 
ATOM      6  C   UNL     1     -35.614  23.082   4.589  0.00  0.00    -0.013 C 
ATOM      7  C   UNL     1     -35.938  25.479   4.780  0.00  0.00    +0.136 C 
ATOM      8  C   UNL     1     -35.924  24.211   5.358  0.00  0.00    +0.033 C 
ATOM      9  C   UNL     1     -34.982  22.087   2.334  0.00  0.00    +0.148 C 
ATOM     10  C   UNL     1     -35.578  21.785   5.335  0.00  0.00    +0.031 C 
ATOM     11  C   UNL     1     -34.675  22.315   1.053  0.00  0.00    +0.119 C 
ATOM     12  C   UNL     1     -34.671  23.665   0.469  0.00  0.00    +0.349 C 
ENDROOT
BRANCH   3  15
ATOM     13  O   UNL     1     -33.660  27.459   4.045  0.00  0.00    -0.421 OA
ATOM     14  O   UNL     1     -31.731  27.919   5.186  0.00  0.00    -0.244 OA
ATOM     15  C   UNL     1     -35.643  26.942   2.824  0.00  0.00    +0.074 C 
ATOM     16  C   UNL     1     -34.652  27.876   3.132  0.00  0.00    +0.154 C 
ATOM     17  C   UNL     1     -34.625  29.156   2.570  0.00  0.00    +0.065 C 
ATOM     18  C   UNL     1     -35.637  29.479   1.656  0.00  0.00    -0.013 C 
ATOM     19  C   UNL     1     -36.642  27.287   1.919  0.00  0.00    +0.136 C 
ATOM     20  C   UNL     1     -36.637  28.552   1.336  0.00  0.00    +0.033 C 
ATOM     21  C   UNL     1     -33.537  30.053   2.972  0.00  0.00    +0.148 C 
ATOM     22  C   UNL     1     -35.709  30.781   0.921  0.00  0.00    +0.031 C 
ATOM     23  C   UNL     1     -32.597  29.634   3.825  0.00  0.00    +0.119 C 
ATOM     24  C   UNL     1     -32.607  28.285   4.411  0.00  0.00    +0.349 C 
BRANCH  19  25
ATOM     25  O   UNL     1     -37.629  26.412   1.582  0.00  0.00    -0.505 OA
ATOM     26  H   UNL     1     -37.673  25.572   1.994  0.00  0.00    +0.292 HD
ENDBRANCH  19  25
BRANCH  21  27
ATOM     27  O   UNL     1     -33.505  31.357   2.526  0.00  0.00    -0.471 OA
ATOM     28  C   UNL     1     -32.176  31.765   2.261  0.00  0.00    +0.252 C 
ENDBRANCH  21  27
ENDBRANCH   3  15
BRANCH   7  29
ATOM     29  O   UNL     1     -36.242  26.553   5.563  0.00  0.00    -0.505 OA
ATOM     30  H   UNL     1     -37.075  26.973   5.475  0.00  0.00    +0.292 HD
ENDBRANCH   7  29
BRANCH   9  31
ATOM     31  O   UNL     1     -35.041  20.788   2.790  0.00  0.00    -0.471 OA
ATOM     32  C   UNL     1     -34.908  19.873   1.719  0.00  0.00    +0.252 C 
ENDBRANCH   9  31
TORSDOF 5
ENDMDL
MODEL 7
REMARK VINA RESULT:      -6.4      2.833      5.687
REMARK  Name = 5484238
REMARK  5 active torsions:
REMARK  status: ('A' for Active; 'I' for Inactive)
REMARK    1  A    between atoms: C_3  and  C_15
REMARK    2  A    between atoms: C_7  and  O_29
REMARK    3  A    between atoms: C_9  and  O_31
REMARK    4  A    between atoms: C_19  and  O_25
REMARK    5  A    between atoms: C_21  and  O_27
REMARK                            x       y       z     vdW  Elec       q    Type
REMARK                         _______ _______ _______ _____ _____    ______ ____
ROOT
ATOM      1  O   UNL     1     -31.051  26.720   3.115  0.00  0.00    -0.421 OA
ATOM      2  O   UNL     1     -28.984  25.743   3.026  0.00  0.00    -0.244 OA
ATOM      3  C   UNL     1     -33.225  27.702   3.171  0.00  0.00    +0.074 C 
ATOM      4  C   UNL     1     -31.878  27.826   2.825  0.00  0.00    +0.154 C 
ATOM      5  C   UNL     1     -31.363  28.974   2.216  0.00  0.00    +0.065 C 
ATOM      6  C   UNL     1     -32.258  30.017   1.942  0.00  0.00    -0.013 C 
ATOM      7  C   UNL     1     -34.094  28.752   2.898  0.00  0.00    +0.136 C 
ATOM      8  C   UNL     1     -33.612  29.906   2.283  0.00  0.00    +0.033 C 
ATOM      9  C   UNL     1     -29.929  28.992   1.900  0.00  0.00    +0.148 C 
ATOM     10  C   UNL     1     -31.874  31.280   1.237  0.00  0.00    +0.031 C 
ATOM     11  C   UNL     1     -29.166  27.928   2.168  0.00  0.00    +0.119 C 
ATOM     12  C   UNL     1     -29.701  26.710   2.794  0.00  0.00    +0.349 C 
ENDROOT
BRANCH   3  15
ATOM     13  O   UNL     1     -34.148  25.592   1.638  0.00  0.00    -0.421 OA
ATOM     14  O   UNL     1     -34.505  24.723  -0.448  0.00  0.00    -0.244 OA
ATOM     15  C   UNL     1     -33.721  26.495   3.805  0.00  0.00    +0.074 C 
ATOM     16  C   UNL     1     -34.194  25.428   3.039  0.00  0.00    +0.154 C 
ATOM     17  C   UNL     1     -34.682  24.250   3.614  0.00  0.00    +0.065 C 
ATOM     18  C   UNL     1     -34.671  24.162   5.012  0.00  0.00    -0.013 C 
ATOM     19  C   UNL     1     -33.726  26.389   5.192  0.00  0.00    +0.136 C 
ATOM     20  C   UNL     1     -34.198  25.224   5.793  0.00  0.00    +0.033 C 
ATOM     21  C   UNL     1     -35.156  23.197   2.709  0.00  0.00    +0.148 C 
ATOM     22  C   UNL     1     -35.097  22.945   5.773  0.00  0.00    +0.031 C 
ATOM     23  C   UNL     1     -35.089  23.365   1.384  0.00  0.00    +0.119 C 
ATOM     24  C   UNL     1     -34.563  24.593   0.769  0.00  0.00    +0.349 C 
BRANCH  19  25
ATOM     25  O   UNL     1     -33.273  27.400   5.984  0.00  0.00    -0.505 OA
ATOM     26  H   UNL     1     -33.436  27.383   6.906  0.00  0.00    +0.292 HD
ENDBRANCH  19  25
BRANCH  21  27
ATOM     27  O   UNL     1     -35.733  22.050   3.211  0.00  0.00    -0.471 OA
ATOM     28  C   UNL     1     -35.337  20.918   2.462  0.00  0.00    +0.252 C 
ENDBRANCH  21  27
ENDBRANCH   3  15
BRANCH   7  29
ATOM     29  O   UNL     1     -35.419  28.681   3.213  0.00  0.00    -0.505 OA
ATOM     30  H   UNL     1     -35.852  27.850   3.226  0.00  0.00    +0.292 HD
ENDBRANCH   7  29
BRANCH   9  31
ATOM     31  O   UNL     1     -29.342  30.128   1.384  0.00  0.00    -0.471 OA
ATOM     32  C   UNL     1     -28.293  30.575   2.220  0.00  0.00    +0.252 C 
ENDBRANCH   9  31
TORSDOF 5
ENDMDL
MODEL 8
REMARK VINA RESULT:      -6.3      1.404      1.858
REMARK  Name = 5484238
REMARK  5 active torsions:
REMARK  status: ('A' for Active; 'I' for Inactive)
REMARK    1  A    between atoms: C_3  and  C_15
REMARK    2  A    between atoms: C_7  and  O_29
REMARK    3  A    between atoms: C_9  and  O_31
REMARK    4  A    between atoms: C_19  and  O_25
REMARK    5  A    between atoms: C_21  and  O_27
REMARK                            x       y       z     vdW  Elec       q    Type
REMARK                         _______ _______ _______ _____ _____    ______ ____
ROOT
ATOM      1  O   UNL     1     -36.772  24.653   1.510  0.00  0.00    -0.421 OA
ATOM      2  O   UNL     1     -37.380  26.423   0.193  0.00  0.00    -0.244 OA
ATOM      3  C   UNL     1     -36.193  22.799   2.895  0.00  0.00    +0.074 C 
ATOM      4  C   UNL     1     -36.151  24.179   2.684  0.00  0.00    +0.154 C 
ATOM      5  C   UNL     1     -35.539  25.057   3.584  0.00  0.00    +0.065 C 
ATOM      6  C   UNL     1     -34.966  24.504   4.737  0.00  0.00    -0.013 C 
ATOM      7  C   UNL     1     -35.611  22.271   4.041  0.00  0.00    +0.136 C 
ATOM      8  C   UNL     1     -35.001  23.121   4.961  0.00  0.00    +0.033 C 
ATOM      9  C   UNL     1     -35.554  26.487   3.256  0.00  0.00    +0.148 C 
ATOM     10  C   UNL     1     -34.333  25.315   5.823  0.00  0.00    +0.031 C 
ATOM     11  C   UNL     1     -36.163  26.919   2.147  0.00  0.00    +0.119 C 
ATOM     12  C   UNL     1     -36.823  26.005   1.202  0.00  0.00    +0.349 C 
ENDROOT
BRANCH   3  15
ATOM     13  O   UNL     1     -34.679  21.142   1.278  0.00  0.00    -0.421 OA
ATOM     14  O   UNL     1     -32.605  20.371   0.696  0.00  0.00    -0.244 OA
ATOM     15  C   UNL     1     -36.836  21.921   1.936  0.00  0.00    +0.074 C 
ATOM     16  C   UNL     1     -36.079  21.086   1.111  0.00  0.00    +0.154 C 
ATOM     17  C   UNL     1     -36.662  20.228   0.174  0.00  0.00    +0.065 C 
ATOM     18  C   UNL     1     -38.060  20.219   0.089  0.00  0.00    -0.013 C 
ATOM     19  C   UNL     1     -38.223  21.901   1.830  0.00  0.00    +0.136 C 
ATOM     20  C   UNL     1     -38.833  21.051   0.910  0.00  0.00    +0.033 C 
ATOM     21  C   UNL     1     -35.766  19.398  -0.640  0.00  0.00    +0.148 C 
ATOM     22  C   UNL     1     -38.834  19.312  -0.816  0.00  0.00    +0.031 C 
ATOM     23  C   UNL     1     -34.443  19.453  -0.455  0.00  0.00    +0.119 C 
ATOM     24  C   UNL     1     -33.820  20.341   0.540  0.00  0.00    +0.349 C 
BRANCH  19  25
ATOM     25  O   UNL     1     -39.007  22.694   2.612  0.00  0.00    -0.505 OA
ATOM     26  H   UNL     1     -39.781  22.345   3.008  0.00  0.00    +0.292 HD
ENDBRANCH  19  25
BRANCH  21  27
ATOM     27  O   UNL     1     -36.270  18.601  -1.644  0.00  0.00    -0.471 OA
ATOM     28  C   UNL     1     -35.774  17.281  -1.535  0.00  0.00    +0.252 C 
ENDBRANCH  21  27
ENDBRANCH   3  15
BRANCH   7  29
ATOM     29  O   UNL     1     -35.626  20.931   4.296  0.00  0.00    -0.505 OA
ATOM     30  H   UNL     1     -36.329  20.402   3.973  0.00  0.00    +0.292 HD
ENDBRANCH   7  29
BRANCH   9  31
ATOM     31  O   UNL     1     -34.890  27.394   4.054  0.00  0.00    -0.471 OA
ATOM     32  C   UNL     1     -33.893  28.075   3.316  0.00  0.00    +0.252 C 
ENDBRANCH   9  31
TORSDOF 5
ENDMDL
MODEL 9
REMARK VINA RESULT:      -6.3      2.528      6.871
REMARK  Name = 5484238
REMARK  5 active torsions:
REMARK  status: ('A' for Active; 'I' for Inactive)
REMARK    1  A    between atoms: C_3  and  C_15
REMARK    2  A    between atoms: C_7  and  O_29
REMARK    3  A    between atoms: C_9  and  O_31
REMARK    4  A    between atoms: C_19  and  O_25
REMARK    5  A    between atoms: C_21  and  O_27
REMARK                            x       y       z     vdW  Elec       q    Type
REMARK                         _______ _______ _______ _____ _____    ______ ____
ROOT
ATOM      1  O   UNL     1     -36.148  22.435  -0.299  0.00  0.00    -0.421 OA
ATOM      2  O   UNL     1     -34.346  23.039  -1.574  0.00  0.00    -0.244 OA
ATOM      3  C   UNL     1     -38.000  21.758   1.044  0.00  0.00    +0.074 C 
ATOM      4  C   UNL     1     -37.496  22.026  -0.230  0.00  0.00    +0.154 C 
ATOM      5  C   UNL     1     -38.271  21.892  -1.386  0.00  0.00    +0.065 C 
ATOM      6  C   UNL     1     -39.594  21.458  -1.230  0.00  0.00    -0.013 C 
ATOM      7  C   UNL     1     -39.318  21.337   1.178  0.00  0.00    +0.136 C 
ATOM      8  C   UNL     1     -40.113  21.185   0.043  0.00  0.00    +0.033 C 
ATOM      9  C   UNL     1     -37.635  22.204  -2.672  0.00  0.00    +0.148 C 
ATOM     10  C   UNL     1     -40.528  21.204  -2.371  0.00  0.00    +0.031 C 
ATOM     11  C   UNL     1     -36.352  22.574  -2.717  0.00  0.00    +0.119 C 
ATOM     12  C   UNL     1     -35.523  22.703  -1.509  0.00  0.00    +0.349 C 
ENDROOT
BRANCH   3  15
ATOM     13  O   UNL     1     -37.907  24.173   2.391  0.00  0.00    -0.421 OA
ATOM     14  O   UNL     1     -38.669  26.323   2.567  0.00  0.00    -0.244 OA
ATOM     15  C   UNL     1     -37.164  21.912   2.220  0.00  0.00    +0.074 C 
ATOM     16  C   UNL     1     -37.107  23.129   2.902  0.00  0.00    +0.154 C 
ATOM     17  C   UNL     1     -36.312  23.317   4.037  0.00  0.00    +0.065 C 
ATOM     18  C   UNL     1     -35.566  22.221   4.490  0.00  0.00    -0.013 C 
ATOM     19  C   UNL     1     -36.409  20.840   2.683  0.00  0.00    +0.136 C 
ATOM     20  C   UNL     1     -35.614  20.994   3.817  0.00  0.00    +0.033 C 
ATOM     21  C   UNL     1     -36.329  24.641   4.669  0.00  0.00    +0.148 C 
ATOM     22  C   UNL     1     -34.720  22.244   5.725  0.00  0.00    +0.031 C 
ATOM     23  C   UNL     1     -37.107  25.612   4.179  0.00  0.00    +0.119 C 
ATOM     24  C   UNL     1     -37.959  25.420   2.996  0.00  0.00    +0.349 C 
BRANCH  19  25
ATOM     25  O   UNL     1     -36.432  19.631   2.056  0.00  0.00    -0.505 OA
ATOM     26  H   UNL     1     -37.248  19.199   1.899  0.00  0.00    +0.292 HD
ENDBRANCH  19  25
BRANCH  21  27
ATOM     27  O   UNL     1     -35.499  24.919   5.734  0.00  0.00    -0.471 OA
ATOM     28  C   UNL     1     -34.630  25.992   5.427  0.00  0.00    +0.252 C 
ENDBRANCH  21  27
ENDBRANCH   3  15
BRANCH   7  29
ATOM     29  O   UNL     1     -39.858  21.060   2.399  0.00  0.00    -0.505 OA
ATOM     30  H   UNL     1     -40.639  20.547   2.458  0.00  0.00    +0.292 HD
ENDBRANCH   7  29
BRANCH   9  31
ATOM     31  O   UNL     1     -38.369  22.180  -3.838  0.00  0.00    -0.471 OA
ATOM     32  C   UNL     1     -38.336  23.441  -4.478  0.00  0.00    +0.252 C 
ENDBRANCH   9  31
TORSDOF 5
ENDMDL
