MODEL 1
REMARK VINA RESULT:      -6.5      0.000      0.000
REMARK  Name = 56842347
REMARK  11 active torsions:
REMARK  status: ('A' for Active; 'I' for Inactive)
REMARK    1  A    between atoms: C_1  and  C_3
REMARK    2  A    between atoms: C_1  and  C_17
REMARK    3  A    between atoms: C_5  and  C_13
REMARK    4  A    between atoms: C_6  and  O_10
REMARK    5  A    between atoms: C_13  and  O_14
REMARK    6  A    between atoms: C_17  and  O_18
REMARK    7  A    between atoms: O_18  and  C_19
REMARK    8  A    between atoms: C_19  and  C_20
REMARK    9  A    between atoms: C_20  and  C_21
REMARK   10  A    between atoms: C_24  and  O_27
REMARK   11  A    between atoms: C_26  and  O_29
REMARK                            x       y       z     vdW  Elec       q    Type
REMARK                         _______ _______ _______ _____ _____    ______ ____
ROOT
ATOM      1  C   UNL     1     -35.195  22.855   2.787  0.00  0.00    +0.118 C 
ENDROOT
BRANCH   1   3
ATOM      2  O   UNL     1     -36.131  26.209   4.568  0.00  0.00    -0.446 OA
ATOM      3  C   UNL     1     -36.152  23.337   3.883  0.00  0.00    +0.067 C 
ATOM      4  C   UNL     1     -35.375  23.908   5.059  0.00  0.00    +0.025 C 
ATOM      5  C   UNL     1     -37.107  24.370   3.355  0.00  0.00    +0.094 C 
ATOM      6  C   UNL     1     -35.006  25.375   4.899  0.00  0.00    +0.305 C 
ATOM      7  C   UNL     1     -37.056  25.657   3.719  0.00  0.00    +0.178 C 
ATOM      8  C   UNL     1     -35.081  23.150   6.127  0.00  0.00    -0.028 C 
ATOM      9  C   UNL     1     -35.484  21.723   6.268  0.00  0.00    +0.030 C 
BRANCH   6  10
ATOM     10  O   UNL     1     -34.346  25.914   6.043  0.00  0.00    -0.347 OA
ATOM     11  H   UNL     1     -34.973  26.444   6.558  0.00  0.00    +0.214 HD
ENDBRANCH   6  10
BRANCH   5  13
ATOM     12  O   UNL     1     -38.518  24.592   1.464  0.00  0.00    -0.245 OA
ATOM     13  C   UNL     1     -38.195  23.966   2.462  0.00  0.00    +0.341 C 
BRANCH  13  14
ATOM     14  O   UNL     1     -38.745  22.820   2.937  0.00  0.00    -0.441 OA
ATOM     15  C   UNL     1     -39.264  21.931   1.943  0.00  0.00    +0.256 C 
ENDBRANCH  13  14
ENDBRANCH   5  13
ENDBRANCH   1   3
BRANCH   1  17
ATOM     16  O   UNL     1     -35.535  20.460   3.028  0.00  0.00    -0.250 OA
ATOM     17  C   UNL     1     -35.535  21.462   2.327  0.00  0.00    +0.318 C 
BRANCH  17  18
ATOM     18  O   UNL     1     -35.843  21.509   0.997  0.00  0.00    -0.448 OA
BRANCH  18  19
ATOM     19  C   UNL     1     -35.079  20.637   0.158  0.00  0.00    +0.213 C 
BRANCH  19  20
ATOM     20  C   UNL     1     -33.638  21.133   0.076  0.00  0.00    +0.074 C 
BRANCH  20  21
ATOM     21  C   UNL     1     -32.637  20.035   0.340  0.00  0.00    -0.015 C 
ATOM     22  C   UNL     1     -31.351  20.122  -0.192  0.00  0.00    +0.036 C 
ATOM     23  C   UNL     1     -32.998  18.933   1.115  0.00  0.00    -0.001 C 
ATOM     24  C   UNL     1     -30.425  19.108   0.052  0.00  0.00    +0.167 C 
ATOM     25  C   UNL     1     -32.072  17.919   1.359  0.00  0.00    +0.039 C 
ATOM     26  C   UNL     1     -30.785  18.006   0.828  0.00  0.00    +0.167 C 
BRANCH  24  27
ATOM     27  O   UNL     1     -29.171  19.206  -0.471  0.00  0.00    -0.503 OA
ATOM     28  H   UNL     1     -28.471  19.550   0.049  0.00  0.00    +0.292 HD
ENDBRANCH  24  27
BRANCH  26  29
ATOM     29  O   UNL     1     -29.889  17.010   1.074  0.00  0.00    -0.503 OA
ATOM     30  H   UNL     1     -28.980  17.142   0.891  0.00  0.00    +0.292 HD
ENDBRANCH  26  29
ENDBRANCH  20  21
ENDBRANCH  19  20
ENDBRANCH  18  19
ENDBRANCH  17  18
ENDBRANCH   1  17
TORSDOF 11
ENDMDL
MODEL 2
REMARK VINA RESULT:      -6.4      1.061      1.866
REMARK  Name = 56842347
REMARK  11 active torsions:
REMARK  status: ('A' for Active; 'I' for Inactive)
REMARK    1  A    between atoms: C_1  and  C_3
REMARK    2  A    between atoms: C_1  and  C_17
REMARK    3  A    between atoms: C_5  and  C_13
REMARK    4  A    between atoms: C_6  and  O_10
REMARK    5  A    between atoms: C_13  and  O_14
REMARK    6  A    between atoms: C_17  and  O_18
REMARK    7  A    between atoms: O_18  and  C_19
REMARK    8  A    between atoms: C_19  and  C_20
REMARK    9  A    between atoms: C_20  and  C_21
REMARK   10  A    between atoms: C_24  and  O_27
REMARK   11  A    between atoms: C_26  and  O_29
REMARK                            x       y       z     vdW  Elec       q    Type
REMARK                         _______ _______ _______ _____ _____    ______ ____
ROOT
ATOM      1  C   UNL     1     -36.113  22.686   2.501  0.00  0.00    +0.118 C 
ENDROOT
BRANCH   1   3
ATOM      2  O   UNL     1     -35.247  26.233   3.903  0.00  0.00    -0.446 OA
ATOM      3  C   UNL     1     -36.422  23.530   3.743  0.00  0.00    +0.067 C 
ATOM      4  C   UNL     1     -35.147  23.840   4.511  0.00  0.00    +0.025 C 
ATOM      5  C   UNL     1     -37.116  24.809   3.371  0.00  0.00    +0.094 C 
ATOM      6  C   UNL     1     -34.407  25.069   4.005  0.00  0.00    +0.305 C 
ATOM      7  C   UNL     1     -36.532  26.009   3.484  0.00  0.00    +0.178 C 
ATOM      8  C   UNL     1     -34.761  23.078   5.547  0.00  0.00    -0.028 C 
ATOM      9  C   UNL     1     -35.524  21.898   6.039  0.00  0.00    +0.030 C 
BRANCH   6  10
ATOM     10  O   UNL     1     -33.256  25.389   4.784  0.00  0.00    -0.347 OA
ATOM     11  H   UNL     1     -33.208  26.349   4.910  0.00  0.00    +0.214 HD
ENDBRANCH   6  10
BRANCH   5  13
ATOM     12  O   UNL     1     -39.443  24.462   3.663  0.00  0.00    -0.245 OA
ATOM     13  C   UNL     1     -38.514  24.780   2.936  0.00  0.00    +0.341 C 
BRANCH  13  14
ATOM     14  O   UNL     1     -38.571  25.153   1.632  0.00  0.00    -0.441 OA
ATOM     15  C   UNL     1     -39.462  24.389   0.814  0.00  0.00    +0.256 C 
ENDBRANCH  13  14
ENDBRANCH   5  13
ENDBRANCH   1   3
BRANCH   1  17
ATOM     16  O   UNL     1     -38.154  21.414   2.148  0.00  0.00    -0.250 OA
ATOM     17  C   UNL     1     -36.969  21.449   2.444  0.00  0.00    +0.318 C 
BRANCH  17  18
ATOM     18  O   UNL     1     -36.195  20.374   2.781  0.00  0.00    -0.448 OA
BRANCH  18  19
ATOM     19  C   UNL     1     -34.830  20.440   2.354  0.00  0.00    +0.213 C 
BRANCH  19  20
ATOM     20  C   UNL     1     -34.596  19.445   1.222  0.00  0.00    +0.074 C 
BRANCH  20  21
ATOM     21  C   UNL     1     -33.145  19.369   0.814  0.00  0.00    -0.015 C 
ATOM     22  C   UNL     1     -32.382  18.253   1.158  0.00  0.00    +0.036 C 
ATOM     23  C   UNL     1     -32.568  20.414   0.095  0.00  0.00    -0.001 C 
ATOM     24  C   UNL     1     -31.041  18.182   0.780  0.00  0.00    +0.167 C 
ATOM     25  C   UNL     1     -31.226  20.344  -0.282  0.00  0.00    +0.039 C 
ATOM     26  C   UNL     1     -30.463  19.228   0.060  0.00  0.00    +0.167 C 
BRANCH  24  27
ATOM     27  O   UNL     1     -30.307  17.086   1.120  0.00  0.00    -0.503 OA
ATOM     28  H   UNL     1     -30.733  16.266   1.277  0.00  0.00    +0.292 HD
ENDBRANCH  24  27
BRANCH  26  29
ATOM     29  O   UNL     1     -29.155  19.170  -0.315  0.00  0.00    -0.503 OA
ATOM     30  H   UNL     1     -28.479  19.286   0.324  0.00  0.00    +0.292 HD
ENDBRANCH  26  29
ENDBRANCH  20  21
ENDBRANCH  19  20
ENDBRANCH  18  19
ENDBRANCH  17  18
ENDBRANCH   1  17
TORSDOF 11
ENDMDL
MODEL 3
REMARK VINA RESULT:      -6.2      1.467      1.874
REMARK  Name = 56842347
REMARK  11 active torsions:
REMARK  status: ('A' for Active; 'I' for Inactive)
REMARK    1  A    between atoms: C_1  and  C_3
REMARK    2  A    between atoms: C_1  and  C_17
REMARK    3  A    between atoms: C_5  and  C_13
REMARK    4  A    between atoms: C_6  and  O_10
REMARK    5  A    between atoms: C_13  and  O_14
REMARK    6  A    between atoms: C_17  and  O_18
REMARK    7  A    between atoms: O_18  and  C_19
REMARK    8  A    between atoms: C_19  and  C_20
REMARK    9  A    between atoms: C_20  and  C_21
REMARK   10  A    between atoms: C_24  and  O_27
REMARK   11  A    between atoms: C_26  and  O_29
REMARK                            x       y       z     vdW  Elec       q    Type
REMARK                         _______ _______ _______ _____ _____    ______ ____
ROOT
ATOM      1  C   UNL     1     -35.255  22.685   2.751  0.00  0.00    +0.118 C 
ENDROOT
BRANCH   1   3
ATOM      2  O   UNL     1     -35.331  26.371   4.054  0.00  0.00    -0.446 OA
ATOM      3  C   UNL     1     -36.002  23.506   3.807  0.00  0.00    +0.067 C 
ATOM      4  C   UNL     1     -35.033  24.049   4.846  0.00  0.00    +0.025 C 
ATOM      5  C   UNL     1     -36.760  24.641   3.178  0.00  0.00    +0.094 C 
ATOM      6  C   UNL     1     -34.381  25.366   4.452  0.00  0.00    +0.305 C 
ATOM      7  C   UNL     1     -36.414  25.923   3.343  0.00  0.00    +0.178 C 
ATOM      8  C   UNL     1     -34.819  23.397   6.000  0.00  0.00    -0.028 C 
ATOM      9  C   UNL     1     -35.497  22.125   6.371  0.00  0.00    +0.030 C 
BRANCH   6  10
ATOM     10  O   UNL     1     -33.536  25.899   5.469  0.00  0.00    -0.347 OA
ATOM     11  H   UNL     1     -33.974  26.652   5.893  0.00  0.00    +0.214 HD
ENDBRANCH   6  10
BRANCH   5  13
ATOM     12  O   UNL     1     -38.033  24.429   1.189  0.00  0.00    -0.245 OA
ATOM     13  C   UNL     1     -37.975  24.365   2.408  0.00  0.00    +0.341 C 
BRANCH  13  14
ATOM     14  O   UNL     1     -38.972  24.043   3.271  0.00  0.00    -0.441 OA
ATOM     15  C   UNL     1     -40.027  25.004   3.375  0.00  0.00    +0.256 C 
ENDBRANCH  13  14
ENDBRANCH   5  13
ENDBRANCH   1   3
BRANCH   1  17
ATOM     16  O   UNL     1     -35.235  20.362   3.471  0.00  0.00    -0.250 OA
ATOM     17  C   UNL     1     -35.693  21.244   2.758  0.00  0.00    +0.318 C 
BRANCH  17  18
ATOM     18  O   UNL     1     -36.686  21.090   1.833  0.00  0.00    -0.448 OA
BRANCH  18  19
ATOM     19  C   UNL     1     -36.609  19.902   1.038  0.00  0.00    +0.213 C 
BRANCH  19  20
ATOM     20  C   UNL     1     -35.399  19.980   0.113  0.00  0.00    +0.074 C 
BRANCH  20  21
ATOM     21  C   UNL     1     -34.541  18.740   0.184  0.00  0.00    -0.015 C 
ATOM     22  C   UNL     1     -33.362  18.752   0.929  0.00  0.00    +0.036 C 
ATOM     23  C   UNL     1     -34.926  17.585  -0.495  0.00  0.00    -0.001 C 
ATOM     24  C   UNL     1     -32.568  17.606   0.995  0.00  0.00    +0.167 C 
ATOM     25  C   UNL     1     -34.133  16.440  -0.429  0.00  0.00    +0.039 C 
ATOM     26  C   UNL     1     -32.954  16.450   0.317  0.00  0.00    +0.167 C 
BRANCH  24  27
ATOM     27  O   UNL     1     -31.420  17.629   1.728  0.00  0.00    -0.503 OA
ATOM     28  H   UNL     1     -30.638  17.994   1.364  0.00  0.00    +0.292 HD
ENDBRANCH  24  27
BRANCH  26  29
ATOM     29  O   UNL     1     -32.188  15.325   0.375  0.00  0.00    -0.503 OA
ATOM     30  H   UNL     1     -31.311  15.372   0.701  0.00  0.00    +0.292 HD
ENDBRANCH  26  29
ENDBRANCH  20  21
ENDBRANCH  19  20
ENDBRANCH  18  19
ENDBRANCH  17  18
ENDBRANCH   1  17
TORSDOF 11
ENDMDL
MODEL 4
REMARK VINA RESULT:      -6.2      1.282      1.796
REMARK  Name = 56842347
REMARK  11 active torsions:
REMARK  status: ('A' for Active; 'I' for Inactive)
REMARK    1  A    between atoms: C_1  and  C_3
REMARK    2  A    between atoms: C_1  and  C_17
REMARK    3  A    between atoms: C_5  and  C_13
REMARK    4  A    between atoms: C_6  and  O_10
REMARK    5  A    between atoms: C_13  and  O_14
REMARK    6  A    between atoms: C_17  and  O_18
REMARK    7  A    between atoms: O_18  and  C_19
REMARK    8  A    between atoms: C_19  and  C_20
REMARK    9  A    between atoms: C_20  and  C_21
REMARK   10  A    between atoms: C_24  and  O_27
REMARK   11  A    between atoms: C_26  and  O_29
REMARK                            x       y       z     vdW  Elec       q    Type
REMARK                         _______ _______ _______ _____ _____    ______ ____
ROOT
ATOM      1  C   UNL     1     -35.313  22.727   2.684  0.00  0.00    +0.118 C 
ENDROOT
BRANCH   1   3
ATOM      2  O   UNL     1     -35.331  26.384   4.070  0.00  0.00    -0.446 OA
ATOM      3  C   UNL     1     -36.042  23.535   3.764  0.00  0.00    +0.067 C 
ATOM      4  C   UNL     1     -35.059  24.041   4.808  0.00  0.00    +0.025 C 
ATOM      5  C   UNL     1     -36.788  24.693   3.164  0.00  0.00    +0.094 C 
ATOM      6  C   UNL     1     -34.392  25.357   4.439  0.00  0.00    +0.305 C 
ATOM      7  C   UNL     1     -36.424  25.967   3.355  0.00  0.00    +0.178 C 
ATOM      8  C   UNL     1     -34.848  23.361   5.946  0.00  0.00    -0.028 C 
ATOM      9  C   UNL     1     -35.541  22.090   6.293  0.00  0.00    +0.030 C 
BRANCH   6  10
ATOM     10  O   UNL     1     -33.534  25.856   5.463  0.00  0.00    -0.347 OA
ATOM     11  H   UNL     1     -33.171  26.713   5.192  0.00  0.00    +0.214 HD
ENDBRANCH   6  10
BRANCH   5  13
ATOM     12  O   UNL     1     -38.266  25.005   1.337  0.00  0.00    -0.245 OA
ATOM     13  C   UNL     1     -38.011  24.451   2.396  0.00  0.00    +0.341 C 
BRANCH  13  14
ATOM     14  O   UNL     1     -38.767  23.538   3.058  0.00  0.00    -0.441 OA
ATOM     15  C   UNL     1     -39.683  22.796   2.247  0.00  0.00    +0.256 C 
ENDBRANCH  13  14
ENDBRANCH   5  13
ENDBRANCH   1   3
BRANCH   1  17
ATOM     16  O   UNL     1     -35.251  20.426   3.468  0.00  0.00    -0.250 OA
ATOM     17  C   UNL     1     -35.709  21.274   2.717  0.00  0.00    +0.318 C 
BRANCH  17  18
ATOM     18  O   UNL     1     -36.666  21.068   1.764  0.00  0.00    -0.448 OA
BRANCH  18  19
ATOM     19  C   UNL     1     -36.550  19.844   1.030  0.00  0.00    +0.213 C 
BRANCH  19  20
ATOM     20  C   UNL     1     -35.481  19.991  -0.049  0.00  0.00    +0.074 C 
BRANCH  20  21
ATOM     21  C   UNL     1     -34.305  19.073   0.177  0.00  0.00    -0.015 C 
ATOM     22  C   UNL     1     -34.438  17.703  -0.049  0.00  0.00    +0.036 C 
ATOM     23  C   UNL     1     -33.087  19.594   0.613  0.00  0.00    -0.001 C 
ATOM     24  C   UNL     1     -33.351  16.854   0.160  0.00  0.00    +0.167 C 
ATOM     25  C   UNL     1     -32.001  18.745   0.822  0.00  0.00    +0.039 C 
ATOM     26  C   UNL     1     -32.132  17.374   0.595  0.00  0.00    +0.167 C 
BRANCH  24  27
ATOM     27  O   UNL     1     -33.492  15.518  -0.066  0.00  0.00    -0.503 OA
ATOM     28  H   UNL     1     -34.331  15.166  -0.291  0.00  0.00    +0.292 HD
ENDBRANCH  24  27
BRANCH  26  29
ATOM     29  O   UNL     1     -31.064  16.555   0.802  0.00  0.00    -0.503 OA
ATOM     30  H   UNL     1     -30.481  16.717   1.517  0.00  0.00    +0.292 HD
ENDBRANCH  26  29
ENDBRANCH  20  21
ENDBRANCH  19  20
ENDBRANCH  18  19
ENDBRANCH  17  18
ENDBRANCH   1  17
TORSDOF 11
ENDMDL
MODEL 5
REMARK VINA RESULT:      -6.2      4.661      7.655
REMARK  Name = 56842347
REMARK  11 active torsions:
REMARK  status: ('A' for Active; 'I' for Inactive)
REMARK    1  A    between atoms: C_1  and  C_3
REMARK    2  A    between atoms: C_1  and  C_17
REMARK    3  A    between atoms: C_5  and  C_13
REMARK    4  A    between atoms: C_6  and  O_10
REMARK    5  A    between atoms: C_13  and  O_14
REMARK    6  A    between atoms: C_17  and  O_18
REMARK    7  A    between atoms: O_18  and  C_19
REMARK    8  A    between atoms: C_19  and  C_20
REMARK    9  A    between atoms: C_20  and  C_21
REMARK   10  A    between atoms: C_24  and  O_27
REMARK   11  A    between atoms: C_26  and  O_29
REMARK                            x       y       z     vdW  Elec       q    Type
REMARK                         _______ _______ _______ _____ _____    ______ ____
ROOT
ATOM      1  C   UNL     1     -32.143  28.534   3.528  0.00  0.00    +0.118 C 
ENDROOT
BRANCH   1   3
ATOM      2  O   UNL     1     -30.870  32.227   3.734  0.00  0.00    -0.446 OA
ATOM      3  C   UNL     1     -32.398  29.784   4.378  0.00  0.00    +0.067 C 
ATOM      4  C   UNL     1     -31.134  30.196   5.117  0.00  0.00    +0.025 C 
ATOM      5  C   UNL     1     -32.888  30.925   3.533  0.00  0.00    +0.094 C 
ATOM      6  C   UNL     1     -30.206  31.083   4.302  0.00  0.00    +0.305 C 
ATOM      7  C   UNL     1     -32.151  32.016   3.292  0.00  0.00    +0.178 C 
ATOM      8  C   UNL     1     -30.912  29.801   6.381  0.00  0.00    -0.028 C 
ATOM      9  C   UNL     1     -31.856  28.957   7.164  0.00  0.00    +0.030 C 
BRANCH   6  10
ATOM     10  O   UNL     1     -29.065  31.523   5.036  0.00  0.00    -0.347 OA
ATOM     11  H   UNL     1     -29.281  31.555   5.981  0.00  0.00    +0.214 HD
ENDBRANCH   6  10
BRANCH   5  13
ATOM     12  O   UNL     1     -35.242  30.693   3.683  0.00  0.00    -0.245 OA
ATOM     13  C   UNL     1     -34.251  30.903   3.000  0.00  0.00    +0.341 C 
BRANCH  13  14
ATOM     14  O   UNL     1     -34.200  31.148   1.665  0.00  0.00    -0.441 OA
ATOM     15  C   UNL     1     -34.279  29.991   0.827  0.00  0.00    +0.256 C 
ENDBRANCH  13  14
ENDBRANCH   5  13
ENDBRANCH   1   3
BRANCH   1  17
ATOM     16  O   UNL     1     -33.755  26.959   2.617  0.00  0.00    -0.250 OA
ATOM     17  C   UNL     1     -33.314  27.588   3.568  0.00  0.00    +0.318 C 
BRANCH  17  18
ATOM     18  O   UNL     1     -33.797  27.555   4.845  0.00  0.00    -0.448 OA
BRANCH  18  19
ATOM     19  C   UNL     1     -33.795  26.266   5.470  0.00  0.00    +0.213 C 
BRANCH  19  20
ATOM     20  C   UNL     1     -35.224  25.740   5.567  0.00  0.00    +0.074 C 
BRANCH  20  21
ATOM     21  C   UNL     1     -35.371  24.365   4.960  0.00  0.00    -0.015 C 
ATOM     22  C   UNL     1     -35.259  23.233   5.766  0.00  0.00    +0.036 C 
ATOM     23  C   UNL     1     -35.620  24.228   3.595  0.00  0.00    -0.001 C 
ATOM     24  C   UNL     1     -35.396  21.962   5.207  0.00  0.00    +0.167 C 
ATOM     25  C   UNL     1     -35.756  22.958   3.035  0.00  0.00    +0.039 C 
ATOM     26  C   UNL     1     -35.645  21.825   3.841  0.00  0.00    +0.167 C 
BRANCH  24  27
ATOM     27  O   UNL     1     -35.286  20.863   6.005  0.00  0.00    -0.503 OA
ATOM     28  H   UNL     1     -35.009  20.046   5.641  0.00  0.00    +0.292 HD
ENDBRANCH  24  27
BRANCH  26  29
ATOM     29  O   UNL     1     -35.781  20.590   3.283  0.00  0.00    -0.503 OA
ATOM     30  H   UNL     1     -36.104  20.504   2.408  0.00  0.00    +0.292 HD
ENDBRANCH  26  29
ENDBRANCH  20  21
ENDBRANCH  19  20
ENDBRANCH  18  19
ENDBRANCH  17  18
ENDBRANCH   1  17
TORSDOF 11
ENDMDL
MODEL 6
REMARK VINA RESULT:      -6.1      2.210      4.583
REMARK  Name = 56842347
REMARK  11 active torsions:
REMARK  status: ('A' for Active; 'I' for Inactive)
REMARK    1  A    between atoms: C_1  and  C_3
REMARK    2  A    between atoms: C_1  and  C_17
REMARK    3  A    between atoms: C_5  and  C_13
REMARK    4  A    between atoms: C_6  and  O_10
REMARK    5  A    between atoms: C_13  and  O_14
REMARK    6  A    between atoms: C_17  and  O_18
REMARK    7  A    between atoms: O_18  and  C_19
REMARK    8  A    between atoms: C_19  and  C_20
REMARK    9  A    between atoms: C_20  and  C_21
REMARK   10  A    between atoms: C_24  and  O_27
REMARK   11  A    between atoms: C_26  and  O_29
REMARK                            x       y       z     vdW  Elec       q    Type
REMARK                         _______ _______ _______ _____ _____    ______ ____
ROOT
ATOM      1  C   UNL     1     -35.028  24.648   2.362  0.00  0.00    +0.118 C 
ENDROOT
BRANCH   1   3
ATOM      2  O   UNL     1     -35.122  21.901   5.144  0.00  0.00    -0.446 OA
ATOM      3  C   UNL     1     -35.965  24.195   3.487  0.00  0.00    +0.067 C 
ATOM      4  C   UNL     1     -36.442  22.771   3.245  0.00  0.00    +0.025 C 
ATOM      5  C   UNL     1     -35.288  24.283   4.826  0.00  0.00    +0.094 C 
ATOM      6  C   UNL     1     -35.491  21.705   3.767  0.00  0.00    +0.305 C 
ATOM      7  C   UNL     1     -34.946  23.202   5.537  0.00  0.00    +0.178 C 
ATOM      8  C   UNL     1     -37.615  22.529   2.637  0.00  0.00    -0.028 C 
ATOM      9  C   UNL     1     -38.540  23.595   2.166  0.00  0.00    +0.030 C 
BRANCH   6  10
ATOM     10  O   UNL     1     -35.990  20.380   3.601  0.00  0.00    -0.347 OA
ATOM     11  H   UNL     1     -35.811  20.077   2.697  0.00  0.00    +0.214 HD
ENDBRANCH   6  10
BRANCH   5  13
ATOM     12  O   UNL     1     -35.938  26.311   5.866  0.00  0.00    -0.245 OA
ATOM     13  C   UNL     1     -35.049  25.593   5.435  0.00  0.00    +0.341 C 
BRANCH  13  14
ATOM     14  O   UNL     1     -33.714  25.840   5.424  0.00  0.00    -0.441 OA
ATOM     15  C   UNL     1     -33.306  26.970   4.647  0.00  0.00    +0.256 C 
ENDBRANCH  13  14
ENDBRANCH   5  13
ENDBRANCH   1   3
BRANCH   1  17
ATOM     16  O   UNL     1     -35.895  26.866   1.868  0.00  0.00    -0.250 OA
ATOM     17  C   UNL     1     -35.660  25.719   1.513  0.00  0.00    +0.318 C 
BRANCH  17  18
ATOM     18  O   UNL     1     -35.926  25.192   0.281  0.00  0.00    -0.448 OA
BRANCH  18  19
ATOM     19  C   UNL     1     -35.058  24.133  -0.136  0.00  0.00    +0.213 C 
BRANCH  19  20
ATOM     20  C   UNL     1     -35.888  22.939  -0.596  0.00  0.00    +0.074 C 
BRANCH  20  21
ATOM     21  C   UNL     1     -35.318  21.624  -0.120  0.00  0.00    -0.015 C 
ATOM     22  C   UNL     1     -36.117  20.482  -0.110  0.00  0.00    +0.036 C 
ATOM     23  C   UNL     1     -33.994  21.554   0.310  0.00  0.00    -0.001 C 
ATOM     24  C   UNL     1     -35.591  19.267   0.330  0.00  0.00    +0.167 C 
ATOM     25  C   UNL     1     -33.467  20.339   0.750  0.00  0.00    +0.039 C 
ATOM     26  C   UNL     1     -34.265  19.195   0.760  0.00  0.00    +0.167 C 
BRANCH  24  27
ATOM     27  O   UNL     1     -36.380  18.156   0.332  0.00  0.00    -0.503 OA
ATOM     28  H   UNL     1     -37.114  18.102  -0.249  0.00  0.00    +0.292 HD
ENDBRANCH  24  27
BRANCH  26  29
ATOM     29  O   UNL     1     -33.740  18.015   1.190  0.00  0.00    -0.503 OA
ATOM     30  H   UNL     1     -32.816  17.869   1.143  0.00  0.00    +0.292 HD
ENDBRANCH  26  29
ENDBRANCH  20  21
ENDBRANCH  19  20
ENDBRANCH  18  19
ENDBRANCH  17  18
ENDBRANCH   1  17
TORSDOF 11
ENDMDL
MODEL 7
REMARK VINA RESULT:      -6.0      1.731      3.933
REMARK  Name = 56842347
REMARK  11 active torsions:
REMARK  status: ('A' for Active; 'I' for Inactive)
REMARK    1  A    between atoms: C_1  and  C_3
REMARK    2  A    between atoms: C_1  and  C_17
REMARK    3  A    between atoms: C_5  and  C_13
REMARK    4  A    between atoms: C_6  and  O_10
REMARK    5  A    between atoms: C_13  and  O_14
REMARK    6  A    between atoms: C_17  and  O_18
REMARK    7  A    between atoms: O_18  and  C_19
REMARK    8  A    between atoms: C_19  and  C_20
REMARK    9  A    between atoms: C_20  and  C_21
REMARK   10  A    between atoms: C_24  and  O_27
REMARK   11  A    between atoms: C_26  and  O_29
REMARK                            x       y       z     vdW  Elec       q    Type
REMARK                         _______ _______ _______ _____ _____    ______ ____
ROOT
ATOM      1  C   UNL     1     -34.463  24.567   2.549  0.00  0.00    +0.118 C 
ENDROOT
BRANCH   1   3
ATOM      2  O   UNL     1     -35.452  22.004   5.333  0.00  0.00    -0.446 OA
ATOM      3  C   UNL     1     -35.696  24.213   3.389  0.00  0.00    +0.067 C 
ATOM      4  C   UNL     1     -36.151  22.791   3.097  0.00  0.00    +0.025 C 
ATOM      5  C   UNL     1     -35.415  24.365   4.857  0.00  0.00    +0.094 C 
ATOM      6  C   UNL     1     -35.432  21.733   3.919  0.00  0.00    +0.305 C 
ATOM      7  C   UNL     1     -35.333  23.322   5.691  0.00  0.00    +0.178 C 
ATOM      8  C   UNL     1     -37.118  22.546   2.199  0.00  0.00    -0.028 C 
ATOM      9  C   UNL     1     -37.826  23.607   1.432  0.00  0.00    +0.030 C 
BRANCH   6  10
ATOM     10  O   UNL     1     -35.925  20.415   3.689  0.00  0.00    -0.347 OA
ATOM     11  H   UNL     1     -35.642  19.833   4.411  0.00  0.00    +0.214 HD
ENDBRANCH   6  10
BRANCH   5  13
ATOM     12  O   UNL     1     -36.155  26.565   5.339  0.00  0.00    -0.245 OA
ATOM     13  C   UNL     1     -35.295  25.703   5.440  0.00  0.00    +0.341 C 
BRANCH  13  14
ATOM     14  O   UNL     1     -34.100  25.793   6.079  0.00  0.00    -0.441 OA
ATOM     15  C   UNL     1     -33.258  26.869   5.654  0.00  0.00    +0.256 C 
ENDBRANCH  13  14
ENDBRANCH   5  13
ENDBRANCH   1   3
BRANCH   1  17
ATOM     16  O   UNL     1     -35.391  26.509   1.418  0.00  0.00    -0.250 OA
ATOM     17  C   UNL     1     -34.827  25.425   1.366  0.00  0.00    +0.318 C 
BRANCH  17  18
ATOM     18  O   UNL     1     -34.421  24.787   0.230  0.00  0.00    -0.448 OA
BRANCH  18  19
ATOM     19  C   UNL     1     -33.426  23.773   0.415  0.00  0.00    +0.213 C 
BRANCH  19  20
ATOM     20  C   UNL     1     -33.679  22.621  -0.553  0.00  0.00    +0.074 C 
BRANCH  20  21
ATOM     21  C   UNL     1     -33.214  21.295  -0.002  0.00  0.00    -0.015 C 
ATOM     22  C   UNL     1     -31.918  20.851  -0.259  0.00  0.00    +0.036 C 
ATOM     23  C   UNL     1     -34.081  20.515   0.762  0.00  0.00    -0.001 C 
ATOM     24  C   UNL     1     -31.487  19.625   0.250  0.00  0.00    +0.167 C 
ATOM     25  C   UNL     1     -33.650  19.290   1.271  0.00  0.00    +0.039 C 
ATOM     26  C   UNL     1     -32.353  18.844   1.016  0.00  0.00    +0.167 C 
BRANCH  24  27
ATOM     27  O   UNL     1     -30.217  19.202  -0.006  0.00  0.00    -0.503 OA
ATOM     28  H   UNL     1     -29.667  19.694  -0.584  0.00  0.00    +0.292 HD
ENDBRANCH  24  27
BRANCH  26  29
ATOM     29  O   UNL     1     -31.944  17.647   1.519  0.00  0.00    -0.503 OA
ATOM     30  H   UNL     1     -32.485  16.889   1.420  0.00  0.00    +0.292 HD
ENDBRANCH  26  29
ENDBRANCH  20  21
ENDBRANCH  19  20
ENDBRANCH  18  19
ENDBRANCH  17  18
ENDBRANCH   1  17
TORSDOF 11
ENDMDL
MODEL 8
REMARK VINA RESULT:      -5.9      1.585      3.121
REMARK  Name = 56842347
REMARK  11 active torsions:
REMARK  status: ('A' for Active; 'I' for Inactive)
REMARK    1  A    between atoms: C_1  and  C_3
REMARK    2  A    between atoms: C_1  and  C_17
REMARK    3  A    between atoms: C_5  and  C_13
REMARK    4  A    between atoms: C_6  and  O_10
REMARK    5  A    between atoms: C_13  and  O_14
REMARK    6  A    between atoms: C_17  and  O_18
REMARK    7  A    between atoms: O_18  and  C_19
REMARK    8  A    between atoms: C_19  and  C_20
REMARK    9  A    between atoms: C_20  and  C_21
REMARK   10  A    between atoms: C_24  and  O_27
REMARK   11  A    between atoms: C_26  and  O_29
REMARK                            x       y       z     vdW  Elec       q    Type
REMARK                         _______ _______ _______ _____ _____    ______ ____
ROOT
ATOM      1  C   UNL     1     -34.524  23.906   2.277  0.00  0.00    +0.118 C 
ENDROOT
BRANCH   1   3
ATOM      2  O   UNL     1     -35.646  22.910   5.889  0.00  0.00    -0.446 OA
ATOM      3  C   UNL     1     -35.823  23.566   3.016  0.00  0.00    +0.067 C 
ATOM      4  C   UNL     1     -35.782  22.141   3.544  0.00  0.00    +0.025 C 
ATOM      5  C   UNL     1     -36.070  24.522   4.149  0.00  0.00    +0.094 C 
ATOM      6  C   UNL     1     -35.112  22.007   4.903  0.00  0.00    +0.305 C 
ATOM      7  C   UNL     1     -35.990  24.157   5.434  0.00  0.00    +0.178 C 
ATOM      8  C   UNL     1     -36.318  21.128   2.845  0.00  0.00    -0.028 C 
ATOM      9  C   UNL     1     -36.996  21.296   1.530  0.00  0.00    +0.030 C 
BRANCH   6  10
ATOM     10  O   UNL     1     -35.151  20.678   5.418  0.00  0.00    -0.347 OA
ATOM     11  H   UNL     1     -35.861  20.605   6.074  0.00  0.00    +0.214 HD
ENDBRANCH   6  10
BRANCH   5  13
ATOM     12  O   UNL     1     -37.470  26.179   3.197  0.00  0.00    -0.245 OA
ATOM     13  C   UNL     1     -36.488  25.896   3.865  0.00  0.00    +0.341 C 
BRANCH  13  14
ATOM     14  O   UNL     1     -35.613  26.748   4.457  0.00  0.00    -0.441 OA
ATOM     15  C   UNL     1     -34.668  27.366   3.578  0.00  0.00    +0.256 C 
ENDBRANCH  13  14
ENDBRANCH   5  13
ENDBRANCH   1   3
BRANCH   1  17
ATOM     16  O   UNL     1     -35.109  25.584   0.618  0.00  0.00    -0.250 OA
ATOM     17  C   UNL     1     -34.795  24.435   0.893  0.00  0.00    +0.318 C 
BRANCH  17  18
ATOM     18  O   UNL     1     -34.632  23.413   0.002  0.00  0.00    -0.448 OA
BRANCH  18  19
ATOM     19  C   UNL     1     -33.569  22.501   0.298  0.00  0.00    +0.213 C 
BRANCH  19  20
ATOM     20  C   UNL     1     -33.897  21.125  -0.274  0.00  0.00    +0.074 C 
BRANCH  20  21
ATOM     21  C   UNL     1     -32.906  20.072   0.157  0.00  0.00    -0.015 C 
ATOM     22  C   UNL     1     -31.593  20.117  -0.312  0.00  0.00    +0.036 C 
ATOM     23  C   UNL     1     -33.302  19.055   1.024  0.00  0.00    -0.001 C 
ATOM     24  C   UNL     1     -30.677  19.144   0.087  0.00  0.00    +0.167 C 
ATOM     25  C   UNL     1     -32.386  18.082   1.423  0.00  0.00    +0.039 C 
ATOM     26  C   UNL     1     -31.072  18.126   0.955  0.00  0.00    +0.167 C 
BRANCH  24  27
ATOM     27  O   UNL     1     -29.396  19.200  -0.376  0.00  0.00    -0.503 OA
ATOM     28  H   UNL     1     -28.898  19.988  -0.282  0.00  0.00    +0.292 HD
ENDBRANCH  24  27
BRANCH  26  29
ATOM     29  O   UNL     1     -30.186  17.172   1.352  0.00  0.00    -0.503 OA
ATOM     30  H   UNL     1     -30.476  16.456   1.882  0.00  0.00    +0.292 HD
ENDBRANCH  26  29
ENDBRANCH  20  21
ENDBRANCH  19  20
ENDBRANCH  18  19
ENDBRANCH  17  18
ENDBRANCH   1  17
TORSDOF 11
ENDMDL
MODEL 9
REMARK VINA RESULT:      -5.9      3.454      6.570
REMARK  Name = 56842347
REMARK  11 active torsions:
REMARK  status: ('A' for Active; 'I' for Inactive)
REMARK    1  A    between atoms: C_1  and  C_3
REMARK    2  A    between atoms: C_1  and  C_17
REMARK    3  A    between atoms: C_5  and  C_13
REMARK    4  A    between atoms: C_6  and  O_10
REMARK    5  A    between atoms: C_13  and  O_14
REMARK    6  A    between atoms: C_17  and  O_18
REMARK    7  A    between atoms: O_18  and  C_19
REMARK    8  A    between atoms: C_19  and  C_20
REMARK    9  A    between atoms: C_20  and  C_21
REMARK   10  A    between atoms: C_24  and  O_27
REMARK   11  A    between atoms: C_26  and  O_29
REMARK                            x       y       z     vdW  Elec       q    Type
REMARK                         _______ _______ _______ _____ _____    ______ ____
ROOT
ATOM      1  C   UNL     1     -37.193  24.509   3.664  0.00  0.00    +0.118 C 
ENDROOT
BRANCH   1   3
ATOM      2  O   UNL     1     -35.274  21.164   4.320  0.00  0.00    -0.446 OA
ATOM      3  C   UNL     1     -35.769  23.961   3.514  0.00  0.00    +0.067 C 
ATOM      4  C   UNL     1     -35.199  23.572   4.869  0.00  0.00    +0.025 C 
ATOM      5  C   UNL     1     -35.737  22.777   2.590  0.00  0.00    +0.094 C 
ATOM      6  C   UNL     1     -35.568  22.165   5.312  0.00  0.00    +0.305 C 
ATOM      7  C   UNL     1     -35.489  21.532   3.017  0.00  0.00    +0.178 C 
ATOM      8  C   UNL     1     -34.430  24.424   5.566  0.00  0.00    -0.028 C 
ATOM      9  C   UNL     1     -34.060  25.786   5.092  0.00  0.00    +0.030 C 
BRANCH   6  10
ATOM     10  O   UNL     1     -34.963  21.790   6.547  0.00  0.00    -0.347 OA
ATOM     11  H   UNL     1     -35.652  21.547   7.185  0.00  0.00    +0.214 HD
ENDBRANCH   6  10
BRANCH   5  13
ATOM     12  O   UNL     1     -36.665  22.307   0.460  0.00  0.00    -0.245 OA
ATOM     13  C   UNL     1     -35.907  22.973   1.149  0.00  0.00    +0.341 C 
BRANCH  13  14
ATOM     14  O   UNL     1     -35.098  23.987   0.750  0.00  0.00    -0.441 OA
ATOM     15  C   UNL     1     -33.851  23.586   0.175  0.00  0.00    +0.256 C 
ENDBRANCH  13  14
ENDBRANCH   5  13
ENDBRANCH   1   3
BRANCH   1  17
ATOM     16  O   UNL     1     -36.444  26.494   2.477  0.00  0.00    -0.250 OA
ATOM     17  C   UNL     1     -37.345  25.848   2.992  0.00  0.00    +0.318 C 
BRANCH  17  18
ATOM     18  O   UNL     1     -38.659  26.216   3.058  0.00  0.00    -0.448 OA
BRANCH  18  19
ATOM     19  C   UNL     1     -39.361  26.216   1.810  0.00  0.00    +0.213 C 
BRANCH  19  20
ATOM     20  C   UNL     1     -40.639  25.392   1.939  0.00  0.00    +0.074 C 
BRANCH  20  21
ATOM     21  C   UNL     1     -40.483  23.999   1.380  0.00  0.00    -0.015 C 
ATOM     22  C   UNL     1     -39.740  23.047   2.079  0.00  0.00    +0.036 C 
ATOM     23  C   UNL     1     -41.081  23.663   0.166  0.00  0.00    -0.001 C 
ATOM     24  C   UNL     1     -39.596  21.759   1.563  0.00  0.00    +0.167 C 
ATOM     25  C   UNL     1     -40.937  22.375  -0.350  0.00  0.00    +0.039 C 
ATOM     26  C   UNL     1     -40.195  21.422   0.349  0.00  0.00    +0.167 C 
BRANCH  24  27
ATOM     27  O   UNL     1     -38.870  20.838   2.256  0.00  0.00    -0.503 OA
ATOM     28  H   UNL     1     -38.714  20.957   3.172  0.00  0.00    +0.292 HD
ENDBRANCH  24  27
BRANCH  26  29
ATOM     29  O   UNL     1     -40.062  20.168  -0.164  0.00  0.00    -0.503 OA
ATOM     30  H   UNL     1     -39.450  20.007  -0.855  0.00  0.00    +0.292 HD
ENDBRANCH  26  29
ENDBRANCH  20  21
ENDBRANCH  19  20
ENDBRANCH  18  19
ENDBRANCH  17  18
ENDBRANCH   1  17
TORSDOF 11
ENDMDL
