MODEL 1
REMARK VINA RESULT:      -6.7      0.000      0.000
REMARK  Name = 195236
REMARK  7 active torsions:
REMARK  status: ('A' for Active; 'I' for Inactive)
REMARK    1  A    between atoms: C_1  and  O_2
REMARK    2  A    between atoms: C_1  and  C_4
REMARK    3  A    between atoms: C_1  and  C_18
REMARK    4  A    between atoms: C_4  and  N_7
REMARK    5  A    between atoms: C_18  and  O_19
REMARK    6  A    between atoms: O_19  and  C_21
REMARK    7  A    between atoms: C_21  and  C_24
REMARK                            x       y       z     vdW  Elec       q    Type
REMARK                         _______ _______ _______ _____ _____    ______ ____
ROOT
ATOM      1  C   UNL     1     -35.147  21.911   4.910  0.00  0.00    +0.170 C 
ENDROOT
BRANCH   1   2
ATOM      2  O   UNL     1     -35.597  20.769   5.641  0.00  0.00    -0.379 OA
ATOM      3  H   UNL     1     -35.230  19.965   5.243  0.00  0.00    +0.211 HD
ENDBRANCH   1   2
BRANCH   1   4
ATOM      4  C   UNL     1     -36.146  22.191   3.784  0.00  0.00    +0.108 C 
BRANCH   4   7
ATOM      5  O   UNL     1     -38.817  22.304   2.330  0.00  0.00    -0.272 OA
ATOM      6  O   UNL     1     -39.098  19.338  -1.295  0.00  0.00    -0.252 OA
ATOM      7  N   UNL     1     -36.053  21.227   2.715  0.00  0.00    -0.237 NA
ATOM      8  N   UNL     1     -37.122  19.385  -0.066  0.00  0.00    -0.228 N 
ATOM      9  N   UNL     1     -38.982  20.827   0.510  0.00  0.00    -0.211 N 
ATOM     10  N   UNL     1     -35.169  19.653   1.407  0.00  0.00    -0.240 NA
ATOM     11  C   UNL     1     -37.008  20.920   1.788  0.00  0.00    +0.192 C 
ATOM     12  C   UNL     1     -36.441  19.954   1.001  0.00  0.00    +0.136 C 
ATOM     13  C   UNL     1     -38.326  21.438   1.611  0.00  0.00    +0.254 C 
ATOM     14  C   UNL     1     -34.964  20.439   2.444  0.00  0.00    +0.203 C 
ATOM     15  C   UNL     1     -38.443  19.809  -0.358  0.00  0.00    +0.318 C 
ATOM     16  C   UNL     1     -36.483  18.359  -0.881  0.00  0.00    +0.123 C 
ATOM     17  C   UNL     1     -40.341  21.275   0.227  0.00  0.00    +0.124 C 
ENDBRANCH   4   7
ENDBRANCH   1   4
BRANCH   1  18
ATOM     18  C   UNL     1     -35.060  23.094   5.869  0.00  0.00    +0.239 C 
BRANCH  18  19
ATOM     19  O   UNL     1     -34.397  24.170   5.213  0.00  0.00    -0.443 OA
BRANCH  19  21
ATOM     20  O   UNL     1     -36.106  25.670   5.577  0.00  0.00    -0.245 OA
ATOM     21  C   UNL     1     -34.923  25.408   5.419  0.00  0.00    +0.342 C 
BRANCH  21  24
ATOM     22 CL   UNL     1     -34.198  26.724   2.734  0.00  0.00    -0.082 Cl
ATOM     23 CL   UNL     1     -30.611  29.530   5.599  0.00  0.00    -0.082 Cl
ATOM     24  C   UNL     1     -33.854  26.439   5.425  0.00  0.00    +0.086 C 
ATOM     25  C   UNL     1     -33.472  27.074   4.262  0.00  0.00    +0.065 C 
ATOM     26  C   UNL     1     -33.266  26.727   6.643  0.00  0.00    +0.008 C 
ATOM     27  C   UNL     1     -32.462  28.036   4.314  0.00  0.00    +0.023 C 
ATOM     28  C   UNL     1     -32.257  27.689   6.697  0.00  0.00    +0.012 C 
ATOM     29  C   UNL     1     -31.856  28.343   5.533  0.00  0.00    +0.059 C 
ENDBRANCH  21  24
ENDBRANCH  19  21
ENDBRANCH  18  19
ENDBRANCH   1  18
TORSDOF 7
ENDMDL
MODEL 2
REMARK VINA RESULT:      -6.6      3.003      4.158
REMARK  Name = 195236
REMARK  7 active torsions:
REMARK  status: ('A' for Active; 'I' for Inactive)
REMARK    1  A    between atoms: C_1  and  O_2
REMARK    2  A    between atoms: C_1  and  C_4
REMARK    3  A    between atoms: C_1  and  C_18
REMARK    4  A    between atoms: C_4  and  N_7
REMARK    5  A    between atoms: C_18  and  O_19
REMARK    6  A    between atoms: O_19  and  C_21
REMARK    7  A    between atoms: C_21  and  C_24
REMARK                            x       y       z     vdW  Elec       q    Type
REMARK                         _______ _______ _______ _____ _____    ______ ____
ROOT
ATOM      1  C   UNL     1     -35.612  25.552   5.229  0.00  0.00    +0.170 C 
ENDROOT
BRANCH   1   2
ATOM      2  O   UNL     1     -36.490  26.671   5.371  0.00  0.00    -0.379 OA
ATOM      3  H   UNL     1     -37.243  26.569   4.768  0.00  0.00    +0.211 HD
ENDBRANCH   1   2
BRANCH   1   4
ATOM      4  C   UNL     1     -35.460  25.240   3.739  0.00  0.00    +0.108 C 
BRANCH   4   7
ATOM      5  O   UNL     1     -37.974  26.634   2.737  0.00  0.00    -0.272 OA
ATOM      6  O   UNL     1     -41.258  23.670   1.174  0.00  0.00    -0.252 OA
ATOM      7  N   UNL     1     -36.348  24.189   3.304  0.00  0.00    -0.237 NA
ATOM      8  N   UNL     1     -39.266  22.775   1.980  0.00  0.00    -0.228 N 
ATOM      9  N   UNL     1     -39.634  25.170   1.949  0.00  0.00    -0.211 N 
ATOM     10  N   UNL     1     -37.072  22.123   2.885  0.00  0.00    -0.240 NA
ATOM     11  C   UNL     1     -37.599  24.323   2.774  0.00  0.00    +0.192 C 
ATOM     12  C   UNL     1     -38.020  23.045   2.527  0.00  0.00    +0.136 C 
ATOM     13  C   UNL     1     -38.369  25.494   2.506  0.00  0.00    +0.254 C 
ATOM     14  C   UNL     1     -36.075  22.846   3.350  0.00  0.00    +0.203 C 
ATOM     15  C   UNL     1     -40.137  23.849   1.663  0.00  0.00    +0.318 C 
ATOM     16  C   UNL     1     -39.678  21.398   1.733  0.00  0.00    +0.123 C 
ATOM     17  C   UNL     1     -40.516  26.287   1.632  0.00  0.00    +0.124 C 
ENDBRANCH   4   7
ENDBRANCH   1   4
BRANCH   1  18
ATOM     18  C   UNL     1     -34.267  25.912   5.851  0.00  0.00    +0.239 C 
BRANCH  18  19
ATOM     19  O   UNL     1     -33.780  27.102   5.240  0.00  0.00    -0.443 OA
BRANCH  19  21
ATOM     20  O   UNL     1     -31.880  27.025   6.538  0.00  0.00    -0.245 OA
ATOM     21  C   UNL     1     -32.596  27.575   5.716  0.00  0.00    +0.342 C 
BRANCH  21  24
ATOM     22 CL   UNL     1     -31.647  29.830   7.581  0.00  0.00    -0.082 Cl
ATOM     23 CL   UNL     1     -31.313  32.780   3.093  0.00  0.00    -0.082 Cl
ATOM     24  C   UNL     1     -32.268  28.885   5.098  0.00  0.00    +0.086 C 
ATOM     25  C   UNL     1     -31.835  29.946   5.867  0.00  0.00    +0.065 C 
ATOM     26  C   UNL     1     -32.415  28.988   3.727  0.00  0.00    +0.008 C 
ATOM     27  C   UNL     1     -31.539  31.159   5.245  0.00  0.00    +0.023 C 
ATOM     28  C   UNL     1     -32.118  30.200   3.104  0.00  0.00    +0.012 C 
ATOM     29  C   UNL     1     -31.680  31.285   3.862  0.00  0.00    +0.059 C 
ENDBRANCH  21  24
ENDBRANCH  19  21
ENDBRANCH  18  19
ENDBRANCH   1  18
TORSDOF 7
ENDMDL
MODEL 3
REMARK VINA RESULT:      -6.6      3.742      7.509
REMARK  Name = 195236
REMARK  7 active torsions:
REMARK  status: ('A' for Active; 'I' for Inactive)
REMARK    1  A    between atoms: C_1  and  O_2
REMARK    2  A    between atoms: C_1  and  C_4
REMARK    3  A    between atoms: C_1  and  C_18
REMARK    4  A    between atoms: C_4  and  N_7
REMARK    5  A    between atoms: C_18  and  O_19
REMARK    6  A    between atoms: O_19  and  C_21
REMARK    7  A    between atoms: C_21  and  C_24
REMARK                            x       y       z     vdW  Elec       q    Type
REMARK                         _______ _______ _______ _____ _____    ______ ____
ROOT
ATOM      1  C   UNL     1     -36.843  21.992   1.335  0.00  0.00    +0.170 C 
ENDROOT
BRANCH   1   2
ATOM      2  O   UNL     1     -37.472  22.566   0.188  0.00  0.00    -0.379 OA
ATOM      3  H   UNL     1     -38.290  22.083  -0.008  0.00  0.00    +0.211 HD
ENDBRANCH   1   2
BRANCH   1   4
ATOM      4  C   UNL     1     -37.527  22.542   2.589  0.00  0.00    +0.108 C 
BRANCH   4   7
ATOM      5  O   UNL     1     -37.414  25.338   1.391  0.00  0.00    -0.272 OA
ATOM      6  O   UNL     1     -34.582  28.260   3.728  0.00  0.00    -0.252 OA
ATOM      7  N   UNL     1     -36.621  23.293   3.425  0.00  0.00    -0.237 NA
ATOM      8  N   UNL     1     -34.789  26.076   4.505  0.00  0.00    -0.228 N 
ATOM      9  N   UNL     1     -36.002  26.820   2.545  0.00  0.00    -0.211 N 
ATOM     10  N   UNL     1     -35.203  23.722   5.091  0.00  0.00    -0.240 NA
ATOM     11  C   UNL     1     -36.252  24.600   3.285  0.00  0.00    +0.192 C 
ATOM     12  C   UNL     1     -35.384  24.837   4.317  0.00  0.00    +0.136 C 
ATOM     13  C   UNL     1     -36.634  25.571   2.311  0.00  0.00    +0.254 C 
ATOM     14  C   UNL     1     -35.964  22.807   4.526  0.00  0.00    +0.203 C 
ATOM     15  C   UNL     1     -35.082  27.135   3.610  0.00  0.00    +0.318 C 
ATOM     16  C   UNL     1     -33.870  26.287   5.617  0.00  0.00    +0.123 C 
ATOM     17  C   UNL     1     -36.314  27.897   1.611  0.00  0.00    +0.124 C 
ENDBRANCH   4   7
ENDBRANCH   1   4
BRANCH   1  18
ATOM     18  C   UNL     1     -36.987  20.476   1.256  0.00  0.00    +0.239 C 
BRANCH  18  19
ATOM     19  O   UNL     1     -35.741  19.915   0.855  0.00  0.00    -0.443 OA
BRANCH  19  21
ATOM     20  O   UNL     1     -34.911  20.108   2.994  0.00  0.00    -0.245 OA
ATOM     21  C   UNL     1     -34.762  19.902   1.799  0.00  0.00    +0.342 C 
BRANCH  21  24
ATOM     22 CL   UNL     1     -33.464  22.083   0.062  0.00  0.00    -0.082 Cl
ATOM     23 CL   UNL     1     -29.471  18.539  -0.603  0.00  0.00    -0.082 Cl
ATOM     24  C   UNL     1     -33.444  19.597   1.185  0.00  0.00    +0.086 C 
ATOM     25  C   UNL     1     -32.798  20.524   0.393  0.00  0.00    +0.065 C 
ATOM     26  C   UNL     1     -32.902  18.352   1.444  0.00  0.00    +0.008 C 
ATOM     27  C   UNL     1     -31.562  20.196  -0.165  0.00  0.00    +0.023 C 
ATOM     28  C   UNL     1     -31.666  18.023   0.887  0.00  0.00    +0.012 C 
ATOM     29  C   UNL     1     -30.996  18.945   0.083  0.00  0.00    +0.059 C 
ENDBRANCH  21  24
ENDBRANCH  19  21
ENDBRANCH  18  19
ENDBRANCH   1  18
TORSDOF 7
ENDMDL
MODEL 4
REMARK VINA RESULT:      -6.6      3.599      7.346
REMARK  Name = 195236
REMARK  7 active torsions:
REMARK  status: ('A' for Active; 'I' for Inactive)
REMARK    1  A    between atoms: C_1  and  O_2
REMARK    2  A    between atoms: C_1  and  C_4
REMARK    3  A    between atoms: C_1  and  C_18
REMARK    4  A    between atoms: C_4  and  N_7
REMARK    5  A    between atoms: C_18  and  O_19
REMARK    6  A    between atoms: O_19  and  C_21
REMARK    7  A    between atoms: C_21  and  C_24
REMARK                            x       y       z     vdW  Elec       q    Type
REMARK                         _______ _______ _______ _____ _____    ______ ____
ROOT
ATOM      1  C   UNL     1     -38.267  21.143   0.986  0.00  0.00    +0.170 C 
ENDROOT
BRANCH   1   2
ATOM      2  O   UNL     1     -39.592  20.623   0.858  0.00  0.00    -0.379 OA
ATOM      3  H   UNL     1     -39.558  19.752   0.433  0.00  0.00    +0.211 HD
ENDBRANCH   1   2
BRANCH   1   4
ATOM      4  C   UNL     1     -38.214  22.034   2.230  0.00  0.00    +0.108 C 
BRANCH   4   7
ATOM      5  O   UNL     1     -36.485  22.983   4.548  0.00  0.00    -0.272 OA
ATOM      6  O   UNL     1     -34.980  27.401   4.070  0.00  0.00    -0.252 OA
ATOM      7  N   UNL     1     -37.847  23.394   1.917  0.00  0.00    -0.237 NA
ATOM      8  N   UNL     1     -36.318  26.509   2.387  0.00  0.00    -0.228 N 
ATOM      9  N   UNL     1     -35.719  25.194   4.331  0.00  0.00    -0.211 N 
ATOM     10  N   UNL     1     -37.739  25.307   0.777  0.00  0.00    -0.240 NA
ATOM     11  C   UNL     1     -37.074  24.238   2.661  0.00  0.00    +0.192 C 
ATOM     12  C   UNL     1     -37.023  25.401   1.942  0.00  0.00    +0.136 C 
ATOM     13  C   UNL     1     -36.427  24.035   3.916  0.00  0.00    +0.254 C 
ATOM     14  C   UNL     1     -38.224  24.083   0.792  0.00  0.00    +0.203 C 
ATOM     15  C   UNL     1     -35.625  26.446   3.623  0.00  0.00    +0.318 C 
ATOM     16  C   UNL     1     -36.290  27.731   1.591  0.00  0.00    +0.123 C 
ATOM     17  C   UNL     1     -35.014  25.110   5.606  0.00  0.00    +0.124 C 
ENDBRANCH   4   7
ENDBRANCH   1   4
BRANCH   1  18
ATOM     18  C   UNL     1     -37.299  19.972   1.112  0.00  0.00    +0.239 C 
BRANCH  18  19
ATOM     19  O   UNL     1     -35.983  20.427   0.814  0.00  0.00    -0.443 OA
BRANCH  19  21
ATOM     20  O   UNL     1     -35.248  20.361   2.995  0.00  0.00    -0.245 OA
ATOM     21  C   UNL     1     -35.055  20.251   1.794  0.00  0.00    +0.342 C 
BRANCH  21  24
ATOM     22 CL   UNL     1     -33.648  22.378   0.073  0.00  0.00    -0.082 Cl
ATOM     23 CL   UNL     1     -29.764  18.696  -0.486  0.00  0.00    -0.082 Cl
ATOM     24  C   UNL     1     -33.736  19.899   1.210  0.00  0.00    +0.086 C 
ATOM     25  C   UNL     1     -33.042  20.799   0.427  0.00  0.00    +0.065 C 
ATOM     26  C   UNL     1     -33.243  18.637   1.486  0.00  0.00    +0.008 C 
ATOM     27  C   UNL     1     -31.806  20.426  -0.102  0.00  0.00    +0.023 C 
ATOM     28  C   UNL     1     -32.007  18.264   0.958  0.00  0.00    +0.012 C 
ATOM     29  C   UNL     1     -31.289  19.158   0.164  0.00  0.00    +0.059 C 
ENDBRANCH  21  24
ENDBRANCH  19  21
ENDBRANCH  18  19
ENDBRANCH   1  18
TORSDOF 7
ENDMDL
MODEL 5
REMARK VINA RESULT:      -6.6      2.844      3.865
REMARK  Name = 195236
REMARK  7 active torsions:
REMARK  status: ('A' for Active; 'I' for Inactive)
REMARK    1  A    between atoms: C_1  and  O_2
REMARK    2  A    between atoms: C_1  and  C_4
REMARK    3  A    between atoms: C_1  and  C_18
REMARK    4  A    between atoms: C_4  and  N_7
REMARK    5  A    between atoms: C_18  and  O_19
REMARK    6  A    between atoms: O_19  and  C_21
REMARK    7  A    between atoms: C_21  and  C_24
REMARK                            x       y       z     vdW  Elec       q    Type
REMARK                         _______ _______ _______ _____ _____    ______ ____
ROOT
ATOM      1  C   UNL     1     -35.357  25.623   5.185  0.00  0.00    +0.170 C 
ENDROOT
BRANCH   1   2
ATOM      2  O   UNL     1     -36.358  26.627   5.365  0.00  0.00    -0.379 OA
ATOM      3  H   UNL     1     -36.276  27.294   4.666  0.00  0.00    +0.211 HD
ENDBRANCH   1   2
BRANCH   1   4
ATOM      4  C   UNL     1     -35.271  25.285   3.695  0.00  0.00    +0.108 C 
BRANCH   4   7
ATOM      5  O   UNL     1     -37.778  26.680   2.675  0.00  0.00    -0.272 OA
ATOM      6  O   UNL     1     -41.132  23.710   1.281  0.00  0.00    -0.252 OA
ATOM      7  N   UNL     1     -36.182  24.232   3.316  0.00  0.00    -0.237 NA
ATOM      8  N   UNL     1     -39.142  22.816   2.093  0.00  0.00    -0.228 N 
ATOM      9  N   UNL     1     -39.472  25.212   1.971  0.00  0.00    -0.211 N 
ATOM     10  N   UNL     1     -36.946  22.163   2.991  0.00  0.00    -0.240 NA
ATOM     11  C   UNL     1     -37.439  24.366   2.800  0.00  0.00    +0.192 C 
ATOM     12  C   UNL     1     -37.884  23.086   2.610  0.00  0.00    +0.136 C 
ATOM     13  C   UNL     1     -38.194  25.538   2.496  0.00  0.00    +0.254 C 
ATOM     14  C   UNL     1     -35.930  22.888   3.412  0.00  0.00    +0.203 C 
ATOM     15  C   UNL     1     -40.000  23.890   1.746  0.00  0.00    +0.318 C 
ATOM     16  C   UNL     1     -39.580  21.437   1.907  0.00  0.00    +0.123 C 
ATOM     17  C   UNL     1     -40.341  26.331   1.622  0.00  0.00    +0.124 C 
ENDBRANCH   4   7
ENDBRANCH   1   4
BRANCH   1  18
ATOM     18  C   UNL     1     -34.029  26.167   5.700  0.00  0.00    +0.239 C 
BRANCH  18  19
ATOM     19  O   UNL     1     -33.224  26.545   4.588  0.00  0.00    -0.443 OA
BRANCH  19  21
ATOM     20  O   UNL     1     -33.885  28.593   3.769  0.00  0.00    -0.245 OA
ATOM     21  C   UNL     1     -33.096  27.883   4.373  0.00  0.00    +0.342 C 
BRANCH  21  24
ATOM     22 CL   UNL     1     -30.499  27.546   2.758  0.00  0.00    -0.082 Cl
ATOM     23 CL   UNL     1     -28.129  29.982   6.929  0.00  0.00    -0.082 Cl
ATOM     24  C   UNL     1     -31.840  28.394   4.978  0.00  0.00    +0.086 C 
ATOM     25  C   UNL     1     -30.634  28.280   4.316  0.00  0.00    +0.065 C 
ATOM     26  C   UNL     1     -31.937  28.983   6.225  0.00  0.00    +0.008 C 
ATOM     27  C   UNL     1     -29.478  28.773   4.922  0.00  0.00    +0.023 C 
ATOM     28  C   UNL     1     -30.782  29.477   6.831  0.00  0.00    +0.012 C 
ATOM     29  C   UNL     1     -29.553  29.372   6.180  0.00  0.00    +0.059 C 
ENDBRANCH  21  24
ENDBRANCH  19  21
ENDBRANCH  18  19
ENDBRANCH   1  18
TORSDOF 7
ENDMDL
MODEL 6
REMARK VINA RESULT:      -6.5      4.272      9.074
REMARK  Name = 195236
REMARK  7 active torsions:
REMARK  status: ('A' for Active; 'I' for Inactive)
REMARK    1  A    between atoms: C_1  and  O_2
REMARK    2  A    between atoms: C_1  and  C_4
REMARK    3  A    between atoms: C_1  and  C_18
REMARK    4  A    between atoms: C_4  and  N_7
REMARK    5  A    between atoms: C_18  and  O_19
REMARK    6  A    between atoms: O_19  and  C_21
REMARK    7  A    between atoms: C_21  and  C_24
REMARK                            x       y       z     vdW  Elec       q    Type
REMARK                         _______ _______ _______ _____ _____    ______ ____
ROOT
ATOM      1  C   UNL     1     -35.750  25.682   4.683  0.00  0.00    +0.170 C 
ENDROOT
BRANCH   1   2
ATOM      2  O   UNL     1     -36.352  26.662   5.531  0.00  0.00    -0.379 OA
ATOM      3  H   UNL     1     -36.089  26.500   6.451  0.00  0.00    +0.211 HD
ENDBRANCH   1   2
BRANCH   1   4
ATOM      4  C   UNL     1     -34.248  25.965   4.605  0.00  0.00    +0.108 C 
BRANCH   4   7
ATOM      5  O   UNL     1     -32.070  27.211   6.329  0.00  0.00    -0.272 OA
ATOM      6  O   UNL     1     -30.713  31.451   4.849  0.00  0.00    -0.252 OA
ATOM      7  N   UNL     1     -33.960  27.248   4.010  0.00  0.00    -0.237 NA
ATOM      8  N   UNL     1     -32.374  30.349   3.648  0.00  0.00    -0.228 N 
ATOM      9  N   UNL     1     -31.373  29.336   5.607  0.00  0.00    -0.211 N 
ATOM     10  N   UNL     1     -34.101  28.955   2.584  0.00  0.00    -0.240 NA
ATOM     11  C   UNL     1     -33.048  28.173   4.432  0.00  0.00    +0.192 C 
ATOM     12  C   UNL     1     -33.155  29.208   3.542  0.00  0.00    +0.136 C 
ATOM     13  C   UNL     1     -32.149  28.148   5.540  0.00  0.00    +0.254 C 
ATOM     14  C   UNL     1     -34.568  27.764   2.895  0.00  0.00    +0.203 C 
ATOM     15  C   UNL     1     -31.435  30.458   4.704  0.00  0.00    +0.318 C 
ATOM     16  C   UNL     1     -32.518  31.430   2.680  0.00  0.00    +0.123 C 
ATOM     17  C   UNL     1     -30.414  29.429   6.702  0.00  0.00    +0.124 C 
ENDBRANCH   4   7
ENDBRANCH   1   4
BRANCH   1  18
ATOM     18  C   UNL     1     -36.016  24.302   5.275  0.00  0.00    +0.239 C 
BRANCH  18  19
ATOM     19  O   UNL     1     -35.405  23.320   4.446  0.00  0.00    -0.443 OA
BRANCH  19  21
ATOM     20  O   UNL     1     -37.421  22.835   3.445  0.00  0.00    -0.245 OA
ATOM     21  C   UNL     1     -36.203  22.762   3.495  0.00  0.00    +0.342 C 
BRANCH  21  24
ATOM     22 CL   UNL     1     -34.802  24.413   1.310  0.00  0.00    -0.082 Cl
ATOM     23 CL   UNL     1     -32.975  19.672  -0.460  0.00  0.00    -0.082 Cl
ATOM     24  C   UNL     1     -35.391  22.026   2.493  0.00  0.00    +0.086 C 
ATOM     25  C   UNL     1     -34.732  22.695   1.482  0.00  0.00    +0.065 C 
ATOM     26  C   UNL     1     -35.328  20.651   2.622  0.00  0.00    +0.008 C 
ATOM     27  C   UNL     1     -33.980  21.964   0.562  0.00  0.00    +0.023 C 
ATOM     28  C   UNL     1     -34.576  19.919   1.703  0.00  0.00    +0.012 C 
ATOM     29  C   UNL     1     -33.902  20.575   0.673  0.00  0.00    +0.059 C 
ENDBRANCH  21  24
ENDBRANCH  19  21
ENDBRANCH  18  19
ENDBRANCH   1  18
TORSDOF 7
ENDMDL
MODEL 7
REMARK VINA RESULT:      -6.5      3.557      5.229
REMARK  Name = 195236
REMARK  7 active torsions:
REMARK  status: ('A' for Active; 'I' for Inactive)
REMARK    1  A    between atoms: C_1  and  O_2
REMARK    2  A    between atoms: C_1  and  C_4
REMARK    3  A    between atoms: C_1  and  C_18
REMARK    4  A    between atoms: C_4  and  N_7
REMARK    5  A    between atoms: C_18  and  O_19
REMARK    6  A    between atoms: O_19  and  C_21
REMARK    7  A    between atoms: C_21  and  C_24
REMARK                            x       y       z     vdW  Elec       q    Type
REMARK                         _______ _______ _______ _____ _____    ______ ____
ROOT
ATOM      1  C   UNL     1     -36.056  20.390   1.766  0.00  0.00    +0.170 C 
ENDROOT
BRANCH   1   2
ATOM      2  O   UNL     1     -36.877  19.767   2.756  0.00  0.00    -0.379 OA
ATOM      3  H   UNL     1     -37.636  20.337   2.952  0.00  0.00    +0.211 HD
ENDBRANCH   1   2
BRANCH   1   4
ATOM      4  C   UNL     1     -35.824  19.392   0.629  0.00  0.00    +0.108 C 
BRANCH   4   7
ATOM      5  O   UNL     1     -36.007  16.578  -0.518  0.00  0.00    -0.272 OA
ATOM      6  O   UNL     1     -31.855  14.415  -0.829  0.00  0.00    -0.252 OA
ATOM      7  N   UNL     1     -34.473  18.886   0.608  0.00  0.00    -0.237 NA
ATOM      8  N   UNL     1     -31.904  16.578   0.028  0.00  0.00    -0.228 N 
ATOM      9  N   UNL     1     -33.939  15.474  -0.684  0.00  0.00    -0.211 N 
ATOM     10  N   UNL     1     -32.262  18.855   0.890  0.00  0.00    -0.240 NA
ATOM     11  C   UNL     1     -34.050  17.663   0.174  0.00  0.00    +0.192 C 
ATOM     12  C   UNL     1     -32.694  17.669   0.358  0.00  0.00    +0.136 C 
ATOM     13  C   UNL     1     -34.789  16.565  -0.362  0.00  0.00    +0.254 C 
ATOM     14  C   UNL     1     -33.360  19.568   1.028  0.00  0.00    +0.203 C 
ATOM     15  C   UNL     1     -32.508  15.417  -0.517  0.00  0.00    +0.318 C 
ATOM     16  C   UNL     1     -30.462  16.624   0.240  0.00  0.00    +0.123 C 
ATOM     17  C   UNL     1     -34.580  14.288  -1.241  0.00  0.00    +0.124 C 
ENDBRANCH   4   7
ENDBRANCH   1   4
BRANCH   1  18
ATOM     18  C   UNL     1     -36.773  21.637   1.260  0.00  0.00    +0.239 C 
BRANCH  18  19
ATOM     19  O   UNL     1     -36.218  22.780   1.904  0.00  0.00    -0.443 OA
BRANCH  19  21
ATOM     20  O   UNL     1     -38.099  23.069   3.200  0.00  0.00    -0.245 OA
ATOM     21  C   UNL     1     -36.915  23.260   2.970  0.00  0.00    +0.342 C 
BRANCH  21  24
ATOM     22 CL   UNL     1     -35.328  21.780   5.150  0.00  0.00    -0.082 Cl
ATOM     23 CL   UNL     1     -33.424  26.647   6.427  0.00  0.00    -0.082 Cl
ATOM     24  C   UNL     1     -36.035  24.071   3.849  0.00  0.00    +0.086 C 
ATOM     25  C   UNL     1     -35.291  23.480   4.851  0.00  0.00    +0.065 C 
ATOM     26  C   UNL     1     -35.999  25.434   3.618  0.00  0.00    +0.008 C 
ATOM     27  C   UNL     1     -34.479  24.281   5.654  0.00  0.00    +0.023 C 
ATOM     28  C   UNL     1     -35.187  26.235   4.420  0.00  0.00    +0.012 C 
ATOM     29  C   UNL     1     -34.427  25.659   5.438  0.00  0.00    +0.059 C 
ENDBRANCH  21  24
ENDBRANCH  19  21
ENDBRANCH  18  19
ENDBRANCH   1  18
TORSDOF 7
ENDMDL
MODEL 8
REMARK VINA RESULT:      -6.5      6.865      8.954
REMARK  Name = 195236
REMARK  7 active torsions:
REMARK  status: ('A' for Active; 'I' for Inactive)
REMARK    1  A    between atoms: C_1  and  O_2
REMARK    2  A    between atoms: C_1  and  C_4
REMARK    3  A    between atoms: C_1  and  C_18
REMARK    4  A    between atoms: C_4  and  N_7
REMARK    5  A    between atoms: C_18  and  O_19
REMARK    6  A    between atoms: O_19  and  C_21
REMARK    7  A    between atoms: C_21  and  C_24
REMARK                            x       y       z     vdW  Elec       q    Type
REMARK                         _______ _______ _______ _____ _____    ______ ____
ROOT
ATOM      1  C   UNL     1     -40.908  26.054   2.638  0.00  0.00    +0.170 C 
ENDROOT
BRANCH   1   2
ATOM      2  O   UNL     1     -40.582  26.614   3.911  0.00  0.00    -0.379 OA
ATOM      3  H   UNL     1     -40.869  26.009   4.613  0.00  0.00    +0.211 HD
ENDBRANCH   1   2
BRANCH   1   4
ATOM      4  C   UNL     1     -41.970  26.937   1.978  0.00  0.00    +0.108 C 
BRANCH   4   7
ATOM      5  O   UNL     1     -42.196  29.045   4.162  0.00  0.00    -0.272 OA
ATOM      6  O   UNL     1     -46.294  28.940   6.443  0.00  0.00    -0.252 OA
ATOM      7  N   UNL     1     -43.276  26.758   2.564  0.00  0.00    -0.237 NA
ATOM      8  N   UNL     1     -45.947  27.394   4.738  0.00  0.00    -0.228 N 
ATOM      9  N   UNL     1     -44.241  29.012   5.319  0.00  0.00    -0.211 N 
ATOM     10  N   UNL     1     -45.302  25.891   2.899  0.00  0.00    -0.240 NA
ATOM     11  C   UNL     1     -43.834  27.474   3.584  0.00  0.00    +0.192 C 
ATOM     12  C   UNL     1     -45.073  26.923   3.770  0.00  0.00    +0.136 C 
ATOM     13  C   UNL     1     -43.312  28.565   4.343  0.00  0.00    +0.254 C 
ATOM     14  C   UNL     1     -44.198  25.817   2.185  0.00  0.00    +0.203 C 
ATOM     15  C   UNL     1     -45.557  28.478   5.564  0.00  0.00    +0.318 C 
ATOM     16  C   UNL     1     -47.259  26.779   4.904  0.00  0.00    +0.123 C 
ATOM     17  C   UNL     1     -43.820  30.126   6.161  0.00  0.00    +0.124 C 
ENDBRANCH   4   7
ENDBRANCH   1   4
BRANCH   1  18
ATOM     18  C   UNL     1     -39.639  26.002   1.794  0.00  0.00    +0.239 C 
BRANCH  18  19
ATOM     19  O   UNL     1     -38.564  26.558   2.544  0.00  0.00    -0.443 OA
BRANCH  19  21
ATOM     20  O   UNL     1     -36.689  26.484   1.210  0.00  0.00    -0.245 OA
ATOM     21  C   UNL     1     -37.317  26.137   2.199  0.00  0.00    +0.342 C 
BRANCH  21  24
ATOM     22 CL   UNL     1     -37.317  23.157   1.438  0.00  0.00    -0.082 Cl
ATOM     23 CL   UNL     1     -35.181  22.381   6.315  0.00  0.00    -0.082 Cl
ATOM     24  C   UNL     1     -36.792  25.173   3.199  0.00  0.00    +0.086 C 
ATOM     25  C   UNL     1     -36.759  23.819   2.932  0.00  0.00    +0.065 C 
ATOM     26  C   UNL     1     -36.343  25.694   4.399  0.00  0.00    +0.008 C 
ATOM     27  C   UNL     1     -36.259  22.949   3.901  0.00  0.00    +0.023 C 
ATOM     28  C   UNL     1     -35.842  24.824   5.368  0.00  0.00    +0.012 C 
ATOM     29  C   UNL     1     -35.799  23.452   5.119  0.00  0.00    +0.059 C 
ENDBRANCH  21  24
ENDBRANCH  19  21
ENDBRANCH  18  19
ENDBRANCH   1  18
TORSDOF 7
ENDMDL
MODEL 9
REMARK VINA RESULT:      -6.4      2.816      4.215
REMARK  Name = 195236
REMARK  7 active torsions:
REMARK  status: ('A' for Active; 'I' for Inactive)
REMARK    1  A    between atoms: C_1  and  O_2
REMARK    2  A    between atoms: C_1  and  C_4
REMARK    3  A    between atoms: C_1  and  C_18
REMARK    4  A    between atoms: C_4  and  N_7
REMARK    5  A    between atoms: C_18  and  O_19
REMARK    6  A    between atoms: O_19  and  C_21
REMARK    7  A    between atoms: C_21  and  C_24
REMARK                            x       y       z     vdW  Elec       q    Type
REMARK                         _______ _______ _______ _____ _____    ______ ____
ROOT
ATOM      1  C   UNL     1     -35.478  20.059   1.741  0.00  0.00    +0.170 C 
ENDROOT
BRANCH   1   2
ATOM      2  O   UNL     1     -36.725  19.589   2.257  0.00  0.00    -0.379 OA
ATOM      3  H   UNL     1     -36.790  18.631   2.123  0.00  0.00    +0.211 HD
ENDBRANCH   1   2
BRANCH   1   4
ATOM      4  C   UNL     1     -35.461  19.829   0.228  0.00  0.00    +0.108 C 
BRANCH   4   7
ATOM      5  O   UNL     1     -38.177  18.580  -0.347  0.00  0.00    -0.272 OA
ATOM      6  O   UNL     1     -37.936  14.049  -1.539  0.00  0.00    -0.252 OA
ATOM      7  N   UNL     1     -35.197  18.453  -0.117  0.00  0.00    -0.237 NA
ATOM      8  N   UNL     1     -35.950  15.166  -1.063  0.00  0.00    -0.228 N 
ATOM      9  N   UNL     1     -38.082  16.310  -0.946  0.00  0.00    -0.211 N 
ATOM     10  N   UNL     1     -34.026  16.597  -0.509  0.00  0.00    -0.240 NA
ATOM     11  C   UNL     1     -36.107  17.492  -0.456  0.00  0.00    +0.192 C 
ATOM     12  C   UNL     1     -35.364  16.367  -0.690  0.00  0.00    +0.136 C 
ATOM     13  C   UNL     1     -37.528  17.560  -0.563  0.00  0.00    +0.254 C 
ATOM     14  C   UNL     1     -33.959  17.866  -0.164  0.00  0.00    +0.203 C 
ATOM     15  C   UNL     1     -37.358  15.091  -1.209  0.00  0.00    +0.318 C 
ATOM     16  C   UNL     1     -35.123  13.989  -1.304  0.00  0.00    +0.123 C 
ATOM     17  C   UNL     1     -39.532  16.253  -1.089  0.00  0.00    +0.124 C 
ENDBRANCH   4   7
ENDBRANCH   1   4
BRANCH   1  18
ATOM     18  C   UNL     1     -35.348  21.542   2.070  0.00  0.00    +0.239 C 
BRANCH  18  19
ATOM     19  O   UNL     1     -35.893  21.777   3.364  0.00  0.00    -0.443 OA
BRANCH  19  21
ATOM     20  O   UNL     1     -37.774  23.102   3.304  0.00  0.00    -0.245 OA
ATOM     21  C   UNL     1     -36.583  22.939   3.518  0.00  0.00    +0.342 C 
BRANCH  21  24
ATOM     22 CL   UNL     1     -35.413  22.681   6.351  0.00  0.00    -0.082 Cl
ATOM     23 CL   UNL     1     -32.996  27.369   5.287  0.00  0.00    -0.082 Cl
ATOM     24  C   UNL     1     -35.686  24.023   3.992  0.00  0.00    +0.086 C 
ATOM     25  C   UNL     1     -35.122  23.980   5.251  0.00  0.00    +0.065 C 
ATOM     26  C   UNL     1     -35.447  25.068   3.118  0.00  0.00    +0.008 C 
ATOM     27  C   UNL     1     -34.285  25.021   5.655  0.00  0.00    +0.023 C 
ATOM     28  C   UNL     1     -34.610  26.109   3.522  0.00  0.00    +0.012 C 
ATOM     29  C   UNL     1     -34.029  26.085   4.790  0.00  0.00    +0.059 C 
ENDBRANCH  21  24
ENDBRANCH  19  21
ENDBRANCH  18  19
ENDBRANCH   1  18
TORSDOF 7
ENDMDL
