MODEL 1
REMARK VINA RESULT:      -6.3      0.000      0.000
REMARK  Name = 53463259
REMARK  4 active torsions:
REMARK  status: ('A' for Active; 'I' for Inactive)
REMARK    1  A    between atoms: C_13  and  O_23
REMARK    2  A    between atoms: C_13  and  C_25
REMARK    3  A    between atoms: C_17  and  O_27
REMARK    4  A    between atoms: O_27  and  C_29
REMARK                            x       y       z     vdW  Elec       q    Type
REMARK                         _______ _______ _______ _____ _____    ______ ____
ROOT
ATOM      1  O   UNL     1     -37.827  23.919   1.860  0.00  0.00    -0.453 OA
ATOM      2  O   UNL     1     -34.997  23.416   3.462  0.00  0.00    -0.442 OA
ATOM      3  O   UNL     1     -39.603  23.995   3.318  0.00  0.00    -0.248 OA
ATOM      4  O   UNL     1     -35.391  24.104   5.625  0.00  0.00    -0.246 OA
ATOM      5  N   UNL     1     -36.708  20.895   0.409  0.00  0.00    +0.396 N 
ATOM      6  C   UNL     1     -36.480  21.970   1.416  0.00  0.00    +0.006 C 
ATOM      7  C   UNL     1     -37.861  22.487   1.820  0.00  0.00    +0.152 C 
ATOM      8  C   UNL     1     -38.762  21.981   0.707  0.00  0.00    +0.019 C 
ATOM      9  C   UNL     1     -38.154  20.624   0.403  0.00  0.00    -0.073 C 
ATOM     10  C   UNL     1     -35.702  21.342   2.532  0.00  0.00    -0.023 C 
ATOM     11  C   UNL     1     -35.903  19.736   0.855  0.00  0.00    -0.050 C 
ATOM     12  C   UNL     1     -35.368  20.091   2.204  0.00  0.00    -0.056 C 
ATOM     13  C   UNL     1     -38.458  26.052   2.681  0.00  0.00    +0.177 C 
ATOM     14  C   UNL     1     -35.814  26.207   2.886  0.00  0.00    +0.050 C 
ATOM     15  C   UNL     1     -37.216  26.391   3.539  0.00  0.00    +0.042 C 
ATOM     16  C   UNL     1     -35.380  22.070   3.793  0.00  0.00    +0.229 C 
ATOM     17  C   UNL     1     -34.747  25.735   3.926  0.00  0.00    +0.224 C 
ATOM     18  C   UNL     1     -38.724  24.549   2.670  0.00  0.00    +0.341 C 
ATOM     19  C   UNL     1     -35.084  24.340   4.462  0.00  0.00    +0.354 C 
ATOM     20  C   UNL     1     -35.384  27.528   2.222  0.00  0.00    +0.004 C 
ATOM     21  C   UNL     1     -33.316  25.711   3.372  0.00  0.00    +0.055 C 
ATOM     22  H   UNL     1     -36.429  21.136  -0.541  0.00  0.00    -0.079 HD
ENDROOT
BRANCH  13  23
ATOM     23  O   UNL     1     -39.597  26.586   3.375  0.00  0.00    -0.376 OA
ATOM     24  H   UNL     1     -40.026  25.879   3.884  0.00  0.00    +0.211 HD
ENDBRANCH  13  23
BRANCH  13  25
ATOM     25  C   UNL     1     -38.484  26.625   1.269  0.00  0.00    +0.038 C 
ATOM     26  C   UNL     1     -39.888  26.625   0.693  0.00  0.00    +0.003 C 
ENDBRANCH  13  25
BRANCH  17  27
ATOM     27  O   UNL     1     -34.768  26.626   5.040  0.00  0.00    -0.445 OA
BRANCH  27  29
ATOM     28  O   UNL     1     -32.939  28.002   4.725  0.00  0.00    -0.250 OA
ATOM     29  C   UNL     1     -33.566  27.179   5.378  0.00  0.00    +0.318 C 
ATOM     30  C   UNL     1     -33.105  26.625   6.693  0.00  0.00    +0.121 C 
ENDBRANCH  27  29
ENDBRANCH  17  27
TORSDOF 4
ENDMDL
MODEL 2
REMARK VINA RESULT:      -6.2      1.644      2.129
REMARK  Name = 53463259
REMARK  4 active torsions:
REMARK  status: ('A' for Active; 'I' for Inactive)
REMARK    1  A    between atoms: C_13  and  O_23
REMARK    2  A    between atoms: C_13  and  C_25
REMARK    3  A    between atoms: C_17  and  O_27
REMARK    4  A    between atoms: O_27  and  C_29
REMARK                            x       y       z     vdW  Elec       q    Type
REMARK                         _______ _______ _______ _____ _____    ______ ____
ROOT
ATOM      1  O   UNL     1     -38.148  21.995   0.790  0.00  0.00    -0.453 OA
ATOM      2  O   UNL     1     -35.405  22.355   2.572  0.00  0.00    -0.442 OA
ATOM      3  O   UNL     1     -39.935  21.434   2.123  0.00  0.00    -0.248 OA
ATOM      4  O   UNL     1     -36.125  22.787   4.717  0.00  0.00    -0.246 OA
ATOM      5  N   UNL     1     -36.030  19.556  -0.648  0.00  0.00    +0.396 N 
ATOM      6  C   UNL     1     -36.220  20.602   0.396  0.00  0.00    +0.006 C 
ATOM      7  C   UNL     1     -37.715  20.631   0.715  0.00  0.00    +0.152 C 
ATOM      8  C   UNL     1     -38.338  19.912  -0.469  0.00  0.00    +0.019 C 
ATOM      9  C   UNL     1     -37.308  18.835  -0.760  0.00  0.00    -0.073 C 
ATOM     10  C   UNL     1     -35.348  20.208   1.549  0.00  0.00    -0.023 C 
ATOM     11  C   UNL     1     -34.922  18.697  -0.174  0.00  0.00    -0.050 C 
ATOM     12  C   UNL     1     -34.610  19.146   1.216  0.00  0.00    -0.056 C 
ATOM     13  C   UNL     1     -39.479  23.776   1.613  0.00  0.00    +0.177 C 
ATOM     14  C   UNL     1     -37.044  24.760   2.003  0.00  0.00    +0.050 C 
ATOM     15  C   UNL     1     -38.465  24.456   2.562  0.00  0.00    +0.042 C 
ATOM     16  C   UNL     1     -35.352  20.945   2.845  0.00  0.00    +0.229 C 
ATOM     17  C   UNL     1     -35.944  24.610   3.104  0.00  0.00    +0.224 C 
ATOM     18  C   UNL     1     -39.245  22.268   1.550  0.00  0.00    +0.341 C 
ATOM     19  C   UNL     1     -35.844  23.159   3.584  0.00  0.00    +0.354 C 
ATOM     20  C   UNL     1     -37.025  26.177   1.401  0.00  0.00    +0.004 C 
ATOM     21  C   UNL     1     -34.552  25.070   2.651  0.00  0.00    +0.055 C 
ATOM     22  H   UNL     1     -35.789  19.915  -1.572  0.00  0.00    -0.079 HD
ENDROOT
BRANCH  13  23
ATOM     23  O   UNL     1     -40.768  23.885   2.238  0.00  0.00    -0.376 OA
ATOM     24  H   UNL     1     -40.803  24.697   2.768  0.00  0.00    +0.211 HD
ENDBRANCH  13  23
BRANCH  13  25
ATOM     25  C   UNL     1     -39.607  24.371   0.215  0.00  0.00    +0.038 C 
ATOM     26  C   UNL     1     -40.564  25.548   0.195  0.00  0.00    +0.003 C 
ENDBRANCH  13  25
BRANCH  17  27
ATOM     27  O   UNL     1     -36.317  25.398   4.234  0.00  0.00    -0.445 OA
BRANCH  27  29
ATOM     28  O   UNL     1     -35.140  27.384   4.137  0.00  0.00    -0.250 OA
ATOM     29  C   UNL     1     -35.386  26.303   4.656  0.00  0.00    +0.318 C 
ATOM     30  C   UNL     1     -34.686  25.780   5.874  0.00  0.00    +0.121 C 
ENDBRANCH  27  29
ENDBRANCH  17  27
TORSDOF 4
ENDMDL
MODEL 3
REMARK VINA RESULT:      -6.0      1.895      4.587
REMARK  Name = 53463259
REMARK  4 active torsions:
REMARK  status: ('A' for Active; 'I' for Inactive)
REMARK    1  A    between atoms: C_13  and  O_23
REMARK    2  A    between atoms: C_13  and  C_25
REMARK    3  A    between atoms: C_17  and  O_27
REMARK    4  A    between atoms: O_27  and  C_29
REMARK                            x       y       z     vdW  Elec       q    Type
REMARK                         _______ _______ _______ _____ _____    ______ ____
ROOT
ATOM      1  O   UNL     1     -37.633  23.008   1.576  0.00  0.00    -0.453 OA
ATOM      2  O   UNL     1     -37.469  26.004   2.929  0.00  0.00    -0.442 OA
ATOM      3  O   UNL     1     -36.332  22.881  -0.314  0.00  0.00    -0.248 OA
ATOM      4  O   UNL     1     -35.497  26.912   2.160  0.00  0.00    -0.246 OA
ATOM      5  N   UNL     1     -41.016  24.031   1.471  0.00  0.00    +0.396 N 
ATOM      6  C   UNL     1     -39.606  24.373   1.812  0.00  0.00    +0.006 C 
ATOM      7  C   UNL     1     -38.722  23.585   0.845  0.00  0.00    +0.152 C 
ATOM      8  C   UNL     1     -39.659  22.519   0.305  0.00  0.00    +0.019 C 
ATOM      9  C   UNL     1     -40.972  23.274   0.210  0.00  0.00    -0.073 C 
ATOM     10  C   UNL     1     -39.493  25.862   1.685  0.00  0.00    -0.023 C 
ATOM     11  C   UNL     1     -41.734  25.319   1.348  0.00  0.00    -0.050 C 
ATOM     12  C   UNL     1     -40.695  26.388   1.439  0.00  0.00    -0.056 C 
ATOM     13  C   UNL     1     -35.404  22.247   1.851  0.00  0.00    +0.177 C 
ATOM     14  C   UNL     1     -35.615  23.909   3.912  0.00  0.00    +0.050 C 
ATOM     15  C   UNL     1     -34.815  23.422   2.668  0.00  0.00    +0.042 C 
ATOM     16  C   UNL     1     -38.195  26.581   1.830  0.00  0.00    +0.229 C 
ATOM     17  C   UNL     1     -35.484  25.454   4.117  0.00  0.00    +0.224 C 
ATOM     18  C   UNL     1     -36.488  22.736   0.892  0.00  0.00    +0.341 C 
ATOM     19  C   UNL     1     -36.122  26.217   2.953  0.00  0.00    +0.354 C 
ATOM     20  C   UNL     1     -35.130  23.149   5.160  0.00  0.00    +0.004 C 
ATOM     21  C   UNL     1     -36.105  25.956   5.427  0.00  0.00    +0.055 C 
ATOM     22  H   UNL     1     -41.495  23.458   2.165  0.00  0.00    -0.079 HD
ENDROOT
BRANCH  13  23
ATOM     23  O   UNL     1     -34.363  21.793   0.972  0.00  0.00    -0.376 OA
ATOM     24  H   UNL     1     -34.733  21.169   0.327  0.00  0.00    +0.211 HD
ENDBRANCH  13  23
BRANCH  13  25
ATOM     25  C   UNL     1     -35.880  21.038   2.647  0.00  0.00    +0.038 C 
ATOM     26  C   UNL     1     -36.273  19.890   1.735  0.00  0.00    +0.003 C 
ENDBRANCH  13  25
BRANCH  17  27
ATOM     27  O   UNL     1     -34.099  25.797   4.132  0.00  0.00    -0.445 OA
BRANCH  27  29
ATOM     28  O   UNL     1     -33.751  28.055   4.477  0.00  0.00    -0.250 OA
ATOM     29  C   UNL     1     -33.770  26.897   4.872  0.00  0.00    +0.318 C 
ATOM     30  C   UNL     1     -33.428  26.483   6.271  0.00  0.00    +0.121 C 
ENDBRANCH  27  29
ENDBRANCH  17  27
TORSDOF 4
ENDMDL
MODEL 4
REMARK VINA RESULT:      -6.0      2.647      4.104
REMARK  Name = 53463259
REMARK  4 active torsions:
REMARK  status: ('A' for Active; 'I' for Inactive)
REMARK    1  A    between atoms: C_13  and  O_23
REMARK    2  A    between atoms: C_13  and  C_25
REMARK    3  A    between atoms: C_17  and  O_27
REMARK    4  A    between atoms: O_27  and  C_29
REMARK                            x       y       z     vdW  Elec       q    Type
REMARK                         _______ _______ _______ _____ _____    ______ ____
ROOT
ATOM      1  O   UNL     1     -37.444  21.372  -0.559  0.00  0.00    -0.453 OA
ATOM      2  O   UNL     1     -34.827  21.521   1.432  0.00  0.00    -0.442 OA
ATOM      3  O   UNL     1     -38.828  19.631   0.021  0.00  0.00    -0.248 OA
ATOM      4  O   UNL     1     -35.463  20.425   3.355  0.00  0.00    -0.246 OA
ATOM      5  N   UNL     1     -34.776  20.977  -2.846  0.00  0.00    +0.396 N 
ATOM      6  C   UNL     1     -35.207  21.135  -1.428  0.00  0.00    +0.006 C 
ATOM      7  C   UNL     1     -36.597  20.506  -1.325  0.00  0.00    +0.152 C 
ATOM      8  C   UNL     1     -37.049  20.419  -2.772  0.00  0.00    +0.019 C 
ATOM      9  C   UNL     1     -35.753  20.083  -3.487  0.00  0.00    -0.073 C 
ATOM     10  C   UNL     1     -34.159  20.466  -0.593  0.00  0.00    -0.023 C 
ATOM     11  C   UNL     1     -33.412  20.406  -2.800  0.00  0.00    -0.050 C 
ATOM     12  C   UNL     1     -33.146  20.072  -1.368  0.00  0.00    -0.056 C 
ATOM     13  C   UNL     1     -39.209  21.855   0.949  0.00  0.00    +0.177 C 
ATOM     14  C   UNL     1     -37.204  23.162   2.101  0.00  0.00    +0.050 C 
ATOM     15  C   UNL     1     -38.395  22.167   2.227  0.00  0.00    +0.042 C 
ATOM     16  C   UNL     1     -34.293  20.305   0.883  0.00  0.00    +0.229 C 
ATOM     17  C   UNL     1     -36.026  22.781   3.055  0.00  0.00    +0.224 C 
ATOM     18  C   UNL     1     -38.500  20.809   0.090  0.00  0.00    +0.341 C 
ATOM     19  C   UNL     1     -35.416  21.433   2.659  0.00  0.00    +0.354 C 
ATOM     20  C   UNL     1     -37.702  24.591   2.390  0.00  0.00    +0.004 C 
ATOM     21  C   UNL     1     -34.905  23.828   3.098  0.00  0.00    +0.055 C 
ATOM     22  H   UNL     1     -34.745  21.845  -3.381  0.00  0.00    -0.079 HD
ENDROOT
BRANCH  13  23
ATOM     23  O   UNL     1     -40.404  21.180   1.374  0.00  0.00    -0.376 OA
ATOM     24  H   UNL     1     -40.587  20.438   0.777  0.00  0.00    +0.211 HD
ENDBRANCH  13  23
BRANCH  13  25
ATOM     25  C   UNL     1     -39.642  23.051   0.110  0.00  0.00    +0.038 C 
ATOM     26  C   UNL     1     -40.864  23.731   0.699  0.00  0.00    +0.003 C 
ENDBRANCH  13  25
BRANCH  17  27
ATOM     27  O   UNL     1     -36.538  22.635   4.379  0.00  0.00    -0.445 OA
BRANCH  27  29
ATOM     28  O   UNL     1     -35.825  24.520   5.510  0.00  0.00    -0.250 OA
ATOM     29  C   UNL     1     -35.856  23.307   5.353  0.00  0.00    +0.318 C 
ATOM     30  C   UNL     1     -35.131  22.329   6.230  0.00  0.00    +0.121 C 
ENDBRANCH  27  29
ENDBRANCH  17  27
TORSDOF 4
ENDMDL
MODEL 5
REMARK VINA RESULT:      -5.8      3.431      6.736
REMARK  Name = 53463259
REMARK  4 active torsions:
REMARK  status: ('A' for Active; 'I' for Inactive)
REMARK    1  A    between atoms: C_13  and  O_23
REMARK    2  A    between atoms: C_13  and  C_25
REMARK    3  A    between atoms: C_17  and  O_27
REMARK    4  A    between atoms: O_27  and  C_29
REMARK                            x       y       z     vdW  Elec       q    Type
REMARK                         _______ _______ _______ _____ _____    ______ ____
ROOT
ATOM      1  O   UNL     1     -34.920  21.403   2.781  0.00  0.00    -0.453 OA
ATOM      2  O   UNL     1     -35.460  24.191   1.119  0.00  0.00    -0.442 OA
ATOM      3  O   UNL     1     -36.669  19.933   2.525  0.00  0.00    -0.248 OA
ATOM      4  O   UNL     1     -36.992  23.642  -0.511  0.00  0.00    -0.246 OA
ATOM      5  N   UNL     1     -34.843  23.809   5.370  0.00  0.00    +0.396 N 
ATOM      6  C   UNL     1     -35.045  23.523   3.922  0.00  0.00    +0.006 C 
ATOM      7  C   UNL     1     -35.597  22.100   3.834  0.00  0.00    +0.152 C 
ATOM      8  C   UNL     1     -35.268  21.512   5.195  0.00  0.00    +0.019 C 
ATOM      9  C   UNL     1     -35.475  22.705   6.110  0.00  0.00    -0.073 C 
ATOM     10  C   UNL     1     -35.973  24.582   3.410  0.00  0.00    -0.023 C 
ATOM     11  C   UNL     1     -35.484  25.118   5.625  0.00  0.00    -0.050 C 
ATOM     12  C   UNL     1     -36.203  25.483   4.367  0.00  0.00    -0.056 C 
ATOM     13  C   UNL     1     -34.756  19.829   1.015  0.00  0.00    +0.177 C 
ATOM     14  C   UNL     1     -33.922  22.033  -0.210  0.00  0.00    +0.050 C 
ATOM     15  C   UNL     1     -34.844  20.778  -0.203  0.00  0.00    +0.042 C 
ATOM     16  C   UNL     1     -36.514  24.568   2.021  0.00  0.00    +0.229 C 
ATOM     17  C   UNL     1     -34.613  23.256  -0.897  0.00  0.00    +0.224 C 
ATOM     18  C   UNL     1     -35.574  20.365   2.188  0.00  0.00    +0.341 C 
ATOM     19  C   UNL     1     -35.839  23.710  -0.100  0.00  0.00    +0.354 C 
ATOM     20  C   UNL     1     -32.597  21.687  -0.913  0.00  0.00    +0.004 C 
ATOM     21  C   UNL     1     -33.682  24.461  -1.087  0.00  0.00    +0.055 C 
ATOM     22  H   UNL     1     -33.867  23.865   5.661  0.00  0.00    -0.079 HD
ENDROOT
BRANCH  13  23
ATOM     23  O   UNL     1     -35.449  18.624   0.651  0.00  0.00    -0.376 OA
ATOM     24  H   UNL     1     -34.917  18.126   0.010  0.00  0.00    +0.211 HD
ENDBRANCH  13  23
BRANCH  13  25
ATOM     25  C   UNL     1     -33.355  19.424   1.461  0.00  0.00    +0.038 C 
ATOM     26  C   UNL     1     -33.037  17.994   1.068  0.00  0.00    +0.003 C 
ENDBRANCH  13  25
BRANCH  17  27
ATOM     27  O   UNL     1     -35.077  22.856  -2.185  0.00  0.00    -0.445 OA
BRANCH  27  29
ATOM     28  O   UNL     1     -35.432  24.811  -3.364  0.00  0.00    -0.250 OA
ATOM     29  C   UNL     1     -34.854  23.746  -3.197  0.00  0.00    +0.318 C 
ATOM     30  C   UNL     1     -33.775  23.227  -4.099  0.00  0.00    +0.121 C 
ENDBRANCH  27  29
ENDBRANCH  17  27
TORSDOF 4
ENDMDL
MODEL 6
REMARK VINA RESULT:      -5.7      4.149      6.764
REMARK  Name = 53463259
REMARK  4 active torsions:
REMARK  status: ('A' for Active; 'I' for Inactive)
REMARK    1  A    between atoms: C_13  and  O_23
REMARK    2  A    between atoms: C_13  and  C_25
REMARK    3  A    between atoms: C_17  and  O_27
REMARK    4  A    between atoms: O_27  and  C_29
REMARK                            x       y       z     vdW  Elec       q    Type
REMARK                         _______ _______ _______ _____ _____    ______ ____
ROOT
ATOM      1  O   UNL     1     -33.352  28.692   3.109  0.00  0.00    -0.453 OA
ATOM      2  O   UNL     1     -31.831  27.497   5.772  0.00  0.00    -0.442 OA
ATOM      3  O   UNL     1     -34.638  30.522   3.640  0.00  0.00    -0.248 OA
ATOM      4  O   UNL     1     -31.759  29.246   7.268  0.00  0.00    -0.246 OA
ATOM      5  N   UNL     1     -34.621  25.394   3.242  0.00  0.00    +0.396 N 
ATOM      6  C   UNL     1     -33.763  26.441   3.867  0.00  0.00    +0.006 C 
ATOM      7  C   UNL     1     -34.390  27.788   3.507  0.00  0.00    +0.152 C 
ATOM      8  C   UNL     1     -35.309  27.446   2.346  0.00  0.00    +0.019 C 
ATOM      9  C   UNL     1     -35.827  26.077   2.748  0.00  0.00    -0.073 C 
ATOM     10  C   UNL     1     -33.738  26.141   5.335  0.00  0.00    -0.023 C 
ATOM     11  C   UNL     1     -34.909  24.408   4.307  0.00  0.00    -0.050 C 
ATOM     12  C   UNL     1     -34.370  24.990   5.574  0.00  0.00    -0.056 C 
ATOM     13  C   UNL     1     -32.332  30.822   2.903  0.00  0.00    +0.177 C 
ATOM     14  C   UNL     1     -30.384  29.454   4.080  0.00  0.00    +0.050 C 
ATOM     15  C   UNL     1     -31.278  30.728   4.031  0.00  0.00    +0.042 C 
ATOM     16  C   UNL     1     -33.077  27.040   6.324  0.00  0.00    +0.229 C 
ATOM     17  C   UNL     1     -30.039  29.044   5.549  0.00  0.00    +0.224 C 
ATOM     18  C   UNL     1     -33.586  30.025   3.257  0.00  0.00    +0.341 C 
ATOM     19  C   UNL     1     -31.301  28.631   6.312  0.00  0.00    +0.354 C 
ATOM     20  C   UNL     1     -29.100  29.701   3.265  0.00  0.00    +0.004 C 
ATOM     21  C   UNL     1     -29.017  27.903   5.645  0.00  0.00    +0.055 C 
ATOM     22  H   UNL     1     -34.192  24.905   2.457  0.00  0.00    -0.079 HD
ENDROOT
BRANCH  13  23
ATOM     23  O   UNL     1     -32.797  32.181   2.884  0.00  0.00    -0.376 OA
ATOM     24  H   UNL     1     -33.399  32.307   2.134  0.00  0.00    +0.211 HD
ENDBRANCH  13  23
BRANCH  13  25
ATOM     25  C   UNL     1     -31.851  30.493   1.494  0.00  0.00    +0.038 C 
ATOM     26  C   UNL     1     -31.250  31.707   0.812  0.00  0.00    +0.003 C 
ENDBRANCH  13  25
BRANCH  17  27
ATOM     27  O   UNL     1     -29.494  30.176   6.224  0.00  0.00    -0.445 OA
BRANCH  27  29
ATOM     28  O   UNL     1     -28.374  29.338   8.064  0.00  0.00    -0.250 OA
ATOM     29  C   UNL     1     -28.392  29.931   6.994  0.00  0.00    +0.318 C 
ATOM     30  C   UNL     1     -27.174  30.503   6.332  0.00  0.00    +0.121 C 
ENDBRANCH  27  29
ENDBRANCH  17  27
TORSDOF 4
ENDMDL
MODEL 7
REMARK VINA RESULT:      -5.7      8.566     12.074
REMARK  Name = 53463259
REMARK  4 active torsions:
REMARK  status: ('A' for Active; 'I' for Inactive)
REMARK    1  A    between atoms: C_13  and  O_23
REMARK    2  A    between atoms: C_13  and  C_25
REMARK    3  A    between atoms: C_17  and  O_27
REMARK    4  A    between atoms: O_27  and  C_29
REMARK                            x       y       z     vdW  Elec       q    Type
REMARK                         _______ _______ _______ _____ _____    ______ ____
ROOT
ATOM      1  O   UNL     1     -45.993  32.096   4.502  0.00  0.00    -0.453 OA
ATOM      2  O   UNL     1     -44.605  29.479   5.937  0.00  0.00    -0.442 OA
ATOM      3  O   UNL     1     -44.418  33.689   3.984  0.00  0.00    -0.248 OA
ATOM      4  O   UNL     1     -42.394  29.536   5.297  0.00  0.00    -0.246 OA
ATOM      5  N   UNL     1     -47.648  32.027   7.626  0.00  0.00    +0.396 N 
ATOM      6  C   UNL     1     -46.611  31.432   6.735  0.00  0.00    +0.006 C 
ATOM      7  C   UNL     1     -46.094  32.567   5.851  0.00  0.00    +0.152 C 
ATOM      8  C   UNL     1     -47.167  33.634   5.991  0.00  0.00    +0.019 C 
ATOM      9  C   UNL     1     -47.570  33.485   7.447  0.00  0.00    -0.073 C 
ATOM     10  C   UNL     1     -45.578  30.829   7.638  0.00  0.00    -0.023 C 
ATOM     11  C   UNL     1     -47.308  31.593   8.999  0.00  0.00    -0.050 C 
ATOM     12  C   UNL     1     -45.983  30.909   8.908  0.00  0.00    -0.056 C 
ATOM     13  C   UNL     1     -45.038  32.003   2.334  0.00  0.00    +0.177 C 
ATOM     14  C   UNL     1     -45.002  29.432   2.999  0.00  0.00    +0.050 C 
ATOM     15  C   UNL     1     -44.250  30.676   2.441  0.00  0.00    +0.042 C 
ATOM     16  C   UNL     1     -44.311  30.238   7.121  0.00  0.00    +0.229 C 
ATOM     17  C   UNL     1     -44.057  28.510   3.835  0.00  0.00    +0.224 C 
ATOM     18  C   UNL     1     -45.098  32.716   3.683  0.00  0.00    +0.341 C 
ATOM     19  C   UNL     1     -43.563  29.230   5.093  0.00  0.00    +0.354 C 
ATOM     20  C   UNL     1     -45.634  28.652   1.830  0.00  0.00    +0.004 C 
ATOM     21  C   UNL     1     -44.705  27.184   4.256  0.00  0.00    +0.055 C 
ATOM     22  H   UNL     1     -48.603  31.735   7.421  0.00  0.00    -0.079 HD
ENDROOT
BRANCH  13  23
ATOM     23  O   UNL     1     -44.247  32.889   1.526  0.00  0.00    -0.376 OA
ATOM     24  H   UNL     1     -44.361  33.801   1.838  0.00  0.00    +0.211 HD
ENDBRANCH  13  23
BRANCH  13  25
ATOM     25  C   UNL     1     -46.419  31.923   1.693  0.00  0.00    +0.038 C 
ATOM     26  C   UNL     1     -46.937  33.298   1.312  0.00  0.00    +0.003 C 
ENDBRANCH  13  25
BRANCH  17  27
ATOM     27  O   UNL     1     -42.905  28.203   3.050  0.00  0.00    -0.445 OA
BRANCH  27  29
ATOM     28  O   UNL     1     -41.818  26.445   4.083  0.00  0.00    -0.250 OA
ATOM     29  C   UNL     1     -42.449  26.919   3.148  0.00  0.00    +0.318 C 
ATOM     30  C   UNL     1     -42.836  26.149   1.921  0.00  0.00    +0.121 C 
ENDBRANCH  27  29
ENDBRANCH  17  27
TORSDOF 4
ENDMDL
MODEL 8
REMARK VINA RESULT:      -5.6      2.432      4.833
REMARK  Name = 53463259
REMARK  4 active torsions:
REMARK  status: ('A' for Active; 'I' for Inactive)
REMARK    1  A    between atoms: C_13  and  O_23
REMARK    2  A    between atoms: C_13  and  C_25
REMARK    3  A    between atoms: C_17  and  O_27
REMARK    4  A    between atoms: O_27  and  C_29
REMARK                            x       y       z     vdW  Elec       q    Type
REMARK                         _______ _______ _______ _____ _____    ______ ____
ROOT
ATOM      1  O   UNL     1     -37.352  24.247   3.173  0.00  0.00    -0.453 OA
ATOM      2  O   UNL     1     -35.981  26.845   1.690  0.00  0.00    -0.442 OA
ATOM      3  O   UNL     1     -36.684  22.281   2.186  0.00  0.00    -0.248 OA
ATOM      4  O   UNL     1     -34.103  26.025   0.639  0.00  0.00    -0.246 OA
ATOM      5  N   UNL     1     -40.199  26.034   2.078  0.00  0.00    +0.396 N 
ATOM      6  C   UNL     1     -38.713  25.935   2.120  0.00  0.00    +0.006 C 
ATOM      7  C   UNL     1     -38.379  24.445   2.194  0.00  0.00    +0.152 C 
ATOM      8  C   UNL     1     -39.692  23.814   2.625  0.00  0.00    +0.019 C 
ATOM      9  C   UNL     1     -40.707  24.666   1.886  0.00  0.00    -0.073 C 
ATOM     10  C   UNL     1     -38.211  26.624   0.888  0.00  0.00    -0.023 C 
ATOM     11  C   UNL     1     -40.520  26.934   0.948  0.00  0.00    -0.050 C 
ATOM     12  C   UNL     1     -39.229  27.196   0.242  0.00  0.00    -0.056 C 
ATOM     13  C   UNL     1     -35.448  23.172   4.091  0.00  0.00    +0.177 C 
ATOM     14  C   UNL     1     -34.624  25.697   4.062  0.00  0.00    +0.050 C 
ATOM     15  C   UNL     1     -34.353  24.201   3.724  0.00  0.00    +0.042 C 
ATOM     16  C   UNL     1     -36.770  26.632   0.507  0.00  0.00    +0.229 C 
ATOM     17  C   UNL     1     -34.002  26.655   2.994  0.00  0.00    +0.224 C 
ATOM     18  C   UNL     1     -36.555  23.150   3.039  0.00  0.00    +0.341 C 
ATOM     19  C   UNL     1     -34.673  26.463   1.631  0.00  0.00    +0.354 C 
ATOM     20  C   UNL     1     -34.071  26.009   5.465  0.00  0.00    +0.004 C 
ATOM     21  C   UNL     1     -34.087  28.139   3.375  0.00  0.00    +0.055 C 
ATOM     22  H   UNL     1     -40.625  26.412   2.923  0.00  0.00    -0.079 HD
ENDROOT
BRANCH  13  23
ATOM     23  O   UNL     1     -34.850  21.871   3.970  0.00  0.00    -0.376 OA
ATOM     24  H   UNL     1     -33.885  21.952   4.031  0.00  0.00    +0.211 HD
ENDBRANCH  13  23
BRANCH  13  25
ATOM     25  C   UNL     1     -36.029  23.271   5.497  0.00  0.00    +0.038 C 
ATOM     26  C   UNL     1     -35.560  22.125   6.375  0.00  0.00    +0.003 C 
ENDBRANCH  13  25
BRANCH  17  27
ATOM     27  O   UNL     1     -32.623  26.325   2.831  0.00  0.00    -0.445 OA
BRANCH  27  29
ATOM     28  O   UNL     1     -31.358  27.750   4.137  0.00  0.00    -0.250 OA
ATOM     29  C   UNL     1     -31.742  27.345   3.048  0.00  0.00    +0.318 C 
ATOM     30  C   UNL     1     -31.296  27.918   1.736  0.00  0.00    +0.121 C 
ENDBRANCH  27  29
ENDBRANCH  17  27
TORSDOF 4
ENDMDL
MODEL 9
REMARK VINA RESULT:      -5.6      2.690      6.222
REMARK  Name = 53463259
REMARK  4 active torsions:
REMARK  status: ('A' for Active; 'I' for Inactive)
REMARK    1  A    between atoms: C_13  and  O_23
REMARK    2  A    between atoms: C_13  and  C_25
REMARK    3  A    between atoms: C_17  and  O_27
REMARK    4  A    between atoms: O_27  and  C_29
REMARK                            x       y       z     vdW  Elec       q    Type
REMARK                         _______ _______ _______ _____ _____    ______ ____
ROOT
ATOM      1  O   UNL     1     -33.711  25.962   3.255  0.00  0.00    -0.453 OA
ATOM      2  O   UNL     1     -34.699  23.767   1.010  0.00  0.00    -0.442 OA
ATOM      3  O   UNL     1     -35.198  27.707   3.419  0.00  0.00    -0.248 OA
ATOM      4  O   UNL     1     -36.971  24.087   0.805  0.00  0.00    -0.246 OA
ATOM      5  N   UNL     1     -31.008  25.997   0.976  0.00  0.00    +0.396 N 
ATOM      6  C   UNL     1     -32.359  25.470   1.321  0.00  0.00    +0.006 C 
ATOM      7  C   UNL     1     -33.058  26.563   2.130  0.00  0.00    +0.152 C 
ATOM      8  C   UNL     1     -31.913  27.462   2.564  0.00  0.00    +0.019 C 
ATOM      9  C   UNL     1     -31.004  27.421   1.349  0.00  0.00    -0.073 C 
ATOM     10  C   UNL     1     -33.025  25.138   0.021  0.00  0.00    -0.023 C 
ATOM     11  C   UNL     1     -30.841  25.780  -0.478  0.00  0.00    -0.050 C 
ATOM     12  C   UNL     1     -32.162  25.300  -0.985  0.00  0.00    -0.056 C 
ATOM     13  C   UNL     1     -35.422  25.769   4.885  0.00  0.00    +0.177 C 
ATOM     14  C   UNL     1     -35.456  23.327   3.843  0.00  0.00    +0.050 C 
ATOM     15  C   UNL     1     -36.237  24.599   4.285  0.00  0.00    +0.042 C 
ATOM     16  C   UNL     1     -34.445  24.692  -0.060  0.00  0.00    +0.229 C 
ATOM     17  C   UNL     1     -36.099  22.660   2.583  0.00  0.00    +0.224 C 
ATOM     18  C   UNL     1     -34.784  26.614   3.784  0.00  0.00    +0.341 C 
ATOM     19  C   UNL     1     -36.004  23.586   1.366  0.00  0.00    +0.354 C 
ATOM     20  C   UNL     1     -35.397  22.332   5.017  0.00  0.00    +0.004 C 
ATOM     21  C   UNL     1     -35.474  21.308   2.216  0.00  0.00    +0.055 C 
ATOM     22  H   UNL     1     -30.236  25.542   1.462  0.00  0.00    -0.079 HD
ENDROOT
BRANCH  13  23
ATOM     23  O   UNL     1     -36.370  26.668   5.484  0.00  0.00    -0.376 OA
ATOM     24  H   UNL     1     -36.622  26.335   6.360  0.00  0.00    +0.211 HD
ENDBRANCH  13  23
BRANCH  13  25
ATOM     25  C   UNL     1     -34.404  25.408   5.960  0.00  0.00    +0.038 C 
ATOM     26  C   UNL     1     -33.531  26.595   6.323  0.00  0.00    +0.003 C 
ENDBRANCH  13  25
BRANCH  17  27
ATOM     27  O   UNL     1     -37.486  22.445   2.836  0.00  0.00    -0.445 OA
BRANCH  27  29
ATOM     28  O   UNL     1     -37.605  20.682   1.348  0.00  0.00    -0.250 OA
ATOM     29  C   UNL     1     -38.121  21.599   1.972  0.00  0.00    +0.318 C 
ATOM     30  C   UNL     1     -39.574  21.957   1.888  0.00  0.00    +0.121 C 
ENDBRANCH  27  29
ENDBRANCH  17  27
TORSDOF 4
ENDMDL
