MODEL 1
REMARK VINA RESULT:      -5.9      0.000      0.000
REMARK  Name = 21120984
REMARK  7 active torsions:
REMARK  status: ('A' for Active; 'I' for Inactive)
REMARK    1  A    between atoms: C_1  and  N_3
REMARK    2  A    between atoms: C_1  and  C_16
REMARK    3  A    between atoms: C_1  and  C_24
REMARK    4  A    between atoms: C_4  and  C_7
REMARK    5  A    between atoms: N_15  and  C_18
REMARK    6  A    between atoms: C_18  and  C_21
REMARK    7  A    between atoms: C_24  and  C_25
REMARK                            x       y       z     vdW  Elec       q    Type
REMARK                         _______ _______ _______ _____ _____    ______ ____
ROOT
ATOM      1  C   UNL     1     -35.643  22.743   3.205  0.00  0.00    +0.148 C 
ENDROOT
BRANCH   1   3
ATOM      2  O   UNL     1     -36.068  19.962   2.490  0.00  0.00    -0.277 OA
ATOM      3  N   UNL     1     -34.890  21.957   2.263  0.00  0.00    -0.300 N 
ATOM      4  C   UNL     1     -35.168  20.627   1.984  0.00  0.00    +0.203 C 
ATOM      5  H   UNL     1     -34.139  22.385   1.792  0.00  0.00    +0.150 HD
BRANCH   4   7
ATOM      6  N   UNL     1     -33.423  21.168   0.477  0.00  0.00    +0.391 N 
ATOM      7  C   UNL     1     -34.250  20.057   0.950  0.00  0.00    +0.017 C 
ATOM      8  C   UNL     1     -33.402  18.942   1.563  0.00  0.00    -0.013 C 
ATOM      9  C   UNL     1     -32.341  18.455   0.581  0.00  0.00    -0.004 C 
ATOM     10  C   UNL     1     -31.533  19.632   0.043  0.00  0.00    -0.023 C 
ATOM     11  C   UNL     1     -32.445  20.722  -0.516  0.00  0.00    -0.081 C 
ATOM     12  H   UNL     1     -32.928  21.575   1.272  0.00  0.00    -0.084 HD
ATOM     13  H   UNL     1     -34.033  21.859   0.040  0.00  0.00    -0.084 HD
ENDBRANCH   4   7
ENDBRANCH   1   3
BRANCH   1  16
ATOM     14  O   UNL     1     -36.924  24.222   1.774  0.00  0.00    -0.273 OA
ATOM     15  N   UNL     1     -37.977  22.370   2.698  0.00  0.00    -0.295 N 
ATOM     16  C   UNL     1     -36.901  23.221   2.487  0.00  0.00    +0.241 C 
ATOM     17  H   UNL     1     -37.849  21.595   3.291  0.00  0.00    +0.150 HD
BRANCH  15  18
ATOM     18  C   UNL     1     -39.274  22.565   2.091  0.00  0.00    +0.175 C 
BRANCH  18  21
ATOM     19  O   UNL     1     -40.806  21.037   1.006  0.00  0.00    -0.273 OA
ATOM     20  N   UNL     1     -38.555  20.574   0.958  0.00  0.00    -0.327 N 
ATOM     21  C   UNL     1     -39.651  21.341   1.290  0.00  0.00    +0.239 C 
ATOM     22  H   UNL     1     -38.671  19.749   0.435  0.00  0.00    +0.145 HD
ATOM     23  H   UNL     1     -37.655  20.852   1.244  0.00  0.00    +0.145 HD
ENDBRANCH  18  21
ENDBRANCH  15  18
ENDBRANCH   1  16
BRANCH   1  24
ATOM     24  C   UNL     1     -34.844  23.942   3.731  0.00  0.00    +0.029 C 
BRANCH  24  25
ATOM     25  C   UNL     1     -34.983  24.198   5.246  0.00  0.00    +0.002 C 
ATOM     26  C   UNL     1     -35.411  22.908   5.950  0.00  0.00    +0.000 C 
ATOM     27  C   UNL     1     -35.983  25.311   5.559  0.00  0.00    +0.000 C 
ENDBRANCH  24  25
ENDBRANCH   1  24
TORSDOF 7
ENDMDL
MODEL 2
REMARK VINA RESULT:      -5.8      2.839      6.332
REMARK  Name = 21120984
REMARK  7 active torsions:
REMARK  status: ('A' for Active; 'I' for Inactive)
REMARK    1  A    between atoms: C_1  and  N_3
REMARK    2  A    between atoms: C_1  and  C_16
REMARK    3  A    between atoms: C_1  and  C_24
REMARK    4  A    between atoms: C_4  and  C_7
REMARK    5  A    between atoms: N_15  and  C_18
REMARK    6  A    between atoms: C_18  and  C_21
REMARK    7  A    between atoms: C_24  and  C_25
REMARK                            x       y       z     vdW  Elec       q    Type
REMARK                         _______ _______ _______ _____ _____    ______ ____
ROOT
ATOM      1  C   UNL     1     -36.327  24.647   4.264  0.00  0.00    +0.148 C 
ENDROOT
BRANCH   1   3
ATOM      2  O   UNL     1     -37.861  24.147   1.851  0.00  0.00    -0.277 OA
ATOM      3  N   UNL     1     -37.744  24.821   4.076  0.00  0.00    -0.300 N 
ATOM      4  C   UNL     1     -38.393  24.554   2.879  0.00  0.00    +0.203 C 
ATOM      5  H   UNL     1     -38.280  25.145   4.836  0.00  0.00    +0.150 HD
BRANCH   4   7
ATOM      6  N   UNL     1     -40.034  26.121   3.560  0.00  0.00    +0.391 N 
ATOM      7  C   UNL     1     -39.867  24.794   2.964  0.00  0.00    +0.017 C 
ATOM      8  C   UNL     1     -40.489  24.718   1.570  0.00  0.00    -0.013 C 
ATOM      9  C   UNL     1     -41.960  25.123   1.601  0.00  0.00    -0.004 C 
ATOM     10  C   UNL     1     -42.126  26.475   2.286  0.00  0.00    -0.023 C 
ATOM     11  C   UNL     1     -41.447  26.490   3.655  0.00  0.00    -0.081 C 
ATOM     12  H   UNL     1     -39.550  26.808   2.980  0.00  0.00    -0.084 HD
ATOM     13  H   UNL     1     -39.643  26.102   4.501  0.00  0.00    -0.084 HD
ENDBRANCH   4   7
ENDBRANCH   1   3
BRANCH   1  16
ATOM     14  O   UNL     1     -36.198  22.600   5.557  0.00  0.00    -0.273 OA
ATOM     15  N   UNL     1     -35.763  22.514   3.277  0.00  0.00    -0.295 N 
ATOM     16  C   UNL     1     -36.081  23.156   4.467  0.00  0.00    +0.241 C 
ATOM     17  H   UNL     1     -35.694  23.055   2.459  0.00  0.00    +0.150 HD
BRANCH  15  18
ATOM     18  C   UNL     1     -35.531  21.090   3.181  0.00  0.00    +0.175 C 
BRANCH  18  21
ATOM     19  O   UNL     1     -36.130  19.679   1.308  0.00  0.00    -0.273 OA
ATOM     20  N   UNL     1     -37.753  20.988   2.277  0.00  0.00    -0.327 N 
ATOM     21  C   UNL     1     -36.473  20.488   2.166  0.00  0.00    +0.239 C 
ATOM     22  H   UNL     1     -38.460  20.672   1.669  0.00  0.00    +0.145 HD
ATOM     23  H   UNL     1     -37.960  21.661   2.964  0.00  0.00    +0.145 HD
ENDBRANCH  18  21
ENDBRANCH  15  18
ENDBRANCH   1  16
BRANCH   1  24
ATOM     24  C   UNL     1     -35.800  25.441   5.465  0.00  0.00    +0.029 C 
BRANCH  24  25
ATOM     25  C   UNL     1     -34.587  26.345   5.163  0.00  0.00    +0.002 C 
ATOM     26  C   UNL     1     -33.867  25.839   3.909  0.00  0.00    +0.000 C 
ATOM     27  C   UNL     1     -33.602  26.410   6.330  0.00  0.00    +0.000 C 
ENDBRANCH  24  25
ENDBRANCH   1  24
TORSDOF 7
ENDMDL
MODEL 3
REMARK VINA RESULT:      -5.6      1.592      2.221
REMARK  Name = 21120984
REMARK  7 active torsions:
REMARK  status: ('A' for Active; 'I' for Inactive)
REMARK    1  A    between atoms: C_1  and  N_3
REMARK    2  A    between atoms: C_1  and  C_16
REMARK    3  A    between atoms: C_1  and  C_24
REMARK    4  A    between atoms: C_4  and  C_7
REMARK    5  A    between atoms: N_15  and  C_18
REMARK    6  A    between atoms: C_18  and  C_21
REMARK    7  A    between atoms: C_24  and  C_25
REMARK                            x       y       z     vdW  Elec       q    Type
REMARK                         _______ _______ _______ _____ _____    ______ ____
ROOT
ATOM      1  C   UNL     1     -35.718  22.980   3.121  0.00  0.00    +0.148 C 
ENDROOT
BRANCH   1   3
ATOM      2  O   UNL     1     -36.085  20.145   2.617  0.00  0.00    -0.277 OA
ATOM      3  N   UNL     1     -34.981  22.152   2.202  0.00  0.00    -0.300 N 
ATOM      4  C   UNL     1     -35.229  20.798   2.028  0.00  0.00    +0.203 C 
ATOM      5  H   UNL     1     -34.266  22.568   1.669  0.00  0.00    +0.150 HD
BRANCH   4   7
ATOM      6  N   UNL     1     -33.484  21.263   0.495  0.00  0.00    +0.391 N 
ATOM      7  C   UNL     1     -34.339  20.184   0.994  0.00  0.00    +0.017 C 
ATOM      8  C   UNL     1     -33.518  19.055   1.618  0.00  0.00    -0.013 C 
ATOM      9  C   UNL     1     -32.482  18.521   0.634  0.00  0.00    -0.004 C 
ATOM     10  C   UNL     1     -31.645  19.663   0.069  0.00  0.00    -0.023 C 
ATOM     11  C   UNL     1     -32.530  20.771  -0.500  0.00  0.00    -0.081 C 
ATOM     12  H   UNL     1     -32.969  21.667   1.278  0.00  0.00    -0.084 HD
ATOM     13  H   UNL     1     -34.078  21.964   0.052  0.00  0.00    -0.084 HD
ENDBRANCH   4   7
ENDBRANCH   1   3
BRANCH   1  16
ATOM     14  O   UNL     1     -36.921  23.741   1.159  0.00  0.00    -0.273 OA
ATOM     15  N   UNL     1     -38.031  23.677   3.198  0.00  0.00    -0.295 N 
ATOM     16  C   UNL     1     -36.929  23.520   2.368  0.00  0.00    +0.241 C 
ATOM     17  H   UNL     1     -37.928  23.472   4.155  0.00  0.00    +0.150 HD
BRANCH  15  18
ATOM     18  C   UNL     1     -39.322  24.126   2.727  0.00  0.00    +0.175 C 
BRANCH  18  21
ATOM     19  O   UNL     1     -38.703  26.461   2.561  0.00  0.00    -0.273 OA
ATOM     20  N   UNL     1     -40.545  25.885   3.810  0.00  0.00    -0.327 N 
ATOM     21  C   UNL     1     -39.473  25.606   2.990  0.00  0.00    +0.239 C 
ATOM     22  H   UNL     1     -40.749  26.816   4.056  0.00  0.00    +0.145 HD
ATOM     23  H   UNL     1     -41.108  25.152   4.152  0.00  0.00    +0.145 HD
ENDBRANCH  18  21
ENDBRANCH  15  18
ENDBRANCH   1  16
BRANCH   1  24
ATOM     24  C   UNL     1     -34.872  24.138   3.665  0.00  0.00    +0.029 C 
BRANCH  24  25
ATOM     25  C   UNL     1     -34.943  24.329   5.194  0.00  0.00    +0.002 C 
ATOM     26  C   UNL     1     -35.382  23.020   5.857  0.00  0.00    +0.000 C 
ATOM     27  C   UNL     1     -35.895  25.455   5.598  0.00  0.00    +0.000 C 
ENDBRANCH  24  25
ENDBRANCH   1  24
TORSDOF 7
ENDMDL
MODEL 4
REMARK VINA RESULT:      -5.4      2.892      7.072
REMARK  Name = 21120984
REMARK  7 active torsions:
REMARK  status: ('A' for Active; 'I' for Inactive)
REMARK    1  A    between atoms: C_1  and  N_3
REMARK    2  A    between atoms: C_1  and  C_16
REMARK    3  A    between atoms: C_1  and  C_24
REMARK    4  A    between atoms: C_4  and  C_7
REMARK    5  A    between atoms: N_15  and  C_18
REMARK    6  A    between atoms: C_18  and  C_21
REMARK    7  A    between atoms: C_24  and  C_25
REMARK                            x       y       z     vdW  Elec       q    Type
REMARK                         _______ _______ _______ _____ _____    ______ ____
ROOT
ATOM      1  C   UNL     1     -36.324  22.439   3.476  0.00  0.00    +0.148 C 
ENDROOT
BRANCH   1   3
ATOM      2  O   UNL     1     -37.187  25.149   2.899  0.00  0.00    -0.277 OA
ATOM      3  N   UNL     1     -37.675  22.912   3.321  0.00  0.00    -0.300 N 
ATOM      4  C   UNL     1     -37.992  24.234   3.044  0.00  0.00    +0.203 C 
ATOM      5  H   UNL     1     -38.410  22.265   3.415  0.00  0.00    +0.150 HD
BRANCH   4   7
ATOM      6  N   UNL     1     -39.732  25.799   3.408  0.00  0.00    +0.391 N 
ATOM      7  C   UNL     1     -39.467  24.449   2.908  0.00  0.00    +0.017 C 
ATOM      8  C   UNL     1     -39.882  24.296   1.444  0.00  0.00    -0.013 C 
ATOM      9  C   UNL     1     -41.347  24.673   1.247  0.00  0.00    -0.004 C 
ATOM     10  C   UNL     1     -41.626  26.053   1.834  0.00  0.00    -0.023 C 
ATOM     11  C   UNL     1     -41.149  26.145   3.283  0.00  0.00    -0.081 C 
ATOM     12  H   UNL     1     -39.179  26.467   2.870  0.00  0.00    -0.084 HD
ATOM     13  H   UNL     1     -39.479  25.831   4.395  0.00  0.00    -0.084 HD
ENDBRANCH   4   7
ENDBRANCH   1   3
BRANCH   1  16
ATOM     14  O   UNL     1     -36.027  22.779   5.859  0.00  0.00    -0.273 OA
ATOM     15  N   UNL     1     -34.849  24.128   4.379  0.00  0.00    -0.295 N 
ATOM     16  C   UNL     1     -35.747  23.123   4.712  0.00  0.00    +0.241 C 
ATOM     17  H   UNL     1     -34.699  24.324   3.426  0.00  0.00    +0.150 HD
BRANCH  15  18
ATOM     18  C   UNL     1     -34.123  24.900   5.362  0.00  0.00    +0.175 C 
BRANCH  18  21
ATOM     19  O   UNL     1     -33.575  27.251   5.178  0.00  0.00    -0.273 OA
ATOM     20  N   UNL     1     -35.782  26.613   5.080  0.00  0.00    -0.327 N 
ATOM     21  C   UNL     1     -34.429  26.369   5.184  0.00  0.00    +0.239 C 
ATOM     22  H   UNL     1     -36.109  27.533   4.961  0.00  0.00    +0.145 HD
ATOM     23  H   UNL     1     -36.422  25.866   5.126  0.00  0.00    +0.145 HD
ENDBRANCH  18  21
ENDBRANCH  15  18
ENDBRANCH   1  16
BRANCH   1  24
ATOM     24  C   UNL     1     -35.457  22.744   2.248  0.00  0.00    +0.029 C 
BRANCH  24  25
ATOM     25  C   UNL     1     -35.198  21.538   1.322  0.00  0.00    +0.002 C 
ATOM     26  C   UNL     1     -35.025  20.270   2.164  0.00  0.00    +0.000 C 
ATOM     27  C   UNL     1     -33.969  21.738   0.435  0.00  0.00    +0.000 C 
ENDBRANCH  24  25
ENDBRANCH   1  24
TORSDOF 7
ENDMDL
MODEL 5
REMARK VINA RESULT:      -5.4      2.703      6.016
REMARK  Name = 21120984
REMARK  7 active torsions:
REMARK  status: ('A' for Active; 'I' for Inactive)
REMARK    1  A    between atoms: C_1  and  N_3
REMARK    2  A    between atoms: C_1  and  C_16
REMARK    3  A    between atoms: C_1  and  C_24
REMARK    4  A    between atoms: C_4  and  C_7
REMARK    5  A    between atoms: N_15  and  C_18
REMARK    6  A    between atoms: C_18  and  C_21
REMARK    7  A    between atoms: C_24  and  C_25
REMARK                            x       y       z     vdW  Elec       q    Type
REMARK                         _______ _______ _______ _____ _____    ______ ____
ROOT
ATOM      1  C   UNL     1     -34.635  19.785   0.845  0.00  0.00    +0.148 C 
ENDROOT
BRANCH   1   3
ATOM      2  O   UNL     1     -35.239  22.598   1.233  0.00  0.00    -0.277 OA
ATOM      3  N   UNL     1     -35.072  20.427   2.058  0.00  0.00    -0.300 N 
ATOM      4  C   UNL     1     -35.337  21.785   2.149  0.00  0.00    +0.203 C 
ATOM      5  H   UNL     1     -35.188  19.874   2.864  0.00  0.00    +0.150 HD
BRANCH   4   7
ATOM      6  N   UNL     1     -35.275  21.178   4.437  0.00  0.00    +0.391 N 
ATOM      7  C   UNL     1     -35.799  22.186   3.514  0.00  0.00    +0.017 C 
ATOM      8  C   UNL     1     -35.280  23.585   3.850  0.00  0.00    -0.013 C 
ATOM      9  C   UNL     1     -35.592  23.953   5.297  0.00  0.00    -0.004 C 
ATOM     10  C   UNL     1     -35.103  22.861   6.243  0.00  0.00    -0.023 C 
ATOM     11  C   UNL     1     -35.627  21.489   5.823  0.00  0.00    -0.081 C 
ATOM     12  H   UNL     1     -34.258  21.147   4.351  0.00  0.00    -0.084 HD
ATOM     13  H   UNL     1     -35.686  20.277   4.195  0.00  0.00    -0.084 HD
ENDBRANCH   4   7
ENDBRANCH   1   3
BRANCH   1  16
ATOM     14  O   UNL     1     -36.990  19.331   0.488  0.00  0.00    -0.273 OA
ATOM     15  N   UNL     1     -35.419  17.902  -0.452  0.00  0.00    -0.295 N 
ATOM     16  C   UNL     1     -35.822  18.995   0.303  0.00  0.00    +0.241 C 
ATOM     17  H   UNL     1     -34.455  17.722  -0.535  0.00  0.00    +0.150 HD
BRANCH  15  18
ATOM     18  C   UNL     1     -36.344  17.015  -1.121  0.00  0.00    +0.175 C 
BRANCH  18  21
ATOM     19  O   UNL     1     -37.877  15.555   0.054  0.00  0.00    -0.273 OA
ATOM     20  N   UNL     1     -35.616  15.282   0.372  0.00  0.00    -0.327 N 
ATOM     21  C   UNL     1     -36.720  15.880  -0.198  0.00  0.00    +0.239 C 
ATOM     22  H   UNL     1     -35.731  14.527   0.995  0.00  0.00    +0.145 HD
ATOM     23  H   UNL     1     -34.713  15.609   0.158  0.00  0.00    +0.145 HD
ENDBRANCH  18  21
ENDBRANCH  15  18
ENDBRANCH   1  16
BRANCH   1  24
ATOM     24  C   UNL     1     -33.440  18.853   1.079  0.00  0.00    +0.029 C 
BRANCH  24  25
ATOM     25  C   UNL     1     -32.065  19.469   0.751  0.00  0.00    +0.002 C 
ATOM     26  C   UNL     1     -32.226  20.549  -0.322  0.00  0.00    +0.000 C 
ATOM     27  C   UNL     1     -31.055  18.422   0.279  0.00  0.00    +0.000 C 
ENDBRANCH  24  25
ENDBRANCH   1  24
TORSDOF 7
ENDMDL
MODEL 6
REMARK VINA RESULT:      -5.3      3.979      6.385
REMARK  Name = 21120984
REMARK  7 active torsions:
REMARK  status: ('A' for Active; 'I' for Inactive)
REMARK    1  A    between atoms: C_1  and  N_3
REMARK    2  A    between atoms: C_1  and  C_16
REMARK    3  A    between atoms: C_1  and  C_24
REMARK    4  A    between atoms: C_4  and  C_7
REMARK    5  A    between atoms: N_15  and  C_18
REMARK    6  A    between atoms: C_18  and  C_21
REMARK    7  A    between atoms: C_24  and  C_25
REMARK                            x       y       z     vdW  Elec       q    Type
REMARK                         _______ _______ _______ _____ _____    ______ ____
ROOT
ATOM      1  C   UNL     1     -35.580  25.247   4.126  0.00  0.00    +0.148 C 
ENDROOT
BRANCH   1   3
ATOM      2  O   UNL     1     -32.755  25.801   3.747  0.00  0.00    -0.277 OA
ATOM      3  N   UNL     1     -34.869  26.449   4.478  0.00  0.00    -0.300 N 
ATOM      4  C   UNL     1     -33.510  26.624   4.257  0.00  0.00    +0.203 C 
ATOM      5  H   UNL     1     -35.372  27.184   4.896  0.00  0.00    +0.150 HD
BRANCH   4   7
ATOM      6  N   UNL     1     -32.458  27.794   6.027  0.00  0.00    +0.391 N 
ATOM      7  C   UNL     1     -33.031  27.973   4.692  0.00  0.00    +0.017 C 
ATOM      8  C   UNL     1     -31.997  28.503   3.698  0.00  0.00    -0.013 C 
ATOM      9  C   UNL     1     -31.367  29.799   4.201  0.00  0.00    -0.004 C 
ATOM     10  C   UNL     1     -30.836  29.618   5.619  0.00  0.00    -0.023 C 
ATOM     11  C   UNL     1     -31.910  29.049   6.545  0.00  0.00    -0.081 C 
ATOM     12  H   UNL     1     -31.710  27.101   5.977  0.00  0.00    -0.084 HD
ATOM     13  H   UNL     1     -33.199  27.483   6.655  0.00  0.00    -0.084 HD
ENDBRANCH   4   7
ENDBRANCH   1   3
BRANCH   1  16
ATOM     14  O   UNL     1     -37.009  26.564   2.676  0.00  0.00    -0.273 OA
ATOM     15  N   UNL     1     -37.970  24.912   3.995  0.00  0.00    -0.295 N 
ATOM     16  C   UNL     1     -36.912  25.675   3.519  0.00  0.00    +0.241 C 
ATOM     17  H   UNL     1     -37.781  24.224   4.673  0.00  0.00    +0.150 HD
BRANCH  15  18
ATOM     18  C   UNL     1     -39.333  25.077   3.544  0.00  0.00    +0.175 C 
BRANCH  18  21
ATOM     19  O   UNL     1     -39.103  22.937   2.436  0.00  0.00    -0.273 OA
ATOM     20  N   UNL     1     -40.607  24.464   1.604  0.00  0.00    -0.327 N 
ATOM     21  C   UNL     1     -39.656  24.031   2.503  0.00  0.00    +0.239 C 
ATOM     22  H   UNL     1     -40.902  23.871   0.876  0.00  0.00    +0.145 HD
ATOM     23  H   UNL     1     -40.990  25.366   1.689  0.00  0.00    +0.145 HD
ENDBRANCH  18  21
ENDBRANCH  15  18
ENDBRANCH   1  16
BRANCH   1  24
ATOM     24  C   UNL     1     -35.816  24.337   5.338  0.00  0.00    +0.029 C 
BRANCH  24  25
ATOM     25  C   UNL     1     -35.126  22.960   5.259  0.00  0.00    +0.002 C 
ATOM     26  C   UNL     1     -35.570  22.233   3.986  0.00  0.00    +0.000 C 
ATOM     27  C   UNL     1     -35.422  22.088   6.479  0.00  0.00    +0.000 C 
ENDBRANCH  24  25
ENDBRANCH   1  24
TORSDOF 7
ENDMDL
MODEL 7
REMARK VINA RESULT:      -5.2      3.237      5.698
REMARK  Name = 21120984
REMARK  7 active torsions:
REMARK  status: ('A' for Active; 'I' for Inactive)
REMARK    1  A    between atoms: C_1  and  N_3
REMARK    2  A    between atoms: C_1  and  C_16
REMARK    3  A    between atoms: C_1  and  C_24
REMARK    4  A    between atoms: C_4  and  C_7
REMARK    5  A    between atoms: N_15  and  C_18
REMARK    6  A    between atoms: C_18  and  C_21
REMARK    7  A    between atoms: C_24  and  C_25
REMARK                            x       y       z     vdW  Elec       q    Type
REMARK                         _______ _______ _______ _____ _____    ______ ____
ROOT
ATOM      1  C   UNL     1     -36.283  24.332   3.419  0.00  0.00    +0.148 C 
ENDROOT
BRANCH   1   3
ATOM      2  O   UNL     1     -33.642  25.329   2.742  0.00  0.00    -0.277 OA
ATOM      3  N   UNL     1     -35.932  25.664   3.000  0.00  0.00    -0.300 N 
ATOM      4  C   UNL     1     -34.635  26.051   2.695  0.00  0.00    +0.203 C 
ATOM      5  H   UNL     1     -36.649  26.335   2.924  0.00  0.00    +0.150 HD
BRANCH   4   7
ATOM      6  N   UNL     1     -35.933  27.953   2.143  0.00  0.00    +0.391 N 
ATOM      7  C   UNL     1     -34.553  27.480   2.262  0.00  0.00    +0.017 C 
ATOM      8  C   UNL     1     -33.764  28.292   3.291  0.00  0.00    -0.013 C 
ATOM      9  C   UNL     1     -33.805  29.781   2.964  0.00  0.00    -0.004 C 
ATOM     10  C   UNL     1     -35.246  30.245   2.773  0.00  0.00    -0.023 C 
ATOM     11  C   UNL     1     -35.982  29.366   1.764  0.00  0.00    -0.081 C 
ATOM     12  H   UNL     1     -36.404  27.833   3.040  0.00  0.00    -0.084 HD
ATOM     13  H   UNL     1     -36.397  27.409   1.415  0.00  0.00    -0.084 HD
ENDBRANCH   4   7
ENDBRANCH   1   3
BRANCH   1  16
ATOM     14  O   UNL     1     -38.634  24.746   3.847  0.00  0.00    -0.273 OA
ATOM     15  N   UNL     1     -38.045  23.333   2.099  0.00  0.00    -0.295 N 
ATOM     16  C   UNL     1     -37.780  24.166   3.179  0.00  0.00    +0.241 C 
ATOM     17  H   UNL     1     -37.285  22.918   1.633  0.00  0.00    +0.150 HD
BRANCH  15  18
ATOM     18  C   UNL     1     -39.381  23.048   1.627  0.00  0.00    +0.175 C 
BRANCH  18  21
ATOM     19  O   UNL     1     -40.653  21.024   1.249  0.00  0.00    -0.273 OA
ATOM     20  N   UNL     1     -38.532  20.857   2.121  0.00  0.00    -0.327 N 
ATOM     21  C   UNL     1     -39.610  21.555   1.618  0.00  0.00    +0.239 C 
ATOM     22  H   UNL     1     -38.561  19.874   2.168  0.00  0.00    +0.145 HD
ATOM     23  H   UNL     1     -37.735  21.341   2.434  0.00  0.00    +0.145 HD
ENDBRANCH  18  21
ENDBRANCH  15  18
ENDBRANCH   1  16
BRANCH   1  24
ATOM     24  C   UNL     1     -35.952  24.083   4.896  0.00  0.00    +0.029 C 
BRANCH  24  25
ATOM     25  C   UNL     1     -35.102  22.824   5.165  0.00  0.00    +0.002 C 
ATOM     26  C   UNL     1     -35.323  21.804   4.045  0.00  0.00    +0.000 C 
ATOM     27  C   UNL     1     -35.422  22.182   6.516  0.00  0.00    +0.000 C 
ENDBRANCH  24  25
ENDBRANCH   1  24
TORSDOF 7
ENDMDL
MODEL 8
REMARK VINA RESULT:      -5.1      4.594      6.801
REMARK  Name = 21120984
REMARK  7 active torsions:
REMARK  status: ('A' for Active; 'I' for Inactive)
REMARK    1  A    between atoms: C_1  and  N_3
REMARK    2  A    between atoms: C_1  and  C_16
REMARK    3  A    between atoms: C_1  and  C_24
REMARK    4  A    between atoms: C_4  and  C_7
REMARK    5  A    between atoms: N_15  and  C_18
REMARK    6  A    between atoms: C_18  and  C_21
REMARK    7  A    between atoms: C_24  and  C_25
REMARK                            x       y       z     vdW  Elec       q    Type
REMARK                         _______ _______ _______ _____ _____    ______ ____
ROOT
ATOM      1  C   UNL     1     -36.496  25.592   3.801  0.00  0.00    +0.148 C 
ENDROOT
BRANCH   1   3
ATOM      2  O   UNL     1     -34.235  26.672   2.337  0.00  0.00    -0.277 OA
ATOM      3  N   UNL     1     -36.364  26.914   3.246  0.00  0.00    -0.300 N 
ATOM      4  C   UNL     1     -35.239  27.343   2.558  0.00  0.00    +0.203 C 
ATOM      5  H   UNL     1     -37.111  27.545   3.360  0.00  0.00    +0.150 HD
BRANCH   4   7
ATOM      6  N   UNL     1     -35.304  29.607   3.250  0.00  0.00    +0.391 N 
ATOM      7  C   UNL     1     -35.374  28.749   2.065  0.00  0.00    +0.017 C 
ATOM      8  C   UNL     1     -34.254  29.063   1.073  0.00  0.00    -0.013 C 
ATOM      9  C   UNL     1     -34.265  30.538   0.681  0.00  0.00    -0.004 C 
ATOM     10  C   UNL     1     -34.262  31.420   1.926  0.00  0.00    -0.023 C 
ATOM     11  C   UNL     1     -35.381  31.023   2.888  0.00  0.00    -0.081 C 
ATOM     12  H   UNL     1     -34.422  29.435   3.733  0.00  0.00    -0.084 HD
ATOM     13  H   UNL     1     -36.096  29.386   3.853  0.00  0.00    -0.084 HD
ENDBRANCH   4   7
ENDBRANCH   1   3
BRANCH   1  16
ATOM     14  O   UNL     1     -38.191  23.927   3.315  0.00  0.00    -0.273 OA
ATOM     15  N   UNL     1     -38.823  26.157   3.468  0.00  0.00    -0.295 N 
ATOM     16  C   UNL     1     -37.909  25.111   3.486  0.00  0.00    +0.241 C 
ATOM     17  H   UNL     1     -38.489  27.071   3.616  0.00  0.00    +0.150 HD
BRANCH  15  18
ATOM     18  C   UNL     1     -40.238  25.970   3.243  0.00  0.00    +0.175 C 
BRANCH  18  21
ATOM     19  O   UNL     1     -40.722  27.193   1.211  0.00  0.00    -0.273 OA
ATOM     20  N   UNL     1     -40.650  24.897   1.135  0.00  0.00    -0.327 N 
ATOM     21  C   UNL     1     -40.543  26.115   1.771  0.00  0.00    +0.239 C 
ATOM     22  H   UNL     1     -40.848  24.859   0.172  0.00  0.00    +0.145 HD
ATOM     23  H   UNL     1     -40.530  24.063   1.645  0.00  0.00    +0.145 HD
ENDBRANCH  18  21
ENDBRANCH  15  18
ENDBRANCH   1  16
BRANCH   1  24
ATOM     24  C   UNL     1     -36.254  25.571   5.316  0.00  0.00    +0.029 C 
BRANCH  24  25
ATOM     25  C   UNL     1     -34.867  25.052   5.743  0.00  0.00    +0.002 C 
ATOM     26  C   UNL     1     -33.912  26.233   5.939  0.00  0.00    +0.000 C 
ATOM     27  C   UNL     1     -34.273  24.073   4.728  0.00  0.00    +0.000 C 
ENDBRANCH  24  25
ENDBRANCH   1  24
TORSDOF 7
ENDMDL
MODEL 9
REMARK VINA RESULT:      -5.0      2.807      6.310
REMARK  Name = 21120984
REMARK  7 active torsions:
REMARK  status: ('A' for Active; 'I' for Inactive)
REMARK    1  A    between atoms: C_1  and  N_3
REMARK    2  A    between atoms: C_1  and  C_16
REMARK    3  A    between atoms: C_1  and  C_24
REMARK    4  A    between atoms: C_4  and  C_7
REMARK    5  A    between atoms: N_15  and  C_18
REMARK    6  A    between atoms: C_18  and  C_21
REMARK    7  A    between atoms: C_24  and  C_25
REMARK                            x       y       z     vdW  Elec       q    Type
REMARK                         _______ _______ _______ _____ _____    ______ ____
ROOT
ATOM      1  C   UNL     1     -36.518  23.297   3.048  0.00  0.00    +0.148 C 
ENDROOT
BRANCH   1   3
ATOM      2  O   UNL     1     -37.707  25.940   3.211  0.00  0.00    -0.277 OA
ATOM      3  N   UNL     1     -37.920  23.627   3.057  0.00  0.00    -0.300 N 
ATOM      4  C   UNL     1     -38.397  24.927   3.139  0.00  0.00    +0.203 C 
ATOM      5  H   UNL     1     -38.573  22.893   3.002  0.00  0.00    +0.150 HD
BRANCH   4   7
ATOM      6  N   UNL     1     -40.261  26.287   3.670  0.00  0.00    +0.391 N 
ATOM      7  C   UNL     1     -39.891  24.989   3.103  0.00  0.00    +0.017 C 
ATOM      8  C   UNL     1     -40.385  24.840   1.664  0.00  0.00    -0.013 C 
ATOM      9  C   UNL     1     -41.891  25.067   1.573  0.00  0.00    -0.004 C 
ATOM     10  C   UNL     1     -42.271  26.389   2.230  0.00  0.00    -0.023 C 
ATOM     11  C   UNL     1     -41.712  26.485   3.648  0.00  0.00    -0.081 C 
ATOM     12  H   UNL     1     -39.817  27.027   3.125  0.00  0.00    -0.084 HD
ATOM     13  H   UNL     1     -39.948  26.314   4.640  0.00  0.00    -0.084 HD
ENDBRANCH   4   7
ENDBRANCH   1   3
BRANCH   1  16
ATOM     14  O   UNL     1     -35.286  22.983   0.983  0.00  0.00    -0.273 OA
ATOM     15  N   UNL     1     -37.093  21.593   1.432  0.00  0.00    -0.295 N 
ATOM     16  C   UNL     1     -36.221  22.640   1.704  0.00  0.00    +0.241 C 
ATOM     17  H   UNL     1     -37.809  21.403   2.079  0.00  0.00    +0.150 HD
BRANCH  15  18
ATOM     18  C   UNL     1     -36.999  20.771   0.248  0.00  0.00    +0.175 C 
BRANCH  18  21
ATOM     19  O   UNL     1     -35.030  19.430   0.680  0.00  0.00    -0.273 OA
ATOM     20  N   UNL     1     -37.090  18.409   0.673  0.00  0.00    -0.327 N 
ATOM     21  C   UNL     1     -36.251  19.498   0.569  0.00  0.00    +0.239 C 
ATOM     22  H   UNL     1     -36.721  17.521   0.879  0.00  0.00    +0.145 HD
ATOM     23  H   UNL     1     -38.059  18.520   0.540  0.00  0.00    +0.145 HD
ENDBRANCH  18  21
ENDBRANCH  15  18
ENDBRANCH   1  16
BRANCH   1  24
ATOM     24  C   UNL     1     -36.136  22.355   4.196  0.00  0.00    +0.029 C 
BRANCH  24  25
ATOM     25  C   UNL     1     -35.142  22.947   5.216  0.00  0.00    +0.002 C 
ATOM     26  C   UNL     1     -35.173  22.121   6.505  0.00  0.00    +0.000 C 
ATOM     27  C   UNL     1     -35.439  24.413   5.536  0.00  0.00    +0.000 C 
ENDBRANCH  24  25
ENDBRANCH   1  24
TORSDOF 7
ENDMDL
