MODEL 1
REMARK VINA RESULT:      -5.8      0.000      0.000
REMARK  Name = 60202116
REMARK  14 active torsions:
REMARK  status: ('A' for Active; 'I' for Inactive)
REMARK    1  A    between atoms: C_1  and  C_7
REMARK    2  A    between atoms: C_2  and  C_15
REMARK    3  A    between atoms: C_3  and  O_33
REMARK    4  A    between atoms: C_4  and  O_27
REMARK    5  A    between atoms: C_5  and  O_25
REMARK    6  A    between atoms: C_6  and  O_23
REMARK    7  A    between atoms: C_12  and  O_13
REMARK    8  A    between atoms: C_20  and  O_21
REMARK    9  A    between atoms: O_27  and  C_29
REMARK   10  A    between atoms: C_29  and  C_30
REMARK   11  A    between atoms: C_30  and  C_31
REMARK   12  A    between atoms: O_33  and  C_35
REMARK   13  A    between atoms: C_35  and  C_36
REMARK   14  A    between atoms: C_36  and  C_37
REMARK                            x       y       z     vdW  Elec       q    Type
REMARK                         _______ _______ _______ _____ _____    ______ ____
ROOT
ATOM      1  C   UNL     1     -34.723  28.027   2.085  0.00  0.00    +0.074 A 
ATOM      2  C   UNL     1     -35.400  25.322   2.191  0.00  0.00    +0.074 A 
ATOM      3  C   UNL     1     -34.781  25.930   3.284  0.00  0.00    +0.186 A 
ATOM      4  C   UNL     1     -34.442  27.282   3.231  0.00  0.00    +0.186 A 
ATOM      5  C   UNL     1     -35.679  26.066   1.045  0.00  0.00    +0.171 A 
ATOM      6  C   UNL     1     -35.341  27.419   0.992  0.00  0.00    +0.171 A 
ENDROOT
BRANCH   1   7
ATOM      7  C   UNL     1     -34.372  29.435   2.029  0.00  0.00    +0.006 C 
ATOM      8  C   UNL     1     -33.179  29.833   1.427  0.00  0.00    +0.003 C 
ATOM      9  C   UNL     1     -35.230  30.389   2.577  0.00  0.00    +0.003 C 
ATOM     10  C   UNL     1     -32.843  31.185   1.373  0.00  0.00    +0.037 C 
ATOM     11  C   UNL     1     -34.894  31.742   2.521  0.00  0.00    +0.037 C 
ATOM     12  C   UNL     1     -33.700  32.140   1.920  0.00  0.00    +0.134 C 
BRANCH  12  13
ATOM     13  O   UNL     1     -33.373  33.460   1.866  0.00  0.00    -0.506 OA
ATOM     14  H   UNL     1     -33.556  34.018   2.597  0.00  0.00    +0.292 HD
ENDBRANCH  12  13
ENDBRANCH   1   7
BRANCH   2  15
ATOM     15  C   UNL     1     -35.754  23.915   2.247  0.00  0.00    +0.006 C 
ATOM     16  C   UNL     1     -34.795  22.943   1.960  0.00  0.00    +0.003 C 
ATOM     17  C   UNL     1     -37.052  23.535   2.590  0.00  0.00    +0.003 C 
ATOM     18  C   UNL     1     -35.134  21.591   2.017  0.00  0.00    +0.037 C 
ATOM     19  C   UNL     1     -37.390  22.183   2.646  0.00  0.00    +0.037 C 
ATOM     20  C   UNL     1     -36.431  21.212   2.360  0.00  0.00    +0.134 C 
BRANCH  20  21
ATOM     21  O   UNL     1     -36.762  19.893   2.415  0.00  0.00    -0.506 OA
ATOM     22  H   UNL     1     -36.735  19.370   1.638  0.00  0.00    +0.292 HD
ENDBRANCH  20  21
ENDBRANCH   2  15
BRANCH   6  23
ATOM     23  O   UNL     1     -35.624  28.135  -0.136  0.00  0.00    -0.503 OA
ATOM     24  H   UNL     1     -35.859  27.690  -0.927  0.00  0.00    +0.292 HD
ENDBRANCH   6  23
BRANCH   5  25
ATOM     25  O   UNL     1     -36.286  25.487  -0.032  0.00  0.00    -0.503 OA
ATOM     26  H   UNL     1     -36.833  24.735   0.088  0.00  0.00    +0.292 HD
ENDBRANCH   5  25
BRANCH   4  27
ATOM     27  O   UNL     1     -33.837  27.863   4.307  0.00  0.00    -0.421 OA
BRANCH  27  29
ATOM     28  O   UNL     1     -31.764  27.116   3.526  0.00  0.00    -0.250 OA
ATOM     29  C   UNL     1     -32.432  27.827   4.265  0.00  0.00    +0.322 C 
BRANCH  29  30
ATOM     30  C   UNL     1     -31.878  28.806   5.276  0.00  0.00    +0.110 C 
BRANCH  30  31
ATOM     31  C   UNL     1     -32.361  30.229   5.017  0.00  0.00    +0.012 C 
ATOM     32  C   UNL     1     -31.197  31.187   4.823  0.00  0.00    +0.001 C 
ENDBRANCH  30  31
ENDBRANCH  29  30
ENDBRANCH  27  29
ENDBRANCH   4  27
BRANCH   3  33
ATOM     33  O   UNL     1     -34.492  25.198   4.437  0.00  0.00    -0.421 OA
BRANCH  33  35
ATOM     34  O   UNL     1     -36.043  26.255   5.833  0.00  0.00    -0.250 OA
ATOM     35  C   UNL     1     -35.514  25.247   5.382  0.00  0.00    +0.322 C 
BRANCH  35  36
ATOM     36  C   UNL     1     -35.869  23.827   5.765  0.00  0.00    +0.110 C 
BRANCH  36  37
ATOM     37  C   UNL     1     -34.666  22.893   5.665  0.00  0.00    +0.012 C 
ATOM     38  C   UNL     1     -35.077  21.438   5.823  0.00  0.00    +0.001 C 
ENDBRANCH  36  37
ENDBRANCH  35  36
ENDBRANCH  33  35
ENDBRANCH   3  33
TORSDOF 14
ENDMDL
MODEL 2
REMARK VINA RESULT:      -5.8      0.100      7.445
REMARK  Name = 60202116
REMARK  14 active torsions:
REMARK  status: ('A' for Active; 'I' for Inactive)
REMARK    1  A    between atoms: C_1  and  C_7
REMARK    2  A    between atoms: C_2  and  C_15
REMARK    3  A    between atoms: C_3  and  O_33
REMARK    4  A    between atoms: C_4  and  O_27
REMARK    5  A    between atoms: C_5  and  O_25
REMARK    6  A    between atoms: C_6  and  O_23
REMARK    7  A    between atoms: C_12  and  O_13
REMARK    8  A    between atoms: C_20  and  O_21
REMARK    9  A    between atoms: O_27  and  C_29
REMARK   10  A    between atoms: C_29  and  C_30
REMARK   11  A    between atoms: C_30  and  C_31
REMARK   12  A    between atoms: O_33  and  C_35
REMARK   13  A    between atoms: C_35  and  C_36
REMARK   14  A    between atoms: C_36  and  C_37
REMARK                            x       y       z     vdW  Elec       q    Type
REMARK                         _______ _______ _______ _____ _____    ______ ____
ROOT
ATOM      1  C   UNL     1     -35.421  25.327   2.142  0.00  0.00    +0.074 A 
ATOM      2  C   UNL     1     -34.750  28.030   1.987  0.00  0.00    +0.074 A 
ATOM      3  C   UNL     1     -34.460  27.304   3.143  0.00  0.00    +0.186 A 
ATOM      4  C   UNL     1     -34.796  25.952   3.220  0.00  0.00    +0.186 A 
ATOM      5  C   UNL     1     -35.375  27.405   0.910  0.00  0.00    +0.171 A 
ATOM      6  C   UNL     1     -35.711  26.053   0.986  0.00  0.00    +0.171 A 
ENDROOT
BRANCH   1   7
ATOM      7  C   UNL     1     -35.770  23.919   2.220  0.00  0.00    +0.006 C 
ATOM      8  C   UNL     1     -34.808  22.946   1.954  0.00  0.00    +0.003 C 
ATOM      9  C   UNL     1     -37.069  23.542   2.562  0.00  0.00    +0.003 C 
ATOM     10  C   UNL     1     -35.143  21.595   2.030  0.00  0.00    +0.037 C 
ATOM     11  C   UNL     1     -37.404  22.190   2.639  0.00  0.00    +0.037 C 
ATOM     12  C   UNL     1     -36.442  21.216   2.373  0.00  0.00    +0.134 C 
BRANCH  12  13
ATOM     13  O   UNL     1     -36.769  19.898   2.449  0.00  0.00    -0.506 OA
ATOM     14  H   UNL     1     -37.648  19.622   2.273  0.00  0.00    +0.292 HD
ENDBRANCH  12  13
ENDBRANCH   1   7
BRANCH   2  15
ATOM     15  C   UNL     1     -34.398  29.437   1.907  0.00  0.00    +0.006 C 
ATOM     16  C   UNL     1     -35.252  30.400   2.443  0.00  0.00    +0.003 C 
ATOM     17  C   UNL     1     -33.205  29.824   1.295  0.00  0.00    +0.003 C 
ATOM     18  C   UNL     1     -34.914  31.752   2.368  0.00  0.00    +0.037 C 
ATOM     19  C   UNL     1     -32.867  31.175   1.220  0.00  0.00    +0.037 C 
ATOM     20  C   UNL     1     -33.721  32.139   1.757  0.00  0.00    +0.134 C 
BRANCH  20  21
ATOM     21  O   UNL     1     -33.390  33.457   1.684  0.00  0.00    -0.506 OA
ATOM     22  H   UNL     1     -33.942  34.101   2.081  0.00  0.00    +0.292 HD
ENDBRANCH  20  21
ENDBRANCH   2  15
BRANCH   6  23
ATOM     23  O   UNL     1     -36.321  25.454  -0.079  0.00  0.00    -0.503 OA
ATOM     24  H   UNL     1     -36.943  24.768   0.063  0.00  0.00    +0.292 HD
ENDBRANCH   6  23
BRANCH   5  25
ATOM     25  O   UNL     1     -35.663  28.101  -0.229  0.00  0.00    -0.503 OA
ATOM     26  H   UNL     1     -35.232  27.883  -1.032  0.00  0.00    +0.292 HD
ENDBRANCH   5  25
BRANCH   4  27
ATOM     27  O   UNL     1     -34.507  25.255   4.358  0.00  0.00    -0.421 OA
BRANCH  27  29
ATOM     28  O   UNL     1     -36.030  26.307   5.786  0.00  0.00    -0.250 OA
ATOM     29  C   UNL     1     -35.524  25.291   5.327  0.00  0.00    +0.322 C 
BRANCH  29  30
ATOM     30  C   UNL     1     -35.895  23.877   5.714  0.00  0.00    +0.110 C 
BRANCH  30  31
ATOM     31  C   UNL     1     -34.699  22.932   5.637  0.00  0.00    +0.012 C 
ATOM     32  C   UNL     1     -35.116  21.485   5.845  0.00  0.00    +0.001 C 
ENDBRANCH  30  31
ENDBRANCH  29  30
ENDBRANCH  27  29
ENDBRANCH   4  27
BRANCH   3  33
ATOM     33  O   UNL     1     -33.837  27.916   4.232  0.00  0.00    -0.421 OA
BRANCH  33  35
ATOM     34  O   UNL     1     -31.787  27.092   3.464  0.00  0.00    -0.250 OA
ATOM     35  C   UNL     1     -32.447  27.834   4.179  0.00  0.00    +0.322 C 
BRANCH  35  36
ATOM     36  C   UNL     1     -31.879  28.831   5.166  0.00  0.00    +0.110 C 
BRANCH  36  37
ATOM     37  C   UNL     1     -32.423  30.238   4.933  0.00  0.00    +0.012 C 
ATOM     38  C   UNL     1     -31.305  31.227   4.653  0.00  0.00    +0.001 C 
ENDBRANCH  36  37
ENDBRANCH  35  36
ENDBRANCH  33  35
ENDBRANCH   3  33
TORSDOF 14
ENDMDL
MODEL 3
REMARK VINA RESULT:      -5.2      1.805      7.090
REMARK  Name = 60202116
REMARK  14 active torsions:
REMARK  status: ('A' for Active; 'I' for Inactive)
REMARK    1  A    between atoms: C_1  and  C_7
REMARK    2  A    between atoms: C_2  and  C_15
REMARK    3  A    between atoms: C_3  and  O_33
REMARK    4  A    between atoms: C_4  and  O_27
REMARK    5  A    between atoms: C_5  and  O_25
REMARK    6  A    between atoms: C_6  and  O_23
REMARK    7  A    between atoms: C_12  and  O_13
REMARK    8  A    between atoms: C_20  and  O_21
REMARK    9  A    between atoms: O_27  and  C_29
REMARK   10  A    between atoms: C_29  and  C_30
REMARK   11  A    between atoms: C_30  and  C_31
REMARK   12  A    between atoms: O_33  and  C_35
REMARK   13  A    between atoms: C_35  and  C_36
REMARK   14  A    between atoms: C_36  and  C_37
REMARK                            x       y       z     vdW  Elec       q    Type
REMARK                         _______ _______ _______ _____ _____    ______ ____
ROOT
ATOM      1  C   UNL     1     -35.456  25.736   3.338  0.00  0.00    +0.074 A 
ATOM      2  C   UNL     1     -35.543  28.254   2.141  0.00  0.00    +0.074 A 
ATOM      3  C   UNL     1     -34.414  27.863   2.862  0.00  0.00    +0.186 A 
ATOM      4  C   UNL     1     -34.371  26.604   3.461  0.00  0.00    +0.186 A 
ATOM      5  C   UNL     1     -36.627  27.387   2.018  0.00  0.00    +0.171 A 
ATOM      6  C   UNL     1     -36.584  26.127   2.616  0.00  0.00    +0.171 A 
ENDROOT
BRANCH   1   7
ATOM      7  C   UNL     1     -35.412  24.424   3.959  0.00  0.00    +0.006 C 
ATOM      8  C   UNL     1     -35.151  23.294   3.185  0.00  0.00    +0.003 C 
ATOM      9  C   UNL     1     -35.630  24.296   5.331  0.00  0.00    +0.003 C 
ATOM     10  C   UNL     1     -35.108  22.035   3.783  0.00  0.00    +0.037 C 
ATOM     11  C   UNL     1     -35.586  23.036   5.928  0.00  0.00    +0.037 C 
ATOM     12  C   UNL     1     -35.325  21.905   5.155  0.00  0.00    +0.134 C 
BRANCH  12  13
ATOM     13  O   UNL     1     -35.282  20.677   5.738  0.00  0.00    -0.506 OA
ATOM     14  H   UNL     1     -35.780  20.509   6.515  0.00  0.00    +0.292 HD
ENDBRANCH  12  13
ENDBRANCH   1   7
BRANCH   2  15
ATOM     15  C   UNL     1     -35.586  29.564   1.516  0.00  0.00    +0.006 C 
ATOM     16  C   UNL     1     -35.230  29.709   0.175  0.00  0.00    +0.003 C 
ATOM     17  C   UNL     1     -35.987  30.677   2.256  0.00  0.00    +0.003 C 
ATOM     18  C   UNL     1     -35.275  30.968  -0.426  0.00  0.00    +0.037 C 
ATOM     19  C   UNL     1     -36.031  31.935   1.655  0.00  0.00    +0.037 C 
ATOM     20  C   UNL     1     -35.675  32.080   0.314  0.00  0.00    +0.134 C 
BRANCH  20  21
ATOM     21  O   UNL     1     -35.719  33.307  -0.272  0.00  0.00    -0.506 OA
ATOM     22  H   UNL     1     -35.467  34.068   0.213  0.00  0.00    +0.292 HD
ENDBRANCH  20  21
ENDBRANCH   2  15
BRANCH   6  23
ATOM     23  O   UNL     1     -37.653  25.288   2.485  0.00  0.00    -0.503 OA
ATOM     24  H   UNL     1     -37.671  24.656   1.794  0.00  0.00    +0.292 HD
ENDBRANCH   6  23
BRANCH   5  25
ATOM     25  O   UNL     1     -37.737  27.754   1.313  0.00  0.00    -0.503 OA
ATOM     26  H   UNL     1     -37.877  27.415   0.450  0.00  0.00    +0.292 HD
ENDBRANCH   5  25
BRANCH   4  27
ATOM     27  O   UNL     1     -33.261  26.235   4.164  0.00  0.00    -0.421 OA
BRANCH  27  29
ATOM     28  O   UNL     1     -33.909  26.709   6.360  0.00  0.00    -0.250 OA
ATOM     29  C   UNL     1     -33.142  26.860   5.418  0.00  0.00    +0.322 C 
BRANCH  29  30
ATOM     30  C   UNL     1     -31.917  27.747   5.419  0.00  0.00    +0.110 C 
BRANCH  30  31
ATOM     31  C   UNL     1     -31.880  28.667   6.636  0.00  0.00    +0.012 C 
ATOM     32  C   UNL     1     -31.799  30.129   6.229  0.00  0.00    +0.001 C 
ENDBRANCH  30  31
ENDBRANCH  29  30
ENDBRANCH  27  29
ENDBRANCH   4  27
BRANCH   3  33
ATOM     33  O   UNL     1     -33.321  28.721   2.997  0.00  0.00    -0.421 OA
BRANCH  33  35
ATOM     34  O   UNL     1     -32.174  27.626   1.278  0.00  0.00    -0.250 OA
ATOM     35  C   UNL     1     -32.423  28.627   1.936  0.00  0.00    +0.322 C 
BRANCH  35  36
ATOM     36  C   UNL     1     -31.798  29.989   1.728  0.00  0.00    +0.110 C 
BRANCH  36  37
ATOM     37  C   UNL     1     -32.336  31.021   2.716  0.00  0.00    +0.012 C 
ATOM     38  C   UNL     1     -32.410  32.404   2.091  0.00  0.00    +0.001 C 
ENDBRANCH  36  37
ENDBRANCH  35  36
ENDBRANCH  33  35
ENDBRANCH   3  33
TORSDOF 14
ENDMDL
MODEL 4
REMARK VINA RESULT:      -5.2      1.298      7.339
REMARK  Name = 60202116
REMARK  14 active torsions:
REMARK  status: ('A' for Active; 'I' for Inactive)
REMARK    1  A    between atoms: C_1  and  C_7
REMARK    2  A    between atoms: C_2  and  C_15
REMARK    3  A    between atoms: C_3  and  O_33
REMARK    4  A    between atoms: C_4  and  O_27
REMARK    5  A    between atoms: C_5  and  O_25
REMARK    6  A    between atoms: C_6  and  O_23
REMARK    7  A    between atoms: C_12  and  O_13
REMARK    8  A    between atoms: C_20  and  O_21
REMARK    9  A    between atoms: O_27  and  C_29
REMARK   10  A    between atoms: C_29  and  C_30
REMARK   11  A    between atoms: C_30  and  C_31
REMARK   12  A    between atoms: O_33  and  C_35
REMARK   13  A    between atoms: C_35  and  C_36
REMARK   14  A    between atoms: C_36  and  C_37
REMARK                            x       y       z     vdW  Elec       q    Type
REMARK                         _______ _______ _______ _____ _____    ______ ____
ROOT
ATOM      1  C   UNL     1     -35.307  26.596   2.187  0.00  0.00    +0.074 A 
ATOM      2  C   UNL     1     -33.767  28.911   1.956  0.00  0.00    +0.074 A 
ATOM      3  C   UNL     1     -33.981  28.337   3.211  0.00  0.00    +0.186 A 
ATOM      4  C   UNL     1     -34.752  27.180   3.325  0.00  0.00    +0.186 A 
ATOM      5  C   UNL     1     -34.322  28.327   0.819  0.00  0.00    +0.171 A 
ATOM      6  C   UNL     1     -35.092  27.169   0.934  0.00  0.00    +0.171 A 
ENDROOT
BRANCH   1   7
ATOM      7  C   UNL     1     -36.108  25.390   2.305  0.00  0.00    +0.006 C 
ATOM      8  C   UNL     1     -35.585  24.163   1.898  0.00  0.00    +0.003 C 
ATOM      9  C   UNL     1     -37.400  25.461   2.827  0.00  0.00    +0.003 C 
ATOM     10  C   UNL     1     -36.355  23.005   2.012  0.00  0.00    +0.037 C 
ATOM     11  C   UNL     1     -38.168  24.302   2.943  0.00  0.00    +0.037 C 
ATOM     12  C   UNL     1     -37.646  23.074   2.535  0.00  0.00    +0.134 C 
BRANCH  12  13
ATOM     13  O   UNL     1     -38.397  21.945   2.648  0.00  0.00    -0.506 OA
ATOM     14  H   UNL     1     -39.303  21.959   2.408  0.00  0.00    +0.292 HD
ENDBRANCH  12  13
ENDBRANCH   1   7
BRANCH   2  15
ATOM     15  C   UNL     1     -32.964  30.114   1.837  0.00  0.00    +0.006 C 
ATOM     16  C   UNL     1     -31.630  30.025   1.437  0.00  0.00    +0.003 C 
ATOM     17  C   UNL     1     -33.526  31.360   2.119  0.00  0.00    +0.003 C 
ATOM     18  C   UNL     1     -30.859  31.182   1.319  0.00  0.00    +0.037 C 
ATOM     19  C   UNL     1     -32.755  32.515   2.002  0.00  0.00    +0.037 C 
ATOM     20  C   UNL     1     -31.421  32.427   1.601  0.00  0.00    +0.134 C 
BRANCH  20  21
ATOM     21  O   UNL     1     -30.669  33.555   1.486  0.00  0.00    -0.506 OA
ATOM     22  H   UNL     1     -29.771  33.495   1.229  0.00  0.00    +0.292 HD
ENDBRANCH  20  21
ENDBRANCH   2  15
BRANCH   6  23
ATOM     23  O   UNL     1     -35.628  26.608  -0.191  0.00  0.00    -0.503 OA
ATOM     24  H   UNL     1     -36.264  25.925  -0.115  0.00  0.00    +0.292 HD
ENDBRANCH   6  23
BRANCH   5  25
ATOM     25  O   UNL     1     -34.119  28.874  -0.416  0.00  0.00    -0.503 OA
ATOM     26  H   UNL     1     -34.843  29.224  -0.897  0.00  0.00    +0.292 HD
ENDBRANCH   5  25
BRANCH   4  27
ATOM     27  O   UNL     1     -34.954  26.631   4.559  0.00  0.00    -0.421 OA
BRANCH  27  29
ATOM     28  O   UNL     1     -33.155  25.157   4.320  0.00  0.00    -0.250 OA
ATOM     29  C   UNL     1     -34.259  25.427   4.771  0.00  0.00    +0.322 C 
BRANCH  29  30
ATOM     30  C   UNL     1     -35.094  24.518   5.646  0.00  0.00    +0.110 C 
BRANCH  30  31
ATOM     31  C   UNL     1     -34.816  23.044   5.367  0.00  0.00    +0.012 C 
ATOM     32  C   UNL     1     -35.500  22.145   6.383  0.00  0.00    +0.001 C 
ENDBRANCH  30  31
ENDBRANCH  29  30
ENDBRANCH  27  29
ENDBRANCH   4  27
BRANCH   3  33
ATOM     33  O   UNL     1     -33.435  28.911   4.359  0.00  0.00    -0.421 OA
BRANCH  33  35
ATOM     34  O   UNL     1     -31.505  27.645   3.981  0.00  0.00    -0.250 OA
ATOM     35  C   UNL     1     -32.161  28.429   4.654  0.00  0.00    +0.322 C 
BRANCH  35  36
ATOM     36  C   UNL     1     -31.718  29.043   5.964  0.00  0.00    +0.110 C 
BRANCH  36  37
ATOM     37  C   UNL     1     -31.959  30.550   5.997  0.00  0.00    +0.012 C 
ATOM     38  C   UNL     1     -30.982  31.290   5.098  0.00  0.00    +0.001 C 
ENDBRANCH  36  37
ENDBRANCH  35  36
ENDBRANCH  33  35
ENDBRANCH   3  33
TORSDOF 14
ENDMDL
MODEL 5
REMARK VINA RESULT:      -5.2      1.277      1.835
REMARK  Name = 60202116
REMARK  14 active torsions:
REMARK  status: ('A' for Active; 'I' for Inactive)
REMARK    1  A    between atoms: C_1  and  C_7
REMARK    2  A    between atoms: C_2  and  C_15
REMARK    3  A    between atoms: C_3  and  O_33
REMARK    4  A    between atoms: C_4  and  O_27
REMARK    5  A    between atoms: C_5  and  O_25
REMARK    6  A    between atoms: C_6  and  O_23
REMARK    7  A    between atoms: C_12  and  O_13
REMARK    8  A    between atoms: C_20  and  O_21
REMARK    9  A    between atoms: O_27  and  C_29
REMARK   10  A    between atoms: C_29  and  C_30
REMARK   11  A    between atoms: C_30  and  C_31
REMARK   12  A    between atoms: O_33  and  C_35
REMARK   13  A    between atoms: C_35  and  C_36
REMARK   14  A    between atoms: C_36  and  C_37
REMARK                            x       y       z     vdW  Elec       q    Type
REMARK                         _______ _______ _______ _____ _____    ______ ____
ROOT
ATOM      1  C   UNL     1     -33.828  28.864   2.052  0.00  0.00    +0.074 A 
ATOM      2  C   UNL     1     -35.380  26.553   2.230  0.00  0.00    +0.074 A 
ATOM      3  C   UNL     1     -34.838  27.120   3.384  0.00  0.00    +0.186 A 
ATOM      4  C   UNL     1     -34.062  28.276   3.295  0.00  0.00    +0.186 A 
ATOM      5  C   UNL     1     -35.146  27.141   0.988  0.00  0.00    +0.171 A 
ATOM      6  C   UNL     1     -34.370  28.297   0.899  0.00  0.00    +0.171 A 
ENDROOT
BRANCH   1   7
ATOM      7  C   UNL     1     -33.021  30.068   1.958  0.00  0.00    +0.006 C 
ATOM      8  C   UNL     1     -31.697  29.988   1.528  0.00  0.00    +0.003 C 
ATOM      9  C   UNL     1     -33.572  31.304   2.298  0.00  0.00    +0.003 C 
ATOM     10  C   UNL     1     -30.923  31.144   1.437  0.00  0.00    +0.037 C 
ATOM     11  C   UNL     1     -32.797  32.460   2.205  0.00  0.00    +0.037 C 
ATOM     12  C   UNL     1     -31.472  32.381   1.776  0.00  0.00    +0.134 C 
BRANCH  12  13
ATOM     13  O   UNL     1     -30.718  33.509   1.686  0.00  0.00    -0.506 OA
ATOM     14  H   UNL     1     -29.785  33.445   1.610  0.00  0.00    +0.292 HD
ENDBRANCH  12  13
ENDBRANCH   1   7
BRANCH   2  15
ATOM     15  C   UNL     1     -36.190  25.351   2.323  0.00  0.00    +0.006 C 
ATOM     16  C   UNL     1     -37.488  25.423   2.829  0.00  0.00    +0.003 C 
ATOM     17  C   UNL     1     -35.671  24.125   1.905  0.00  0.00    +0.003 C 
ATOM     18  C   UNL     1     -38.267  24.269   2.916  0.00  0.00    +0.037 C 
ATOM     19  C   UNL     1     -36.449  22.972   1.993  0.00  0.00    +0.037 C 
ATOM     20  C   UNL     1     -37.748  23.044   2.498  0.00  0.00    +0.134 C 
BRANCH  20  21
ATOM     21  O   UNL     1     -38.507  21.918   2.583  0.00  0.00    -0.506 OA
ATOM     22  H   UNL     1     -38.797  21.610   3.419  0.00  0.00    +0.292 HD
ENDBRANCH  20  21
ENDBRANCH   2  15
BRANCH   6  23
ATOM     23  O   UNL     1     -34.151  28.862  -0.325  0.00  0.00    -0.503 OA
ATOM     24  H   UNL     1     -34.149  28.327  -1.095  0.00  0.00    +0.292 HD
ENDBRANCH   6  23
BRANCH   5  25
ATOM     25  O   UNL     1     -35.671  26.599  -0.150  0.00  0.00    -0.503 OA
ATOM     26  H   UNL     1     -35.108  26.372  -0.863  0.00  0.00    +0.292 HD
ENDBRANCH   5  25
BRANCH   4  27
ATOM     27  O   UNL     1     -33.538  28.819   4.432  0.00  0.00    -0.421 OA
BRANCH  27  29
ATOM     28  O   UNL     1     -31.586  27.585   4.068  0.00  0.00    -0.250 OA
ATOM     29  C   UNL     1     -32.220  28.414   4.707  0.00  0.00    +0.322 C 
BRANCH  29  30
ATOM     30  C   UNL     1     -31.710  29.163   5.918  0.00  0.00    +0.110 C 
BRANCH  30  31
ATOM     31  C   UNL     1     -31.817  30.675   5.740  0.00  0.00    +0.012 C 
ATOM     32  C   UNL     1     -30.574  31.248   5.081  0.00  0.00    +0.001 C 
ENDBRANCH  30  31
ENDBRANCH  29  30
ENDBRANCH  27  29
ENDBRANCH   4  27
BRANCH   3  33
ATOM     33  O   UNL     1     -35.062  26.541   4.635  0.00  0.00    -0.421 OA
BRANCH  33  35
ATOM     34  O   UNL     1     -33.255  25.080   4.366  0.00  0.00    -0.250 OA
ATOM     35  C   UNL     1     -34.361  25.351   4.815  0.00  0.00    +0.322 C 
BRANCH  35  36
ATOM     36  C   UNL     1     -35.207  24.433   5.670  0.00  0.00    +0.110 C 
BRANCH  36  37
ATOM     37  C   UNL     1     -34.990  22.964   5.317  0.00  0.00    +0.012 C 
ATOM     38  C   UNL     1     -35.353  22.053   6.478  0.00  0.00    +0.001 C 
ENDBRANCH  36  37
ENDBRANCH  35  36
ENDBRANCH  33  35
ENDBRANCH   3  33
TORSDOF 14
ENDMDL
MODEL 6
REMARK VINA RESULT:      -5.0      2.010      8.181
REMARK  Name = 60202116
REMARK  14 active torsions:
REMARK  status: ('A' for Active; 'I' for Inactive)
REMARK    1  A    between atoms: C_1  and  C_7
REMARK    2  A    between atoms: C_2  and  C_15
REMARK    3  A    between atoms: C_3  and  O_33
REMARK    4  A    between atoms: C_4  and  O_27
REMARK    5  A    between atoms: C_5  and  O_25
REMARK    6  A    between atoms: C_6  and  O_23
REMARK    7  A    between atoms: C_12  and  O_13
REMARK    8  A    between atoms: C_20  and  O_21
REMARK    9  A    between atoms: O_27  and  C_29
REMARK   10  A    between atoms: C_29  and  C_30
REMARK   11  A    between atoms: C_30  and  C_31
REMARK   12  A    between atoms: O_33  and  C_35
REMARK   13  A    between atoms: C_35  and  C_36
REMARK   14  A    between atoms: C_36  and  C_37
REMARK                            x       y       z     vdW  Elec       q    Type
REMARK                         _______ _______ _______ _____ _____    ______ ____
ROOT
ATOM      1  C   UNL     1     -35.257  25.790   3.433  0.00  0.00    +0.074 A 
ATOM      2  C   UNL     1     -35.153  28.358   2.348  0.00  0.00    +0.074 A 
ATOM      3  C   UNL     1     -36.124  27.454   1.912  0.00  0.00    +0.186 A 
ATOM      4  C   UNL     1     -36.175  26.170   2.454  0.00  0.00    +0.186 A 
ATOM      5  C   UNL     1     -34.236  27.977   3.326  0.00  0.00    +0.171 A 
ATOM      6  C   UNL     1     -34.288  26.693   3.869  0.00  0.00    +0.171 A 
ENDROOT
BRANCH   1   7
ATOM      7  C   UNL     1     -35.311  24.453   4.000  0.00  0.00    +0.006 C 
ATOM      8  C   UNL     1     -35.592  24.281   5.355  0.00  0.00    +0.003 C 
ATOM      9  C   UNL     1     -35.081  23.343   3.187  0.00  0.00    +0.003 C 
ATOM     10  C   UNL     1     -35.644  22.998   5.898  0.00  0.00    +0.037 C 
ATOM     11  C   UNL     1     -35.135  22.059   3.731  0.00  0.00    +0.037 C 
ATOM     12  C   UNL     1     -35.416  21.886   5.086  0.00  0.00    +0.134 C 
BRANCH  12  13
ATOM     13  O   UNL     1     -35.468  20.634   5.615  0.00  0.00    -0.506 OA
ATOM     14  H   UNL     1     -35.744  19.912   5.085  0.00  0.00    +0.292 HD
ENDBRANCH  12  13
ENDBRANCH   1   7
BRANCH   2  15
ATOM     15  C   UNL     1     -35.101  29.695   1.785  0.00  0.00    +0.006 C 
ATOM     16  C   UNL     1     -34.281  29.957   0.687  0.00  0.00    +0.003 C 
ATOM     17  C   UNL     1     -35.872  30.717   2.340  0.00  0.00    +0.003 C 
ATOM     18  C   UNL     1     -34.233  31.241   0.143  0.00  0.00    +0.037 C 
ATOM     19  C   UNL     1     -35.822  32.001   1.797  0.00  0.00    +0.037 C 
ATOM     20  C   UNL     1     -35.003  32.262   0.699  0.00  0.00    +0.134 C 
BRANCH  20  21
ATOM     21  O   UNL     1     -34.956  33.515   0.169  0.00  0.00    -0.506 OA
ATOM     22  H   UNL     1     -35.711  34.069   0.208  0.00  0.00    +0.292 HD
ENDBRANCH  20  21
ENDBRANCH   2  15
BRANCH   6  23
ATOM     23  O   UNL     1     -33.384  26.336   4.829  0.00  0.00    -0.503 OA
ATOM     24  H   UNL     1     -33.366  25.456   5.152  0.00  0.00    +0.292 HD
ENDBRANCH   6  23
BRANCH   5  25
ATOM     25  O   UNL     1     -33.283  28.850   3.766  0.00  0.00    -0.503 OA
ATOM     26  H   UNL     1     -33.516  29.735   3.966  0.00  0.00    +0.292 HD
ENDBRANCH   5  25
BRANCH   4  27
ATOM     27  O   UNL     1     -37.129  25.297   2.017  0.00  0.00    -0.421 OA
BRANCH  27  29
ATOM     28  O   UNL     1     -38.871  26.400   3.118  0.00  0.00    -0.250 OA
ATOM     29  C   UNL     1     -38.341  25.370   2.724  0.00  0.00    +0.322 C 
BRANCH  29  30
ATOM     30  C   UNL     1     -38.886  23.973   2.924  0.00  0.00    +0.110 C 
BRANCH  30  31
ATOM     31  C   UNL     1     -38.373  23.003   1.864  0.00  0.00    +0.012 C 
ATOM     32  C   UNL     1     -39.068  21.655   1.957  0.00  0.00    +0.001 C 
ENDBRANCH  30  31
ENDBRANCH  29  30
ENDBRANCH  27  29
ENDBRANCH   4  27
BRANCH   3  33
ATOM     33  O   UNL     1     -37.047  27.820   0.931  0.00  0.00    -0.421 OA
BRANCH  33  35
ATOM     34  O   UNL     1     -35.819  26.697  -0.713  0.00  0.00    -0.250 OA
ATOM     35  C   UNL     1     -36.587  27.582  -0.363  0.00  0.00    +0.322 C 
BRANCH  35  36
ATOM     36  C   UNL     1     -37.205  28.617  -1.278  0.00  0.00    +0.110 C 
BRANCH  36  37
ATOM     37  C   UNL     1     -38.056  29.624  -0.508  0.00  0.00    +0.012 C 
ATOM     38  C   UNL     1     -37.968  31.011  -1.122  0.00  0.00    +0.001 C 
ENDBRANCH  36  37
ENDBRANCH  35  36
ENDBRANCH  33  35
ENDBRANCH   3  33
TORSDOF 14
ENDMDL
MODEL 7
REMARK VINA RESULT:      -5.0      3.714      8.464
REMARK  Name = 60202116
REMARK  14 active torsions:
REMARK  status: ('A' for Active; 'I' for Inactive)
REMARK    1  A    between atoms: C_1  and  C_7
REMARK    2  A    between atoms: C_2  and  C_15
REMARK    3  A    between atoms: C_3  and  O_33
REMARK    4  A    between atoms: C_4  and  O_27
REMARK    5  A    between atoms: C_5  and  O_25
REMARK    6  A    between atoms: C_6  and  O_23
REMARK    7  A    between atoms: C_12  and  O_13
REMARK    8  A    between atoms: C_20  and  O_21
REMARK    9  A    between atoms: O_27  and  C_29
REMARK   10  A    between atoms: C_29  and  C_30
REMARK   11  A    between atoms: C_30  and  C_31
REMARK   12  A    between atoms: O_33  and  C_35
REMARK   13  A    between atoms: C_35  and  C_36
REMARK   14  A    between atoms: C_36  and  C_37
REMARK                            x       y       z     vdW  Elec       q    Type
REMARK                         _______ _______ _______ _____ _____    ______ ____
ROOT
ATOM      1  C   UNL     1     -35.215  20.502   0.943  0.00  0.00    +0.074 A 
ATOM      2  C   UNL     1     -36.991  22.576   1.518  0.00  0.00    +0.074 A 
ATOM      3  C   UNL     1     -35.689  22.866   1.110  0.00  0.00    +0.186 A 
ATOM      4  C   UNL     1     -34.800  21.829   0.823  0.00  0.00    +0.186 A 
ATOM      5  C   UNL     1     -37.405  21.250   1.639  0.00  0.00    +0.171 A 
ATOM      6  C   UNL     1     -36.517  20.213   1.351  0.00  0.00    +0.171 A 
ENDROOT
BRANCH   1   7
ATOM      7  C   UNL     1     -34.292  19.422   0.644  0.00  0.00    +0.006 C 
ATOM      8  C   UNL     1     -34.329  18.799  -0.603  0.00  0.00    +0.003 C 
ATOM      9  C   UNL     1     -33.367  19.009   1.604  0.00  0.00    +0.003 C 
ATOM     10  C   UNL     1     -33.442  17.762  -0.891  0.00  0.00    +0.037 C 
ATOM     11  C   UNL     1     -32.479  17.973   1.315  0.00  0.00    +0.037 C 
ATOM     12  C   UNL     1     -32.516  17.349   0.068  0.00  0.00    +0.134 C 
BRANCH  12  13
ATOM     13  O   UNL     1     -31.649  16.339  -0.212  0.00  0.00    -0.506 OA
ATOM     14  H   UNL     1     -31.749  15.841  -1.001  0.00  0.00    +0.292 HD
ENDBRANCH  12  13
ENDBRANCH   1   7
BRANCH   2  15
ATOM     15  C   UNL     1     -37.916  23.655   1.815  0.00  0.00    +0.006 C 
ATOM     16  C   UNL     1     -38.636  24.259   0.784  0.00  0.00    +0.003 C 
ATOM     17  C   UNL     1     -38.086  24.086   3.131  0.00  0.00    +0.003 C 
ATOM     18  C   UNL     1     -39.527  25.294   1.069  0.00  0.00    +0.037 C 
ATOM     19  C   UNL     1     -38.976  25.122   3.416  0.00  0.00    +0.037 C 
ATOM     20  C   UNL     1     -39.697  25.725   2.385  0.00  0.00    +0.134 C 
BRANCH  20  21
ATOM     21  O   UNL     1     -40.566  26.735   2.664  0.00  0.00    -0.506 OA
ATOM     22  H   UNL     1     -41.460  26.671   2.392  0.00  0.00    +0.292 HD
ENDBRANCH  20  21
ENDBRANCH   2  15
BRANCH   6  23
ATOM     23  O   UNL     1     -36.938  18.919   1.473  0.00  0.00    -0.503 OA
ATOM     24  H   UNL     1     -36.731  18.295   0.806  0.00  0.00    +0.292 HD
ENDBRANCH   6  23
BRANCH   5  25
ATOM     25  O   UNL     1     -38.677  20.950   2.034  0.00  0.00    -0.503 OA
ATOM     26  H   UNL     1     -39.388  21.036   1.430  0.00  0.00    +0.292 HD
ENDBRANCH   5  25
BRANCH   4  27
ATOM     27  O   UNL     1     -33.529  22.128   0.426  0.00  0.00    -0.421 OA
BRANCH  27  29
ATOM     28  O   UNL     1     -34.288  22.347  -1.775  0.00  0.00    -0.250 OA
ATOM     29  C   UNL     1     -33.375  22.239  -0.967  0.00  0.00    +0.322 C 
BRANCH  29  30
ATOM     30  C   UNL     1     -31.902  22.205  -1.309  0.00  0.00    +0.110 C 
BRANCH  30  31
ATOM     31  C   UNL     1     -31.189  21.030  -0.646  0.00  0.00    +0.012 C 
ATOM     32  C   UNL     1     -30.647  20.052  -1.675  0.00  0.00    +0.001 C 
ENDBRANCH  30  31
ENDBRANCH  29  30
ENDBRANCH  27  29
ENDBRANCH   4  27
BRANCH   3  33
ATOM     33  O   UNL     1     -35.258  24.188   0.987  0.00  0.00    -0.421 OA
BRANCH  33  35
ATOM     34  O   UNL     1     -34.482  24.078   3.190  0.00  0.00    -0.250 OA
ATOM     35  C   UNL     1     -34.756  24.708   2.178  0.00  0.00    +0.322 C 
BRANCH  35  36
ATOM     36  C   UNL     1     -34.604  26.204   2.009  0.00  0.00    +0.110 C 
BRANCH  36  37
ATOM     37  C   UNL     1     -35.832  26.962   2.504  0.00  0.00    +0.012 C 
ATOM     38  C   UNL     1     -36.605  27.583   1.352  0.00  0.00    +0.001 C 
ENDBRANCH  36  37
ENDBRANCH  35  36
ENDBRANCH  33  35
ENDBRANCH   3  33
TORSDOF 14
ENDMDL
MODEL 8
REMARK VINA RESULT:      -5.0      3.754      7.905
REMARK  Name = 60202116
REMARK  14 active torsions:
REMARK  status: ('A' for Active; 'I' for Inactive)
REMARK    1  A    between atoms: C_1  and  C_7
REMARK    2  A    between atoms: C_2  and  C_15
REMARK    3  A    between atoms: C_3  and  O_33
REMARK    4  A    between atoms: C_4  and  O_27
REMARK    5  A    between atoms: C_5  and  O_25
REMARK    6  A    between atoms: C_6  and  O_23
REMARK    7  A    between atoms: C_12  and  O_13
REMARK    8  A    between atoms: C_20  and  O_21
REMARK    9  A    between atoms: O_27  and  C_29
REMARK   10  A    between atoms: C_29  and  C_30
REMARK   11  A    between atoms: C_30  and  C_31
REMARK   12  A    between atoms: O_33  and  C_35
REMARK   13  A    between atoms: C_35  and  C_36
REMARK   14  A    between atoms: C_36  and  C_37
REMARK                            x       y       z     vdW  Elec       q    Type
REMARK                         _______ _______ _______ _____ _____    ______ ____
ROOT
ATOM      1  C   UNL     1     -39.426  24.907   1.110  0.00  0.00    +0.074 A 
ATOM      2  C   UNL     1     -37.249  25.406   2.782  0.00  0.00    +0.074 A 
ATOM      3  C   UNL     1     -37.815  24.131   2.734  0.00  0.00    +0.186 A 
ATOM      4  C   UNL     1     -38.903  23.882   1.898  0.00  0.00    +0.186 A 
ATOM      5  C   UNL     1     -37.773  26.431   1.995  0.00  0.00    +0.171 A 
ATOM      6  C   UNL     1     -38.861  26.181   1.159  0.00  0.00    +0.171 A 
ENDROOT
BRANCH   1   7
ATOM      7  C   UNL     1     -40.559  24.648   0.238  0.00  0.00    +0.006 C 
ATOM      8  C   UNL     1     -41.843  24.557   0.773  0.00  0.00    +0.003 C 
ATOM      9  C   UNL     1     -40.360  24.491  -1.134  0.00  0.00    +0.003 C 
ATOM     10  C   UNL     1     -42.931  24.310  -0.065  0.00  0.00    +0.037 C 
ATOM     11  C   UNL     1     -41.448  24.244  -1.971  0.00  0.00    +0.037 C 
ATOM     12  C   UNL     1     -42.733  24.153  -1.437  0.00  0.00    +0.134 C 
BRANCH  12  13
ATOM     13  O   UNL     1     -43.794  23.913  -2.255  0.00  0.00    -0.506 OA
ATOM     14  H   UNL     1     -44.206  24.622  -2.708  0.00  0.00    +0.292 HD
ENDBRANCH  12  13
ENDBRANCH   1   7
BRANCH   2  15
ATOM     15  C   UNL     1     -36.116  25.665   3.651  0.00  0.00    +0.006 C 
ATOM     16  C   UNL     1     -34.834  25.771   3.111  0.00  0.00    +0.003 C 
ATOM     17  C   UNL     1     -36.308  25.811   5.026  0.00  0.00    +0.003 C 
ATOM     18  C   UNL     1     -33.744  26.022   3.946  0.00  0.00    +0.037 C 
ATOM     19  C   UNL     1     -35.218  26.062   5.859  0.00  0.00    +0.037 C 
ATOM     20  C   UNL     1     -33.937  26.168   5.319  0.00  0.00    +0.134 C 
BRANCH  20  21
ATOM     21  O   UNL     1     -32.874  26.413   6.133  0.00  0.00    -0.506 OA
ATOM     22  H   UNL     1     -32.938  26.240   7.052  0.00  0.00    +0.292 HD
ENDBRANCH  20  21
ENDBRANCH   2  15
BRANCH   6  23
ATOM     23  O   UNL     1     -39.361  27.195   0.392  0.00  0.00    -0.503 OA
ATOM     24  H   UNL     1     -39.114  28.082   0.569  0.00  0.00    +0.292 HD
ENDBRANCH   6  23
BRANCH   5  25
ATOM     25  O   UNL     1     -37.230  27.683   2.029  0.00  0.00    -0.503 OA
ATOM     26  H   UNL     1     -36.823  27.996   2.813  0.00  0.00    +0.292 HD
ENDBRANCH   5  25
BRANCH   4  27
ATOM     27  O   UNL     1     -39.446  22.630   1.863  0.00  0.00    -0.421 OA
BRANCH  27  29
ATOM     28  O   UNL     1     -38.095  21.981   0.069  0.00  0.00    -0.250 OA
ATOM     29  C   UNL     1     -39.143  21.906   0.696  0.00  0.00    +0.322 C 
BRANCH  29  30
ATOM     30  C   UNL     1     -40.317  21.022   0.339  0.00  0.00    +0.110 C 
BRANCH  30  31
ATOM     31  C   UNL     1     -40.382  20.736  -1.158  0.00  0.00    +0.012 C 
ATOM     32  C   UNL     1     -41.811  20.511  -1.623  0.00  0.00    +0.001 C 
ENDBRANCH  30  31
ENDBRANCH  29  30
ENDBRANCH  27  29
ENDBRANCH   4  27
BRANCH   3  33
ATOM     33  O   UNL     1     -37.304  23.096   3.519  0.00  0.00    -0.421 OA
BRANCH  33  35
ATOM     34  O   UNL     1     -35.760  22.646   1.820  0.00  0.00    -0.250 OA
ATOM     35  C   UNL     1     -36.174  22.499   2.962  0.00  0.00    +0.322 C 
BRANCH  35  36
ATOM     36  C   UNL     1     -35.534  21.627   4.021  0.00  0.00    +0.110 C 
BRANCH  36  37
ATOM     37  C   UNL     1     -34.910  22.454   5.141  0.00  0.00    +0.012 C 
ATOM     38  C   UNL     1     -35.495  22.088   6.495  0.00  0.00    +0.001 C 
ENDBRANCH  36  37
ENDBRANCH  35  36
ENDBRANCH  33  35
ENDBRANCH   3  33
TORSDOF 14
ENDMDL
MODEL 9
REMARK VINA RESULT:      -5.0      3.741      6.723
REMARK  Name = 60202116
REMARK  14 active torsions:
REMARK  status: ('A' for Active; 'I' for Inactive)
REMARK    1  A    between atoms: C_1  and  C_7
REMARK    2  A    between atoms: C_2  and  C_15
REMARK    3  A    between atoms: C_3  and  O_33
REMARK    4  A    between atoms: C_4  and  O_27
REMARK    5  A    between atoms: C_5  and  O_25
REMARK    6  A    between atoms: C_6  and  O_23
REMARK    7  A    between atoms: C_12  and  O_13
REMARK    8  A    between atoms: C_20  and  O_21
REMARK    9  A    between atoms: O_27  and  C_29
REMARK   10  A    between atoms: C_29  and  C_30
REMARK   11  A    between atoms: C_30  and  C_31
REMARK   12  A    between atoms: O_33  and  C_35
REMARK   13  A    between atoms: C_35  and  C_36
REMARK   14  A    between atoms: C_36  and  C_37
REMARK                            x       y       z     vdW  Elec       q    Type
REMARK                         _______ _______ _______ _____ _____    ______ ____
ROOT
ATOM      1  C   UNL     1     -37.039  22.599   1.486  0.00  0.00    +0.074 A 
ATOM      2  C   UNL     1     -35.245  20.541   0.910  0.00  0.00    +0.074 A 
ATOM      3  C   UNL     1     -34.852  21.872   0.761  0.00  0.00    +0.186 A 
ATOM      4  C   UNL     1     -35.749  22.901   1.048  0.00  0.00    +0.186 A 
ATOM      5  C   UNL     1     -36.534  20.240   1.346  0.00  0.00    +0.171 A 
ATOM      6  C   UNL     1     -37.431  21.268   1.634  0.00  0.00    +0.171 A 
ENDROOT
BRANCH   1   7
ATOM      7  C   UNL     1     -37.973  23.669   1.787  0.00  0.00    +0.006 C 
ATOM      8  C   UNL     1     -38.131  24.108   3.101  0.00  0.00    +0.003 C 
ATOM      9  C   UNL     1     -38.713  24.257   0.760  0.00  0.00    +0.003 C 
ATOM     10  C   UNL     1     -39.028  25.136   3.390  0.00  0.00    +0.037 C 
ATOM     11  C   UNL     1     -39.609  25.287   1.050  0.00  0.00    +0.037 C 
ATOM     12  C   UNL     1     -39.767  25.726   2.364  0.00  0.00    +0.134 C 
BRANCH  12  13
ATOM     13  O   UNL     1     -40.641  26.730   2.645  0.00  0.00    -0.506 OA
ATOM     14  H   UNL     1     -40.350  27.488   3.113  0.00  0.00    +0.292 HD
ENDBRANCH  12  13
ENDBRANCH   1   7
BRANCH   2  15
ATOM     15  C   UNL     1     -34.311  19.471   0.612  0.00  0.00    +0.006 C 
ATOM     16  C   UNL     1     -33.422  19.028   1.592  0.00  0.00    +0.003 C 
ATOM     17  C   UNL     1     -34.302  18.883  -0.654  0.00  0.00    +0.003 C 
ATOM     18  C   UNL     1     -32.526  17.998   1.307  0.00  0.00    +0.037 C 
ATOM     19  C   UNL     1     -33.406  17.853  -0.938  0.00  0.00    +0.037 C 
ATOM     20  C   UNL     1     -32.518  17.411   0.042  0.00  0.00    +0.134 C 
BRANCH  20  21
ATOM     21  O   UNL     1     -31.644  16.405  -0.236  0.00  0.00    -0.506 OA
ATOM     22  H   UNL     1     -30.780  16.606  -0.537  0.00  0.00    +0.292 HD
ENDBRANCH  20  21
ENDBRANCH   2  15
BRANCH   6  23
ATOM     23  O   UNL     1     -38.691  20.957   2.063  0.00  0.00    -0.503 OA
ATOM     24  H   UNL     1     -39.255  21.631   2.387  0.00  0.00    +0.292 HD
ENDBRANCH   6  23
BRANCH   5  25
ATOM     25  O   UNL     1     -36.933  18.943   1.499  0.00  0.00    -0.503 OA
ATOM     26  H   UNL     1     -36.294  18.264   1.589  0.00  0.00    +0.292 HD
ENDBRANCH   5  25
BRANCH   4  27
ATOM     27  O   UNL     1     -35.351  24.197   0.897  0.00  0.00    -0.421 OA
BRANCH  27  29
ATOM     28  O   UNL     1     -34.447  24.144   3.053  0.00  0.00    -0.250 OA
ATOM     29  C   UNL     1     -34.791  24.765   2.056  0.00  0.00    +0.322 C 
BRANCH  29  30
ATOM     30  C   UNL     1     -34.683  26.263   1.875  0.00  0.00    +0.110 C 
BRANCH  30  31
ATOM     31  C   UNL     1     -35.909  26.993   2.414  0.00  0.00    +0.012 C 
ATOM     32  C   UNL     1     -36.727  27.613   1.294  0.00  0.00    +0.001 C 
ENDBRANCH  30  31
ENDBRANCH  29  30
ENDBRANCH  27  29
ENDBRANCH   4  27
BRANCH   3  33
ATOM     33  O   UNL     1     -33.565  22.190   0.322  0.00  0.00    -0.421 OA
BRANCH  33  35
ATOM     34  O   UNL     1     -34.393  22.464  -1.848  0.00  0.00    -0.250 OA
ATOM     35  C   UNL     1     -33.471  22.277  -1.065  0.00  0.00    +0.322 C 
BRANCH  35  36
ATOM     36  C   UNL     1     -32.018  22.100  -1.449  0.00  0.00    +0.110 C 
BRANCH  36  37
ATOM     37  C   UNL     1     -31.292  21.145  -0.507  0.00  0.00    +0.012 C 
ATOM     38  C   UNL     1     -30.407  20.174  -1.271  0.00  0.00    +0.001 C 
ENDBRANCH  36  37
ENDBRANCH  35  36
ENDBRANCH  33  35
ENDBRANCH   3  33
TORSDOF 14
ENDMDL
