MODEL 1
REMARK VINA RESULT:      -7.0      0.000      0.000
REMARK  Name = 194828
REMARK  5 active torsions:
REMARK  status: ('A' for Active; 'I' for Inactive)
REMARK    1  A    between atoms: C_2  and  C_15
REMARK    2  A    between atoms: C_13  and  O_28
REMARK    3  A    between atoms: C_14  and  O_30
REMARK    4  A    between atoms: C_16  and  C_23
REMARK    5  A    between atoms: N_22  and  N_25
REMARK                            x       y       z     vdW  Elec       q    Type
REMARK                         _______ _______ _______ _____ _____    ______ ____
ROOT
ATOM      1  O   UNL     1     -36.805  26.661   1.534  0.00  0.00    -0.470 OA
ATOM      2  C   UNL     1     -35.938  24.034   2.486  0.00  0.00    +0.003 C 
ATOM      3  C   UNL     1     -35.004  25.216   2.326  0.00  0.00    +0.022 C 
ATOM      4  C   UNL     1     -37.391  24.453   2.396  0.00  0.00    +0.034 C 
ATOM      5  C   UNL     1     -35.486  26.440   1.848  0.00  0.00    +0.213 C 
ATOM      6  C   UNL     1     -37.733  25.721   1.916  0.00  0.00    +0.142 C 
ATOM      7  C   UNL     1     -33.641  25.098   2.640  0.00  0.00    +0.003 C 
ATOM      8  C   UNL     1     -38.415  23.573   2.781  0.00  0.00    +0.006 C 
ATOM      9  C   UNL     1     -34.619  27.521   1.665  0.00  0.00    +0.058 C 
ATOM     10  C   UNL     1     -39.075  26.096   1.797  0.00  0.00    +0.073 C 
ATOM     11  C   UNL     1     -32.778  26.180   2.463  0.00  0.00    +0.036 C 
ATOM     12  C   UNL     1     -39.754  23.952   2.670  0.00  0.00    +0.037 C 
ATOM     13  C   UNL     1     -33.266  27.389   1.973  0.00  0.00    +0.133 C 
ATOM     14  C   UNL     1     -40.083  25.211   2.175  0.00  0.00    +0.137 C 
ENDROOT
BRANCH   2  15
ATOM     15  C   UNL     1     -35.671  23.319   3.778  0.00  0.00    +0.004 C 
ATOM     16  C   UNL     1     -35.517  21.936   3.810  0.00  0.00    +0.055 C 
ATOM     17  C   UNL     1     -35.579  24.066   4.949  0.00  0.00    +0.000 C 
ATOM     18  C   UNL     1     -35.269  21.295   5.024  0.00  0.00    +0.005 C 
ATOM     19  C   UNL     1     -35.330  23.426   6.162  0.00  0.00    +0.000 C 
ATOM     20  C   UNL     1     -35.175  22.039   6.200  0.00  0.00    +0.000 C 
BRANCH  16  23
ATOM     21  O   UNL     1     -34.741  21.227   1.715  0.00  0.00    -0.269 OA
ATOM     22  N   UNL     1     -36.700  20.265   2.503  0.00  0.00    -0.250 N 
ATOM     23  C   UNL     1     -35.612  21.134   2.599  0.00  0.00    +0.259 C 
ATOM     24  H   UNL     1     -37.365  20.227   3.229  0.00  0.00    +0.169 HD
BRANCH  22  25
ATOM     25  N   UNL     1     -36.843  19.460   1.389  0.00  0.00    -0.254 NA
ATOM     26  H   UNL     1     -36.703  20.018   0.547  0.00  0.00    +0.140 HD
ATOM     27  H   UNL     1     -37.780  19.057   1.379  0.00  0.00    +0.140 HD
ENDBRANCH  22  25
ENDBRANCH  16  23
ENDBRANCH   2  15
BRANCH  13  28
ATOM     28  O   UNL     1     -32.423  28.443   1.798  0.00  0.00    -0.506 OA
ATOM     29  H   UNL     1     -31.504  28.296   1.688  0.00  0.00    +0.292 HD
ENDBRANCH  13  28
BRANCH  14  30
ATOM     30  O   UNL     1     -41.389  25.577   2.062  0.00  0.00    -0.505 OA
ATOM     31  H   UNL     1     -41.630  26.281   1.493  0.00  0.00    +0.292 HD
ENDBRANCH  14  30
TORSDOF 5
ENDMDL
MODEL 2
REMARK VINA RESULT:      -6.9      2.786      5.341
REMARK  Name = 194828
REMARK  5 active torsions:
REMARK  status: ('A' for Active; 'I' for Inactive)
REMARK    1  A    between atoms: C_2  and  C_15
REMARK    2  A    between atoms: C_13  and  O_28
REMARK    3  A    between atoms: C_14  and  O_30
REMARK    4  A    between atoms: C_16  and  C_23
REMARK    5  A    between atoms: N_22  and  N_25
REMARK                            x       y       z     vdW  Elec       q    Type
REMARK                         _______ _______ _______ _____ _____    ______ ____
ROOT
ATOM      1  O   UNL     1     -37.789  19.840   0.261  0.00  0.00    -0.470 OA
ATOM      2  C   UNL     1     -36.488  21.542   2.253  0.00  0.00    +0.003 C 
ATOM      3  C   UNL     1     -35.774  20.436   1.505  0.00  0.00    +0.022 C 
ATOM      4  C   UNL     1     -37.835  21.857   1.636  0.00  0.00    +0.034 C 
ATOM      5  C   UNL     1     -36.465  19.649   0.576  0.00  0.00    +0.213 C 
ATOM      6  C   UNL     1     -38.404  20.988   0.699  0.00  0.00    +0.142 C 
ATOM      7  C   UNL     1     -34.416  20.173   1.740  0.00  0.00    +0.003 C 
ATOM      8  C   UNL     1     -38.537  23.017   2.001  0.00  0.00    +0.006 C 
ATOM      9  C   UNL     1     -35.817  18.604  -0.089  0.00  0.00    +0.058 C 
ATOM     10  C   UNL     1     -39.663  21.258   0.155  0.00  0.00    +0.073 C 
ATOM     11  C   UNL     1     -33.768  19.134   1.071  0.00  0.00    +0.036 C 
ATOM     12  C   UNL     1     -39.790  23.289   1.451  0.00  0.00    +0.037 C 
ATOM     13  C   UNL     1     -34.470  18.348   0.160  0.00  0.00    +0.133 C 
ATOM     14  C   UNL     1     -40.355  22.409   0.532  0.00  0.00    +0.137 C 
ENDROOT
BRANCH   2  15
ATOM     15  C   UNL     1     -35.634  22.774   2.320  0.00  0.00    +0.004 C 
ATOM     16  C   UNL     1     -35.232  23.299   3.544  0.00  0.00    +0.055 C 
ATOM     17  C   UNL     1     -35.248  23.384   1.130  0.00  0.00    +0.000 C 
ATOM     18  C   UNL     1     -34.437  24.445   3.579  0.00  0.00    +0.005 C 
ATOM     19  C   UNL     1     -34.453  24.529   1.164  0.00  0.00    +0.000 C 
ATOM     20  C   UNL     1     -34.048  25.061   2.389  0.00  0.00    +0.000 C 
BRANCH  16  23
ATOM     21  O   UNL     1     -36.312  23.310   5.625  0.00  0.00    -0.269 OA
ATOM     22  N   UNL     1     -35.210  21.363   5.011  0.00  0.00    -0.250 N 
ATOM     23  C   UNL     1     -35.625  22.679   4.802  0.00  0.00    +0.259 C 
ATOM     24  H   UNL     1     -34.666  20.904   4.330  0.00  0.00    +0.169 HD
BRANCH  22  25
ATOM     25  N   UNL     1     -35.562  20.706   6.174  0.00  0.00    -0.254 NA
ATOM     26  H   UNL     1     -34.723  20.346   6.628  0.00  0.00    +0.140 HD
ATOM     27  H   UNL     1     -36.187  19.930   5.951  0.00  0.00    +0.140 HD
ENDBRANCH  22  25
ENDBRANCH  16  23
ENDBRANCH   2  15
BRANCH  13  28
ATOM     28  O   UNL     1     -33.839  17.333  -0.491  0.00  0.00    -0.506 OA
ATOM     29  H   UNL     1     -34.037  16.442  -0.276  0.00  0.00    +0.292 HD
ENDBRANCH  13  28
BRANCH  14  30
ATOM     30  O   UNL     1     -41.579  22.673   0.000  0.00  0.00    -0.505 OA
ATOM     31  H   UNL     1     -41.662  22.862  -0.914  0.00  0.00    +0.292 HD
ENDBRANCH  14  30
TORSDOF 5
ENDMDL
MODEL 3
REMARK VINA RESULT:      -6.6      2.604      5.072
REMARK  Name = 194828
REMARK  5 active torsions:
REMARK  status: ('A' for Active; 'I' for Inactive)
REMARK    1  A    between atoms: C_2  and  C_15
REMARK    2  A    between atoms: C_13  and  O_28
REMARK    3  A    between atoms: C_14  and  O_30
REMARK    4  A    between atoms: C_16  and  C_23
REMARK    5  A    between atoms: N_22  and  N_25
REMARK                            x       y       z     vdW  Elec       q    Type
REMARK                         _______ _______ _______ _____ _____    ______ ____
ROOT
ATOM      1  O   UNL     1     -40.315  22.471   1.075  0.00  0.00    -0.470 OA
ATOM      2  C   UNL     1     -37.851  23.012   2.558  0.00  0.00    +0.003 C 
ATOM      3  C   UNL     1     -38.001  21.871   1.574  0.00  0.00    +0.022 C 
ATOM      4  C   UNL     1     -38.996  23.999   2.449  0.00  0.00    +0.034 C 
ATOM      5  C   UNL     1     -39.217  21.661   0.912  0.00  0.00    +0.213 C 
ATOM      6  C   UNL     1     -40.152  23.665   1.736  0.00  0.00    +0.142 C 
ATOM      7  C   UNL     1     -36.931  20.999   1.321  0.00  0.00    +0.003 C 
ATOM      8  C   UNL     1     -38.920  25.255   3.072  0.00  0.00    +0.006 C 
ATOM      9  C   UNL     1     -39.368  20.587   0.031  0.00  0.00    +0.058 C 
ATOM     10  C   UNL     1     -41.224  24.559   1.665  0.00  0.00    +0.073 C 
ATOM     11  C   UNL     1     -37.081  19.930   0.436  0.00  0.00    +0.036 C 
ATOM     12  C   UNL     1     -39.989  26.150   2.993  0.00  0.00    +0.037 C 
ATOM     13  C   UNL     1     -38.300  19.723  -0.205  0.00  0.00    +0.133 C 
ATOM     14  C   UNL     1     -41.141  25.801   2.294  0.00  0.00    +0.137 C 
ENDROOT
BRANCH   2  15
ATOM     15  C   UNL     1     -36.534  23.706   2.369  0.00  0.00    +0.004 C 
ATOM     16  C   UNL     1     -35.549  23.647   3.350  0.00  0.00    +0.055 C 
ATOM     17  C   UNL     1     -36.314  24.412   1.190  0.00  0.00    +0.000 C 
ATOM     18  C   UNL     1     -34.332  24.299   3.150  0.00  0.00    +0.005 C 
ATOM     19  C   UNL     1     -35.098  25.064   0.989  0.00  0.00    +0.000 C 
ATOM     20  C   UNL     1     -34.106  25.008   1.969  0.00  0.00    +0.000 C 
BRANCH  16  23
ATOM     21  O   UNL     1     -36.260  23.484   5.578  0.00  0.00    -0.269 OA
ATOM     22  N   UNL     1     -35.386  21.570   4.600  0.00  0.00    -0.250 N 
ATOM     23  C   UNL     1     -35.758  22.915   4.592  0.00  0.00    +0.259 C 
ATOM     24  H   UNL     1     -34.990  21.164   3.795  0.00  0.00    +0.169 HD
BRANCH  22  25
ATOM     25  N   UNL     1     -35.572  20.811   5.739  0.00  0.00    -0.254 NA
ATOM     26  H   UNL     1     -36.036  19.936   5.492  0.00  0.00    +0.140 HD
ATOM     27  H   UNL     1     -36.152  21.327   6.401  0.00  0.00    +0.140 HD
ENDBRANCH  22  25
ENDBRANCH  16  23
ENDBRANCH   2  15
BRANCH  13  28
ATOM     28  O   UNL     1     -38.447  18.679  -1.066  0.00  0.00    -0.506 OA
ATOM     29  H   UNL     1     -37.702  18.169  -1.317  0.00  0.00    +0.292 HD
ENDBRANCH  13  28
BRANCH  14  30
ATOM     30  O   UNL     1     -42.184  26.672   2.222  0.00  0.00    -0.505 OA
ATOM     31  H   UNL     1     -42.324  27.293   2.910  0.00  0.00    +0.292 HD
ENDBRANCH  14  30
TORSDOF 5
ENDMDL
MODEL 4
REMARK VINA RESULT:      -6.6      2.890      5.488
REMARK  Name = 194828
REMARK  5 active torsions:
REMARK  status: ('A' for Active; 'I' for Inactive)
REMARK    1  A    between atoms: C_2  and  C_15
REMARK    2  A    between atoms: C_13  and  O_28
REMARK    3  A    between atoms: C_14  and  O_30
REMARK    4  A    between atoms: C_16  and  C_23
REMARK    5  A    between atoms: N_22  and  N_25
REMARK                            x       y       z     vdW  Elec       q    Type
REMARK                         _______ _______ _______ _____ _____    ______ ____
ROOT
ATOM      1  O   UNL     1     -34.066  23.267  -0.283  0.00  0.00    -0.470 OA
ATOM      2  C   UNL     1     -35.544  24.385   1.981  0.00  0.00    +0.003 C 
ATOM      3  C   UNL     1     -35.165  22.923   1.870  0.00  0.00    +0.022 C 
ATOM      4  C   UNL     1     -34.813  25.232   0.959  0.00  0.00    +0.034 C 
ATOM      5  C   UNL     1     -34.471  22.454   0.749  0.00  0.00    +0.213 C 
ATOM      6  C   UNL     1     -34.139  24.628  -0.107  0.00  0.00    +0.142 C 
ATOM      7  C   UNL     1     -35.516  22.014   2.881  0.00  0.00    +0.003 C 
ATOM      8  C   UNL     1     -34.810  26.632   1.060  0.00  0.00    +0.006 C 
ATOM      9  C   UNL     1     -34.153  21.099   0.628  0.00  0.00    +0.058 C 
ATOM     10  C   UNL     1     -33.494  25.409  -1.071  0.00  0.00    +0.073 C 
ATOM     11  C   UNL     1     -35.191  20.662   2.762  0.00  0.00    +0.036 C 
ATOM     12  C   UNL     1     -34.159  27.410   0.101  0.00  0.00    +0.037 C 
ATOM     13  C   UNL     1     -34.513  20.205   1.635  0.00  0.00    +0.133 C 
ATOM     14  C   UNL     1     -33.505  26.799  -0.966  0.00  0.00    +0.137 C 
ENDROOT
BRANCH   2  15
ATOM     15  C   UNL     1     -35.292  24.894   3.370  0.00  0.00    +0.004 C 
ATOM     16  C   UNL     1     -36.349  25.246   4.204  0.00  0.00    +0.055 C 
ATOM     17  C   UNL     1     -33.977  25.009   3.811  0.00  0.00    +0.000 C 
ATOM     18  C   UNL     1     -36.088  25.716   5.492  0.00  0.00    +0.005 C 
ATOM     19  C   UNL     1     -33.716  25.478   5.098  0.00  0.00    +0.000 C 
ATOM     20  C   UNL     1     -34.772  25.832   5.939  0.00  0.00    +0.000 C 
BRANCH  16  23
ATOM     21  O   UNL     1     -38.295  24.027   3.732  0.00  0.00    -0.269 OA
ATOM     22  N   UNL     1     -38.375  26.323   3.407  0.00  0.00    -0.250 N 
ATOM     23  C   UNL     1     -37.733  25.136   3.764  0.00  0.00    +0.259 C 
ATOM     24  H   UNL     1     -37.888  27.178   3.447  0.00  0.00    +0.169 HD
BRANCH  22  25
ATOM     25  N   UNL     1     -39.694  26.296   2.997  0.00  0.00    -0.254 NA
ATOM     26  H   UNL     1     -39.734  26.131   1.991  0.00  0.00    +0.140 HD
ATOM     27  H   UNL     1     -40.136  27.189   3.213  0.00  0.00    +0.140 HD
ENDBRANCH  22  25
ENDBRANCH  16  23
ENDBRANCH   2  15
BRANCH  13  28
ATOM     28  O   UNL     1     -34.200  18.885   1.518  0.00  0.00    -0.506 OA
ATOM     29  H   UNL     1     -34.784  18.233   1.850  0.00  0.00    +0.292 HD
ENDBRANCH  13  28
BRANCH  14  30
ATOM     30  O   UNL     1     -32.875  27.558  -1.902  0.00  0.00    -0.505 OA
ATOM     31  H   UNL     1     -33.155  28.439  -2.058  0.00  0.00    +0.292 HD
ENDBRANCH  14  30
TORSDOF 5
ENDMDL
MODEL 5
REMARK VINA RESULT:      -6.5      3.030      5.384
REMARK  Name = 194828
REMARK  5 active torsions:
REMARK  status: ('A' for Active; 'I' for Inactive)
REMARK    1  A    between atoms: C_2  and  C_15
REMARK    2  A    between atoms: C_13  and  O_28
REMARK    3  A    between atoms: C_14  and  O_30
REMARK    4  A    between atoms: C_16  and  C_23
REMARK    5  A    between atoms: N_22  and  N_25
REMARK                            x       y       z     vdW  Elec       q    Type
REMARK                         _______ _______ _______ _____ _____    ______ ____
ROOT
ATOM      1  O   UNL     1     -33.871  25.350   5.895  0.00  0.00    -0.470 OA
ATOM      2  C   UNL     1     -35.072  26.021   3.312  0.00  0.00    +0.003 C 
ATOM      3  C   UNL     1     -34.050  26.893   4.011  0.00  0.00    +0.022 C 
ATOM      4  C   UNL     1     -35.159  24.646   3.943  0.00  0.00    +0.034 C 
ATOM      5  C   UNL     1     -33.530  26.517   5.255  0.00  0.00    +0.213 C 
ATOM      6  C   UNL     1     -34.573  24.401   5.190  0.00  0.00    +0.142 C 
ATOM      7  C   UNL     1     -33.620  28.097   3.431  0.00  0.00    +0.003 C 
ATOM      8  C   UNL     1     -35.838  23.602   3.295  0.00  0.00    +0.006 C 
ATOM      9  C   UNL     1     -32.614  27.339   5.918  0.00  0.00    +0.058 C 
ATOM     10  C   UNL     1     -34.684  23.144   5.791  0.00  0.00    +0.073 C 
ATOM     11  C   UNL     1     -32.701  28.913   4.091  0.00  0.00    +0.036 C 
ATOM     12  C   UNL     1     -35.941  22.345   3.892  0.00  0.00    +0.037 C 
ATOM     13  C   UNL     1     -32.201  28.535   5.335  0.00  0.00    +0.133 C 
ATOM     14  C   UNL     1     -35.368  22.117   5.141  0.00  0.00    +0.137 C 
ENDROOT
BRANCH   2  15
ATOM     15  C   UNL     1     -34.765  25.913   1.848  0.00  0.00    +0.004 C 
ATOM     16  C   UNL     1     -35.648  26.409   0.894  0.00  0.00    +0.055 C 
ATOM     17  C   UNL     1     -33.574  25.307   1.458  0.00  0.00    +0.000 C 
ATOM     18  C   UNL     1     -35.339  26.298  -0.462  0.00  0.00    +0.005 C 
ATOM     19  C   UNL     1     -33.264  25.195   0.103  0.00  0.00    +0.000 C 
ATOM     20  C   UNL     1     -34.147  25.691  -0.857  0.00  0.00    +0.000 C 
BRANCH  16  23
ATOM     21  O   UNL     1     -36.947  28.275   1.468  0.00  0.00    -0.269 OA
ATOM     22  N   UNL     1     -38.017  26.217   1.399  0.00  0.00    -0.250 N 
ATOM     23  C   UNL     1     -36.900  27.046   1.279  0.00  0.00    +0.259 C 
ATOM     24  H   UNL     1     -37.930  25.249   1.240  0.00  0.00    +0.169 HD
BRANCH  22  25
ATOM     25  N   UNL     1     -39.241  26.756   1.742  0.00  0.00    -0.254 NA
ATOM     26  H   UNL     1     -39.983  26.105   1.486  0.00  0.00    +0.140 HD
ATOM     27  H   UNL     1     -39.376  27.637   1.246  0.00  0.00    +0.140 HD
ENDBRANCH  22  25
ENDBRANCH  16  23
ENDBRANCH   2  15
BRANCH  13  28
ATOM     28  O   UNL     1     -31.307  29.333   5.980  0.00  0.00    -0.506 OA
ATOM     29  H   UNL     1     -30.685  28.958   6.572  0.00  0.00    +0.292 HD
ENDBRANCH  13  28
BRANCH  14  30
ATOM     30  O   UNL     1     -35.473  20.893   5.725  0.00  0.00    -0.505 OA
ATOM     31  H   UNL     1     -36.104  20.276   5.409  0.00  0.00    +0.292 HD
ENDBRANCH  14  30
TORSDOF 5
ENDMDL
MODEL 6
REMARK VINA RESULT:      -6.4      2.947      5.509
REMARK  Name = 194828
REMARK  5 active torsions:
REMARK  status: ('A' for Active; 'I' for Inactive)
REMARK    1  A    between atoms: C_2  and  C_15
REMARK    2  A    between atoms: C_13  and  O_28
REMARK    3  A    between atoms: C_14  and  O_30
REMARK    4  A    between atoms: C_16  and  C_23
REMARK    5  A    between atoms: N_22  and  N_25
REMARK                            x       y       z     vdW  Elec       q    Type
REMARK                         _______ _______ _______ _____ _____    ______ ____
ROOT
ATOM      1  O   UNL     1     -37.156  24.744  -0.128  0.00  0.00    -0.470 OA
ATOM      2  C   UNL     1     -36.108  24.770   2.604  0.00  0.00    +0.003 C 
ATOM      3  C   UNL     1     -37.580  24.638   2.274  0.00  0.00    +0.022 C 
ATOM      4  C   UNL     1     -35.240  24.575   1.377  0.00  0.00    +0.034 C 
ATOM      5  C   UNL     1     -38.012  24.650   0.943  0.00  0.00    +0.213 C 
ATOM      6  C   UNL     1     -35.809  24.590   0.099  0.00  0.00    +0.142 C 
ATOM      7  C   UNL     1     -38.535  24.517   3.296  0.00  0.00    +0.003 C 
ATOM      8  C   UNL     1     -33.855  24.390   1.502  0.00  0.00    +0.006 C 
ATOM      9  C   UNL     1     -39.374  24.566   0.638  0.00  0.00    +0.058 C 
ATOM     10  C   UNL     1     -35.005  24.447  -1.036  0.00  0.00    +0.073 C 
ATOM     11  C   UNL     1     -39.893  24.426   2.991  0.00  0.00    +0.036 C 
ATOM     12  C   UNL     1     -33.055  24.239   0.368  0.00  0.00    +0.037 C 
ATOM     13  C   UNL     1     -40.312  24.454   1.663  0.00  0.00    +0.133 C 
ATOM     14  C   UNL     1     -33.629  24.272  -0.900  0.00  0.00    +0.137 C 
ENDROOT
BRANCH   2  15
ATOM     15  C   UNL     1     -35.719  23.807   3.686  0.00  0.00    +0.004 C 
ATOM     16  C   UNL     1     -35.203  24.262   4.896  0.00  0.00    +0.055 C 
ATOM     17  C   UNL     1     -35.885  22.444   3.459  0.00  0.00    +0.000 C 
ATOM     18  C   UNL     1     -34.850  23.346   5.887  0.00  0.00    +0.005 C 
ATOM     19  C   UNL     1     -35.532  21.528   4.450  0.00  0.00    +0.000 C 
ATOM     20  C   UNL     1     -35.014  21.979   5.664  0.00  0.00    +0.000 C 
BRANCH  16  23
ATOM     21  O   UNL     1     -35.965  26.372   5.577  0.00  0.00    -0.269 OA
ATOM     22  N   UNL     1     -33.745  26.205   4.925  0.00  0.00    -0.250 N 
ATOM     23  C   UNL     1     -35.019  25.684   5.155  0.00  0.00    +0.259 C 
ATOM     24  H   UNL     1     -33.027  25.620   4.590  0.00  0.00    +0.169 HD
BRANCH  22  25
ATOM     25  N   UNL     1     -33.494  27.542   5.167  0.00  0.00    -0.254 NA
ATOM     26  H   UNL     1     -33.440  28.043   4.281  0.00  0.00    +0.140 HD
ATOM     27  H   UNL     1     -32.608  27.637   5.665  0.00  0.00    +0.140 HD
ENDBRANCH  22  25
ENDBRANCH  16  23
ENDBRANCH   2  15
BRANCH  13  28
ATOM     28  O   UNL     1     -41.637  24.368   1.365  0.00  0.00    -0.506 OA
ATOM     29  H   UNL     1     -41.976  23.599   0.949  0.00  0.00    +0.292 HD
ENDBRANCH  13  28
BRANCH  14  30
ATOM     30  O   UNL     1     -32.848  24.130  -2.004  0.00  0.00    -0.505 OA
ATOM     31  H   UNL     1     -33.201  24.308  -2.854  0.00  0.00    +0.292 HD
ENDBRANCH  14  30
TORSDOF 5
ENDMDL
MODEL 7
REMARK VINA RESULT:      -6.3      3.496      7.070
REMARK  Name = 194828
REMARK  5 active torsions:
REMARK  status: ('A' for Active; 'I' for Inactive)
REMARK    1  A    between atoms: C_2  and  C_15
REMARK    2  A    between atoms: C_13  and  O_28
REMARK    3  A    between atoms: C_14  and  O_30
REMARK    4  A    between atoms: C_16  and  C_23
REMARK    5  A    between atoms: N_22  and  N_25
REMARK                            x       y       z     vdW  Elec       q    Type
REMARK                         _______ _______ _______ _____ _____    ______ ____
ROOT
ATOM      1  O   UNL     1     -33.521  25.722   5.976  0.00  0.00    -0.470 OA
ATOM      2  C   UNL     1     -33.179  26.668   3.229  0.00  0.00    +0.003 C 
ATOM      3  C   UNL     1     -34.069  25.503   3.607  0.00  0.00    +0.022 C 
ATOM      4  C   UNL     1     -32.745  27.459   4.446  0.00  0.00    +0.034 C 
ATOM      5  C   UNL     1     -34.172  25.094   4.942  0.00  0.00    +0.213 C 
ATOM      6  C   UNL     1     -32.927  26.937   5.731  0.00  0.00    +0.142 C 
ATOM      7  C   UNL     1     -34.793  24.807   2.626  0.00  0.00    +0.003 C 
ATOM      8  C   UNL     1     -32.145  28.720   4.303  0.00  0.00    +0.006 C 
ATOM      9  C   UNL     1     -34.965  23.996   5.288  0.00  0.00    +0.058 C 
ATOM     10  C   UNL     1     -32.495  27.649   6.853  0.00  0.00    +0.073 C 
ATOM     11  C   UNL     1     -35.589  23.715   2.973  0.00  0.00    +0.036 C 
ATOM     12  C   UNL     1     -31.722  29.434   5.426  0.00  0.00    +0.037 C 
ATOM     13  C   UNL     1     -35.673  23.309   4.303  0.00  0.00    +0.133 C 
ATOM     14  C   UNL     1     -31.893  28.897   6.699  0.00  0.00    +0.137 C 
ENDROOT
BRANCH   2  15
ATOM     15  C   UNL     1     -33.863  27.558   2.234  0.00  0.00    +0.004 C 
ATOM     16  C   UNL     1     -33.336  27.743   0.959  0.00  0.00    +0.055 C 
ATOM     17  C   UNL     1     -35.041  28.197   2.609  0.00  0.00    +0.000 C 
ATOM     18  C   UNL     1     -33.993  28.575   0.052  0.00  0.00    +0.005 C 
ATOM     19  C   UNL     1     -35.698  29.029   1.703  0.00  0.00    +0.000 C 
ATOM     20  C   UNL     1     -35.174  29.218   0.424  0.00  0.00    +0.000 C 
BRANCH  16  23
ATOM     21  O   UNL     1     -31.014  27.677   0.644  0.00  0.00    -0.269 OA
ATOM     22  N   UNL     1     -32.219  25.782   0.061  0.00  0.00    -0.250 N 
ATOM     23  C   UNL     1     -32.104  27.086   0.545  0.00  0.00    +0.259 C 
ATOM     24  H   UNL     1     -33.105  25.355   0.000  0.00  0.00    +0.169 HD
BRANCH  22  25
ATOM     25  N   UNL     1     -31.089  25.091  -0.333  0.00  0.00    -0.254 NA
ATOM     26  H   UNL     1     -30.893  24.349   0.339  0.00  0.00    +0.140 HD
ATOM     27  H   UNL     1     -30.296  25.732  -0.373  0.00  0.00    +0.140 HD
ENDBRANCH  22  25
ENDBRANCH  16  23
ENDBRANCH   2  15
BRANCH  13  28
ATOM     28  O   UNL     1     -36.448  22.242   4.641  0.00  0.00    -0.506 OA
ATOM     29  H   UNL     1     -36.047  21.433   4.895  0.00  0.00    +0.292 HD
ENDBRANCH  13  28
BRANCH  14  30
ATOM     30  O   UNL     1     -31.475  29.591   7.792  0.00  0.00    -0.505 OA
ATOM     31  H   UNL     1     -32.038  29.677   8.536  0.00  0.00    +0.292 HD
ENDBRANCH  14  30
TORSDOF 5
ENDMDL
MODEL 8
REMARK VINA RESULT:      -6.3      3.029      5.503
REMARK  Name = 194828
REMARK  5 active torsions:
REMARK  status: ('A' for Active; 'I' for Inactive)
REMARK    1  A    between atoms: C_2  and  C_15
REMARK    2  A    between atoms: C_13  and  O_28
REMARK    3  A    between atoms: C_14  and  O_30
REMARK    4  A    between atoms: C_16  and  C_23
REMARK    5  A    between atoms: N_22  and  N_25
REMARK                            x       y       z     vdW  Elec       q    Type
REMARK                         _______ _______ _______ _____ _____    ______ ____
ROOT
ATOM      1  O   UNL     1     -35.274  22.422   3.966  0.00  0.00    -0.470 OA
ATOM      2  C   UNL     1     -37.347  24.070   2.723  0.00  0.00    +0.003 C 
ATOM      3  C   UNL     1     -36.293  24.619   3.662  0.00  0.00    +0.022 C 
ATOM      4  C   UNL     1     -37.015  22.662   2.271  0.00  0.00    +0.034 C 
ATOM      5  C   UNL     1     -35.341  23.768   4.234  0.00  0.00    +0.213 C 
ATOM      6  C   UNL     1     -36.020  21.926   2.924  0.00  0.00    +0.142 C 
ATOM      7  C   UNL     1     -36.264  25.985   3.984  0.00  0.00    +0.003 C 
ATOM      8  C   UNL     1     -37.707  22.071   1.202  0.00  0.00    +0.006 C 
ATOM      9  C   UNL     1     -34.391  24.267   5.129  0.00  0.00    +0.058 C 
ATOM     10  C   UNL     1     -35.737  20.614   2.533  0.00  0.00    +0.073 C 
ATOM     11  C   UNL     1     -35.310  26.483   4.873  0.00  0.00    +0.036 C 
ATOM     12  C   UNL     1     -37.418  20.764   0.808  0.00  0.00    +0.037 C 
ATOM     13  C   UNL     1     -34.377  25.624   5.447  0.00  0.00    +0.133 C 
ATOM     14  C   UNL     1     -36.437  20.035   1.475  0.00  0.00    +0.137 C 
ENDROOT
BRANCH   2  15
ATOM     15  C   UNL     1     -37.529  24.976   1.541  0.00  0.00    +0.004 C 
ATOM     16  C   UNL     1     -38.752  25.591   1.294  0.00  0.00    +0.055 C 
ATOM     17  C   UNL     1     -36.447  25.193   0.693  0.00  0.00    +0.000 C 
ATOM     18  C   UNL     1     -38.896  26.431   0.189  0.00  0.00    +0.005 C 
ATOM     19  C   UNL     1     -36.589  26.032  -0.412  0.00  0.00    +0.000 C 
ATOM     20  C   UNL     1     -37.814  26.651  -0.664  0.00  0.00    +0.000 C 
BRANCH  16  23
ATOM     21  O   UNL     1     -40.658  24.410   1.980  0.00  0.00    -0.269 OA
ATOM     22  N   UNL     1     -40.075  26.291   3.208  0.00  0.00    -0.250 N 
ATOM     23  C   UNL     1     -39.899  25.378   2.167  0.00  0.00    +0.259 C 
ATOM     24  H   UNL     1     -39.448  27.043   3.315  0.00  0.00    +0.169 HD
BRANCH  22  25
ATOM     25  N   UNL     1     -41.131  26.139   4.086  0.00  0.00    -0.254 NA
ATOM     26  H   UNL     1     -41.868  26.805   3.850  0.00  0.00    +0.140 HD
ATOM     27  H   UNL     1     -40.810  26.311   5.038  0.00  0.00    +0.140 HD
ENDBRANCH  22  25
ENDBRANCH  16  23
ENDBRANCH   2  15
BRANCH  13  28
ATOM     28  O   UNL     1     -33.449  26.110   6.316  0.00  0.00    -0.506 OA
ATOM     29  H   UNL     1     -32.645  26.468   5.993  0.00  0.00    +0.292 HD
ENDBRANCH  13  28
BRANCH  14  30
ATOM     30  O   UNL     1     -36.159  18.759   1.093  0.00  0.00    -0.505 OA
ATOM     31  H   UNL     1     -36.037  18.557   0.186  0.00  0.00    +0.292 HD
ENDBRANCH  14  30
TORSDOF 5
ENDMDL
MODEL 9
REMARK VINA RESULT:      -6.2      2.365      5.287
REMARK  Name = 194828
REMARK  5 active torsions:
REMARK  status: ('A' for Active; 'I' for Inactive)
REMARK    1  A    between atoms: C_2  and  C_15
REMARK    2  A    between atoms: C_13  and  O_28
REMARK    3  A    between atoms: C_14  and  O_30
REMARK    4  A    between atoms: C_16  and  C_23
REMARK    5  A    between atoms: N_22  and  N_25
REMARK                            x       y       z     vdW  Elec       q    Type
REMARK                         _______ _______ _______ _____ _____    ______ ____
ROOT
ATOM      1  O   UNL     1     -38.142  24.814   3.923  0.00  0.00    -0.470 OA
ATOM      2  C   UNL     1     -36.533  22.995   2.292  0.00  0.00    +0.003 C 
ATOM      3  C   UNL     1     -37.968  23.357   1.972  0.00  0.00    +0.022 C 
ATOM      4  C   UNL     1     -35.948  23.907   3.351  0.00  0.00    +0.034 C 
ATOM      5  C   UNL     1     -38.683  24.222   2.807  0.00  0.00    +0.213 C 
ATOM      6  C   UNL     1     -36.781  24.741   4.105  0.00  0.00    +0.142 C 
ATOM      7  C   UNL     1     -38.606  22.820   0.843  0.00  0.00    +0.003 C 
ATOM      8  C   UNL     1     -34.567  23.921   3.601  0.00  0.00    +0.006 C 
ATOM      9  C   UNL     1     -40.019  24.529   2.534  0.00  0.00    +0.058 C 
ATOM     10  C   UNL     1     -36.248  25.556   5.107  0.00  0.00    +0.073 C 
ATOM     11  C   UNL     1     -39.938  23.132   0.567  0.00  0.00    +0.036 C 
ATOM     12  C   UNL     1     -34.035  24.742   4.597  0.00  0.00    +0.037 C 
ATOM     13  C   UNL     1     -40.644  23.983   1.414  0.00  0.00    +0.133 C 
ATOM     14  C   UNL     1     -34.875  25.556   5.352  0.00  0.00    +0.137 C 
ENDROOT
BRANCH   2  15
ATOM     15  C   UNL     1     -35.691  23.016   1.051  0.00  0.00    +0.004 C 
ATOM     16  C   UNL     1     -35.221  21.835   0.485  0.00  0.00    +0.055 C 
ATOM     17  C   UNL     1     -35.387  24.245   0.471  0.00  0.00    +0.000 C 
ATOM     18  C   UNL     1     -34.441  21.881  -0.671  0.00  0.00    +0.005 C 
ATOM     19  C   UNL     1     -34.607  24.292  -0.684  0.00  0.00    +0.000 C 
ATOM     20  C   UNL     1     -34.134  23.110  -1.255  0.00  0.00    +0.000 C 
BRANCH  16  23
ATOM     21  O   UNL     1     -34.923  20.156   2.094  0.00  0.00    -0.269 OA
ATOM     22  N   UNL     1     -36.520  19.782   0.453  0.00  0.00    -0.250 N 
ATOM     23  C   UNL     1     -35.525  20.538   1.075  0.00  0.00    +0.259 C 
ATOM     24  H   UNL     1     -36.969  20.126  -0.354  0.00  0.00    +0.169 HD
BRANCH  22  25
ATOM     25  N   UNL     1     -36.873  18.550   0.969  0.00  0.00    -0.254 NA
ATOM     26  H   UNL     1     -37.889  18.488   1.036  0.00  0.00    +0.140 HD
ATOM     27  H   UNL     1     -36.463  18.440   1.897  0.00  0.00    +0.140 HD
ENDBRANCH  22  25
ENDBRANCH  16  23
ENDBRANCH   2  15
BRANCH  13  28
ATOM     28  O   UNL     1     -41.945  24.285   1.146  0.00  0.00    -0.506 OA
ATOM     29  H   UNL     1     -42.539  24.463   1.848  0.00  0.00    +0.292 HD
ENDBRANCH  13  28
BRANCH  14  30
ATOM     30  O   UNL     1     -34.357  26.352   6.326  0.00  0.00    -0.505 OA
ATOM     31  H   UNL     1     -34.502  27.278   6.301  0.00  0.00    +0.292 HD
ENDBRANCH  14  30
TORSDOF 5
ENDMDL
