MODEL 1
REMARK VINA RESULT:      -6.5      0.000      0.000
REMARK  Name = 5368914
REMARK  9 active torsions:
REMARK  status: ('A' for Active; 'I' for Inactive)
REMARK    1  A    between atoms: C_5  and  O_22
REMARK    2  A    between atoms: C_8  and  O_24
REMARK    3  A    between atoms: C_17  and  O_26
REMARK    4  A    between atoms: C_19  and  O_28
REMARK    5  A    between atoms: C_19  and  C_32
REMARK    6  A    between atoms: C_20  and  O_30
REMARK    7  A    between atoms: C_20  and  C_37
REMARK    8  A    between atoms: C_33  and  C_34
REMARK    9  A    between atoms: C_38  and  C_39
REMARK                            x       y       z     vdW  Elec       q    Type
REMARK                         _______ _______ _______ _____ _____    ______ ____
ROOT
ATOM      1  O   UNL     1     -35.572  25.278   1.909  0.00  0.00    -0.329 OA
ATOM      2  O   UNL     1     -38.304  21.896   2.247  0.00  0.00    -0.291 OA
ATOM      3  O   UNL     1     -37.421  26.246   0.213  0.00  0.00    -0.289 OA
ATOM      4  C   UNL     1     -36.159  23.009   2.403  0.00  0.00    +0.111 C 
ATOM      5  C   UNL     1     -35.555  24.316   2.987  0.00  0.00    +0.214 C 
ATOM      6  C   UNL     1     -35.668  23.112   0.937  0.00  0.00    +0.072 C 
ATOM      7  C   UNL     1     -35.712  24.610   0.647  0.00  0.00    +0.154 C 
ATOM      8  C   UNL     1     -36.339  24.888   4.191  0.00  0.00    +0.139 C 
ATOM      9  C   UNL     1     -37.698  22.934   2.527  0.00  0.00    +0.176 C 
ATOM     10  C   UNL     1     -35.613  21.726   3.068  0.00  0.00    +0.013 C 
ATOM     11  C   UNL     1     -37.786  25.209   3.783  0.00  0.00    +0.064 C 
ATOM     12  C   UNL     1     -36.328  22.262  -0.125  0.00  0.00    +0.048 C 
ATOM     13  C   UNL     1     -38.457  24.135   2.981  0.00  0.00    +0.049 C 
ATOM     14  C   UNL     1     -37.039  25.083   0.067  0.00  0.00    +0.197 C 
ATOM     15  C   UNL     1     -34.591  25.075  -0.280  0.00  0.00    +0.038 C 
ATOM     16  C   UNL     1     -35.713  26.163   4.781  0.00  0.00    +0.035 C 
ATOM     17  C   UNL     1     -37.508  22.821  -0.785  0.00  0.00    +0.131 C 
ATOM     18  C   UNL     1     -37.870  24.114  -0.714  0.00  0.00    +0.049 C 
ATOM     19  C   UNL     1     -35.774  21.087  -0.472  0.00  0.00    +0.133 C 
ATOM     20  C   UNL     1     -39.754  24.214   2.653  0.00  0.00    +0.132 C 
ATOM     21  C   UNL     1     -39.101  24.684  -1.359  0.00  0.00    +0.037 C 
ENDROOT
BRANCH   5  22
ATOM     22  O   UNL     1     -34.194  24.064   3.348  0.00  0.00    -0.362 OA
ATOM     23  H   UNL     1     -34.161  23.666   4.233  0.00  0.00    +0.213 HD
ENDBRANCH   5  22
BRANCH   8  24
ATOM     24  O   UNL     1     -36.386  23.925   5.248  0.00  0.00    -0.382 OA
ATOM     25  H   UNL     1     -37.193  24.055   5.769  0.00  0.00    +0.210 HD
ENDBRANCH   8  24
BRANCH  17  26
ATOM     26  O   UNL     1     -38.318  21.930  -1.476  0.00  0.00    -0.506 OA
ATOM     27  H   UNL     1     -38.469  21.071  -1.134  0.00  0.00    +0.292 HD
ENDBRANCH  17  26
BRANCH  19  28
ATOM     28  O   UNL     1     -36.292  20.318  -1.493  0.00  0.00    -0.506 OA
ATOM     29  H   UNL     1     -35.718  19.921  -2.117  0.00  0.00    +0.292 HD
ENDBRANCH  19  28
BRANCH  20  30
ATOM     30  O   UNL     1     -40.381  23.224   1.919  0.00  0.00    -0.506 OA
ATOM     31  H   UNL     1     -41.093  22.744   2.294  0.00  0.00    +0.292 HD
ENDBRANCH  20  30
BRANCH  19  32
ATOM     32  C   UNL     1     -34.605  20.557   0.198  0.00  0.00    +0.036 C 
ATOM     33  C   UNL     1     -34.461  19.292   0.623  0.00  0.00    +0.003 C 
BRANCH  33  34
ATOM     34  C   UNL     1     -33.267  18.817   1.288  0.00  0.00    -0.004 C 
ATOM     35  C   UNL     1     -32.154  18.459   0.631  0.00  0.00    -0.026 C 
ATOM     36  C   UNL     1     -30.915  17.969   1.306  0.00  0.00    +0.031 C 
ENDBRANCH  33  34
ENDBRANCH  19  32
BRANCH  20  37
ATOM     37  C   UNL     1     -40.590  25.335   3.041  0.00  0.00    +0.036 C 
ATOM     38  C   UNL     1     -41.455  25.977   2.241  0.00  0.00    +0.003 C 
BRANCH  38  39
ATOM     39  C   UNL     1     -42.263  27.092   2.689  0.00  0.00    -0.004 C 
ATOM     40  C   UNL     1     -42.247  27.551   3.949  0.00  0.00    -0.026 C 
ATOM     41  C   UNL     1     -43.076  28.699   4.422  0.00  0.00    +0.031 C 
ENDBRANCH  38  39
ENDBRANCH  20  37
TORSDOF 9
ENDMDL
MODEL 2
REMARK VINA RESULT:      -6.4      2.505      5.700
REMARK  Name = 5368914
REMARK  9 active torsions:
REMARK  status: ('A' for Active; 'I' for Inactive)
REMARK    1  A    between atoms: C_5  and  O_22
REMARK    2  A    between atoms: C_8  and  O_24
REMARK    3  A    between atoms: C_17  and  O_26
REMARK    4  A    between atoms: C_19  and  O_28
REMARK    5  A    between atoms: C_19  and  C_32
REMARK    6  A    between atoms: C_20  and  O_30
REMARK    7  A    between atoms: C_20  and  C_37
REMARK    8  A    between atoms: C_33  and  C_34
REMARK    9  A    between atoms: C_38  and  C_39
REMARK                            x       y       z     vdW  Elec       q    Type
REMARK                         _______ _______ _______ _____ _____    ______ ____
ROOT
ATOM      1  O   UNL     1     -35.852  22.387   0.188  0.00  0.00    -0.329 OA
ATOM      2  O   UNL     1     -39.219  23.231   2.826  0.00  0.00    -0.291 OA
ATOM      3  O   UNL     1     -35.194  24.951   0.664  0.00  0.00    -0.289 OA
ATOM      4  C   UNL     1     -38.038  22.020   1.094  0.00  0.00    +0.111 C 
ATOM      5  C   UNL     1     -36.643  21.378   0.854  0.00  0.00    +0.214 C 
ATOM      6  C   UNL     1     -38.138  22.931  -0.155  0.00  0.00    +0.072 C 
ATOM      7  C   UNL     1     -36.701  23.394  -0.379  0.00  0.00    +0.154 C 
ATOM      8  C   UNL     1     -35.922  20.938   2.149  0.00  0.00    +0.139 C 
ATOM      9  C   UNL     1     -38.135  22.797   2.426  0.00  0.00    +0.176 C 
ATOM     10  C   UNL     1     -39.194  20.995   1.110  0.00  0.00    +0.013 C 
ATOM     11  C   UNL     1     -35.704  22.144   3.076  0.00  0.00    +0.064 C 
ATOM     12  C   UNL     1     -39.153  24.053  -0.172  0.00  0.00    +0.048 C 
ATOM     13  C   UNL     1     -36.902  23.032   3.230  0.00  0.00    +0.049 C 
ATOM     14  C   UNL     1     -36.355  24.690   0.342  0.00  0.00    +0.197 C 
ATOM     15  C   UNL     1     -36.348  23.558  -1.856  0.00  0.00    +0.038 C 
ATOM     16  C   UNL     1     -34.558  20.274   1.896  0.00  0.00    +0.035 C 
ATOM     17  C   UNL     1     -38.730  25.341   0.378  0.00  0.00    +0.131 C 
ATOM     18  C   UNL     1     -37.451  25.667   0.633  0.00  0.00    +0.049 C 
ATOM     19  C   UNL     1     -40.351  23.853  -0.749  0.00  0.00    +0.133 C 
ATOM     20  C   UNL     1     -36.908  24.055   4.097  0.00  0.00    +0.132 C 
ATOM     21  C   UNL     1     -37.016  26.974   1.232  0.00  0.00    +0.037 C 
ENDROOT
BRANCH   5  22
ATOM     22  O   UNL     1     -36.802  20.268  -0.035  0.00  0.00    -0.362 OA
ATOM     23  H   UNL     1     -36.149  19.583   0.182  0.00  0.00    +0.213 HD
ENDBRANCH   5  22
BRANCH   8  24
ATOM     24  O   UNL     1     -36.720  19.983   2.853  0.00  0.00    -0.382 OA
ATOM     25  H   UNL     1     -36.907  20.313   3.746  0.00  0.00    +0.210 HD
ENDBRANCH   8  24
BRANCH  17  26
ATOM     26  O   UNL     1     -39.735  26.243   0.699  0.00  0.00    -0.506 OA
ATOM     27  H   UNL     1     -40.493  26.314   0.154  0.00  0.00    +0.292 HD
ENDBRANCH  17  26
BRANCH  19  28
ATOM     28  O   UNL     1     -41.276  24.870  -0.864  0.00  0.00    -0.506 OA
ATOM     29  H   UNL     1     -41.271  25.424  -1.618  0.00  0.00    +0.292 HD
ENDBRANCH  19  28
BRANCH  20  30
ATOM     30  O   UNL     1     -38.011  24.873   4.250  0.00  0.00    -0.506 OA
ATOM     31  H   UNL     1     -38.065  25.453   4.984  0.00  0.00    +0.292 HD
ENDBRANCH  20  30
BRANCH  19  32
ATOM     32  C   UNL     1     -40.744  22.567  -1.287  0.00  0.00    +0.036 C 
ATOM     33  C   UNL     1     -41.951  21.999  -1.133  0.00  0.00    +0.003 C 
BRANCH  33  34
ATOM     34  C   UNL     1     -42.289  20.708  -1.693  0.00  0.00    -0.004 C 
ATOM     35  C   UNL     1     -41.379  19.756  -1.945  0.00  0.00    -0.026 C 
ATOM     36  C   UNL     1     -41.714  18.420  -2.521  0.00  0.00    +0.031 C 
ENDBRANCH  33  34
ENDBRANCH  19  32
BRANCH  20  37
ATOM     37  C   UNL     1     -35.764  24.376   4.932  0.00  0.00    +0.036 C 
ATOM     38  C   UNL     1     -35.299  25.611   5.175  0.00  0.00    +0.003 C 
BRANCH  38  39
ATOM     39  C   UNL     1     -34.151  25.867   6.019  0.00  0.00    -0.004 C 
ATOM     40  C   UNL     1     -33.417  26.986   5.940  0.00  0.00    -0.026 C 
ATOM     41  C   UNL     1     -32.231  27.261   6.805  0.00  0.00    +0.031 C 
ENDBRANCH  38  39
ENDBRANCH  20  37
TORSDOF 9
ENDMDL
MODEL 3
REMARK VINA RESULT:      -6.4      2.842      5.496
REMARK  Name = 5368914
REMARK  9 active torsions:
REMARK  status: ('A' for Active; 'I' for Inactive)
REMARK    1  A    between atoms: C_5  and  O_22
REMARK    2  A    between atoms: C_8  and  O_24
REMARK    3  A    between atoms: C_17  and  O_26
REMARK    4  A    between atoms: C_19  and  O_28
REMARK    5  A    between atoms: C_19  and  C_32
REMARK    6  A    between atoms: C_20  and  O_30
REMARK    7  A    between atoms: C_20  and  C_37
REMARK    8  A    between atoms: C_33  and  C_34
REMARK    9  A    between atoms: C_38  and  C_39
REMARK                            x       y       z     vdW  Elec       q    Type
REMARK                         _______ _______ _______ _____ _____    ______ ____
ROOT
ATOM      1  O   UNL     1     -36.579  24.005  -0.613  0.00  0.00    -0.329 OA
ATOM      2  O   UNL     1     -39.171  22.554   2.579  0.00  0.00    -0.291 OA
ATOM      3  O   UNL     1     -36.946  21.551  -1.649  0.00  0.00    -0.289 OA
ATOM      4  C   UNL     1     -37.495  24.002   1.600  0.00  0.00    +0.111 C 
ATOM      5  C   UNL     1     -37.285  24.855   0.318  0.00  0.00    +0.214 C 
ATOM      6  C   UNL     1     -36.208  23.139   1.568  0.00  0.00    +0.072 C 
ATOM      7  C   UNL     1     -35.967  22.908   0.079  0.00  0.00    +0.154 C 
ATOM      8  C   UNL     1     -38.599  25.342  -0.335  0.00  0.00    +0.139 C 
ATOM      9  C   UNL     1     -38.792  23.162   1.574  0.00  0.00    +0.176 C 
ATOM     10  C   UNL     1     -37.552  24.840   2.897  0.00  0.00    +0.013 C 
ATOM     11  C   UNL     1     -39.474  24.144  -0.735  0.00  0.00    +0.064 C 
ATOM     12  C   UNL     1     -36.140  21.880   2.403  0.00  0.00    +0.048 C 
ATOM     13  C   UNL     1     -39.588  23.081   0.316  0.00  0.00    +0.049 C 
ATOM     14  C   UNL     1     -36.632  21.649  -0.461  0.00  0.00    +0.197 C 
ATOM     15  C   UNL     1     -34.485  22.862  -0.289  0.00  0.00    +0.038 C 
ATOM     16  C   UNL     1     -38.378  26.214  -1.583  0.00  0.00    +0.035 C 
ATOM     17  C   UNL     1     -36.636  20.648   1.789  0.00  0.00    +0.131 C 
ATOM     18  C   UNL     1     -36.879  20.507   0.474  0.00  0.00    +0.049 C 
ATOM     19  C   UNL     1     -35.570  21.923   3.620  0.00  0.00    +0.133 C 
ATOM     20  C   UNL     1     -40.410  22.032   0.164  0.00  0.00    +0.132 C 
ATOM     21  C   UNL     1     -37.423  19.255  -0.155  0.00  0.00    +0.037 C 
ENDROOT
BRANCH   5  22
ATOM     22  O   UNL     1     -36.444  25.966   0.646  0.00  0.00    -0.362 OA
ATOM     23  H   UNL     1     -35.689  25.657   1.172  0.00  0.00    +0.213 HD
ENDBRANCH   5  22
BRANCH   8  24
ATOM     24  O   UNL     1     -39.343  26.136   0.595  0.00  0.00    -0.382 OA
ATOM     25  H   UNL     1     -39.087  27.067   0.502  0.00  0.00    +0.210 HD
ENDBRANCH   8  24
BRANCH  17  26
ATOM     26  O   UNL     1     -36.915  19.592   2.646  0.00  0.00    -0.506 OA
ATOM     27  H   UNL     1     -37.715  19.583   3.133  0.00  0.00    +0.292 HD
ENDBRANCH  17  26
BRANCH  19  28
ATOM     28  O   UNL     1     -35.410  20.784   4.382  0.00  0.00    -0.506 OA
ATOM     29  H   UNL     1     -34.618  20.288   4.322  0.00  0.00    +0.292 HD
ENDBRANCH  19  28
BRANCH  20  30
ATOM     30  O   UNL     1     -40.526  21.052   1.132  0.00  0.00    -0.506 OA
ATOM     31  H   UNL     1     -39.766  20.582   1.414  0.00  0.00    +0.292 HD
ENDBRANCH  20  30
BRANCH  19  32
ATOM     32  C   UNL     1     -35.087  23.156   4.204  0.00  0.00    +0.036 C 
ATOM     33  C   UNL     1     -35.496  23.671   5.375  0.00  0.00    +0.003 C 
BRANCH  33  34
ATOM     34  C   UNL     1     -34.977  24.912   5.911  0.00  0.00    -0.004 C 
ATOM     35  C   UNL     1     -33.992  25.609   5.326  0.00  0.00    -0.026 C 
ATOM     36  C   UNL     1     -33.450  26.891   5.868  0.00  0.00    +0.031 C 
ENDBRANCH  33  34
ENDBRANCH  19  32
BRANCH  20  37
ATOM     37  C   UNL     1     -41.233  21.852  -1.018  0.00  0.00    +0.036 C 
ATOM     38  C   UNL     1     -41.041  20.921  -1.966  0.00  0.00    +0.003 C 
BRANCH  38  39
ATOM     39  C   UNL     1     -41.899  20.790  -3.125  0.00  0.00    -0.004 C 
ATOM     40  C   UNL     1     -42.740  21.754  -3.528  0.00  0.00    -0.026 C 
ATOM     41  C   UNL     1     -43.629  21.629  -4.721  0.00  0.00    +0.031 C 
ENDBRANCH  38  39
ENDBRANCH  20  37
TORSDOF 9
ENDMDL
MODEL 4
REMARK VINA RESULT:      -6.2      1.732      7.875
REMARK  Name = 5368914
REMARK  9 active torsions:
REMARK  status: ('A' for Active; 'I' for Inactive)
REMARK    1  A    between atoms: C_5  and  O_22
REMARK    2  A    between atoms: C_8  and  O_24
REMARK    3  A    between atoms: C_17  and  O_26
REMARK    4  A    between atoms: C_19  and  O_28
REMARK    5  A    between atoms: C_19  and  C_32
REMARK    6  A    between atoms: C_20  and  O_30
REMARK    7  A    between atoms: C_20  and  C_37
REMARK    8  A    between atoms: C_33  and  C_34
REMARK    9  A    between atoms: C_38  and  C_39
REMARK                            x       y       z     vdW  Elec       q    Type
REMARK                         _______ _______ _______ _____ _____    ______ ____
ROOT
ATOM      1  O   UNL     1     -36.570  23.765  -0.984  0.00  0.00    -0.329 OA
ATOM      2  O   UNL     1     -37.927  21.185   2.259  0.00  0.00    -0.291 OA
ATOM      3  O   UNL     1     -34.509  24.285   0.664  0.00  0.00    -0.289 OA
ATOM      4  C   UNL     1     -38.198  22.526   0.261  0.00  0.00    +0.111 C 
ATOM      5  C   UNL     1     -37.536  22.701  -1.133  0.00  0.00    +0.214 C 
ATOM      6  C   UNL     1     -38.158  23.990   0.768  0.00  0.00    +0.072 C 
ATOM      7  C   UNL     1     -36.854  24.535   0.193  0.00  0.00    +0.154 C 
ATOM      8  C   UNL     1     -36.819  21.433  -1.653  0.00  0.00    +0.139 C 
ATOM      9  C   UNL     1     -37.442  21.542   1.182  0.00  0.00    +0.176 C 
ATOM     10  C   UNL     1     -39.655  22.016   0.193  0.00  0.00    +0.013 C 
ATOM     11  C   UNL     1     -35.706  21.012  -0.680  0.00  0.00    +0.064 C 
ATOM     12  C   UNL     1     -38.341  24.267   2.243  0.00  0.00    +0.048 C 
ATOM     13  C   UNL     1     -36.106  21.025   0.764  0.00  0.00    +0.049 C 
ATOM     14  C   UNL     1     -35.655  24.352   1.114  0.00  0.00    +0.197 C 
ATOM     15  C   UNL     1     -36.940  26.010  -0.195  0.00  0.00    +0.038 C 
ATOM     16  C   UNL     1     -36.197  21.608  -3.048  0.00  0.00    +0.035 C 
ATOM     17  C   UNL     1     -37.138  24.250   3.077  0.00  0.00    +0.131 C 
ATOM     18  C   UNL     1     -35.885  24.282   2.591  0.00  0.00    +0.049 C 
ATOM     19  C   UNL     1     -39.560  24.588   2.711  0.00  0.00    +0.133 C 
ATOM     20  C   UNL     1     -35.287  20.570   1.722  0.00  0.00    +0.132 C 
ATOM     21  C   UNL     1     -34.647  24.227   3.441  0.00  0.00    +0.037 C 
ENDROOT
BRANCH   5  22
ATOM     22  O   UNL     1     -38.539  23.127  -2.061  0.00  0.00    -0.362 OA
ATOM     23  H   UNL     1     -38.198  23.867  -2.589  0.00  0.00    +0.213 HD
ENDBRANCH   5  22
BRANCH   8  24
ATOM     24  O   UNL     1     -37.749  20.350  -1.750  0.00  0.00    -0.382 OA
ATOM     25  H   UNL     1     -37.761  20.014  -2.660  0.00  0.00    +0.210 HD
ENDBRANCH   8  24
BRANCH  17  26
ATOM     26  O   UNL     1     -37.329  24.138   4.447  0.00  0.00    -0.506 OA
ATOM     27  H   UNL     1     -36.591  24.124   5.024  0.00  0.00    +0.292 HD
ENDBRANCH  17  26
BRANCH  19  28
ATOM     28  O   UNL     1     -39.759  24.930   4.033  0.00  0.00    -0.506 OA
ATOM     29  H   UNL     1     -39.025  25.025   4.607  0.00  0.00    +0.292 HD
ENDBRANCH  19  28
BRANCH  20  30
ATOM     30  O   UNL     1     -35.652  20.573   3.055  0.00  0.00    -0.506 OA
ATOM     31  H   UNL     1     -35.225  21.152   3.656  0.00  0.00    +0.292 HD
ENDBRANCH  20  30
BRANCH  19  32
ATOM     32  C   UNL     1     -40.734  24.597   1.865  0.00  0.00    +0.036 C 
ATOM     33  C   UNL     1     -41.608  25.611   1.763  0.00  0.00    +0.003 C 
BRANCH  33  34
ATOM     34  C   UNL     1     -42.768  25.565   0.898  0.00  0.00    -0.004 C 
ATOM     35  C   UNL     1     -43.133  24.468   0.219  0.00  0.00    -0.026 C 
ATOM     36  C   UNL     1     -44.328  24.407  -0.675  0.00  0.00    +0.031 C 
ENDBRANCH  33  34
ENDBRANCH  19  32
BRANCH  20  37
ATOM     37  C   UNL     1     -33.965  20.044   1.432  0.00  0.00    +0.036 C 
ATOM     38  C   UNL     1     -33.616  18.749   1.468  0.00  0.00    +0.003 C 
BRANCH  38  39
ATOM     39  C   UNL     1     -32.279  18.285   1.166  0.00  0.00    -0.004 C 
ATOM     40  C   UNL     1     -31.375  19.027   0.509  0.00  0.00    -0.026 C 
ATOM     41  C   UNL     1     -29.993  18.560   0.192  0.00  0.00    +0.031 C 
ENDBRANCH  38  39
ENDBRANCH  20  37
TORSDOF 9
ENDMDL
MODEL 5
REMARK VINA RESULT:      -6.2      2.625      4.694
REMARK  Name = 5368914
REMARK  9 active torsions:
REMARK  status: ('A' for Active; 'I' for Inactive)
REMARK    1  A    between atoms: C_5  and  O_22
REMARK    2  A    between atoms: C_8  and  O_24
REMARK    3  A    between atoms: C_17  and  O_26
REMARK    4  A    between atoms: C_19  and  O_28
REMARK    5  A    between atoms: C_19  and  C_32
REMARK    6  A    between atoms: C_20  and  O_30
REMARK    7  A    between atoms: C_20  and  C_37
REMARK    8  A    between atoms: C_33  and  C_34
REMARK    9  A    between atoms: C_38  and  C_39
REMARK                            x       y       z     vdW  Elec       q    Type
REMARK                         _______ _______ _______ _____ _____    ______ ____
ROOT
ATOM      1  O   UNL     1     -36.891  24.375  -0.943  0.00  0.00    -0.329 OA
ATOM      2  O   UNL     1     -34.154  24.586   2.444  0.00  0.00    -0.291 OA
ATOM      3  O   UNL     1     -38.664  25.432   0.779  0.00  0.00    -0.289 OA
ATOM      4  C   UNL     1     -34.942  23.765   0.307  0.00  0.00    +0.111 C 
ATOM      5  C   UNL     1     -35.451  24.325  -1.050  0.00  0.00    +0.214 C 
ATOM      6  C   UNL     1     -36.109  22.810   0.664  0.00  0.00    +0.072 C 
ATOM      7  C   UNL     1     -37.341  23.532   0.127  0.00  0.00    +0.154 C 
ATOM      8  C   UNL     1     -34.917  25.736  -1.388  0.00  0.00    +0.139 C 
ATOM      9  C   UNL     1     -34.701  24.858   1.372  0.00  0.00    +0.176 C 
ATOM     10  C   UNL     1     -33.616  22.979   0.192  0.00  0.00    +0.013 C 
ATOM     11  C   UNL     1     -35.338  26.741  -0.304  0.00  0.00    +0.064 C 
ATOM     12  C   UNL     1     -36.256  22.323   2.088  0.00  0.00    +0.048 C 
ATOM     13  C   UNL     1     -35.143  26.256   1.101  0.00  0.00    +0.049 C 
ATOM     14  C   UNL     1     -37.999  24.458   1.141  0.00  0.00    +0.197 C 
ATOM     15  C   UNL     1     -38.406  22.580  -0.414  0.00  0.00    +0.038 C 
ATOM     16  C   UNL     1     -35.401  26.266  -2.748  0.00  0.00    +0.035 C 
ATOM     17  C   UNL     1     -37.041  23.157   2.999  0.00  0.00    +0.131 C 
ATOM     18  C   UNL     1     -37.850  24.154   2.598  0.00  0.00    +0.049 C 
ATOM     19  C   UNL     1     -35.740  21.131   2.437  0.00  0.00    +0.133 C 
ATOM     20  C   UNL     1     -35.350  27.060   2.154  0.00  0.00    +0.132 C 
ATOM     21  C   UNL     1     -38.628  25.036   3.532  0.00  0.00    +0.037 C 
ENDROOT
BRANCH   5  22
ATOM     22  O   UNL     1     -35.105  23.396  -2.082  0.00  0.00    -0.362 OA
ATOM     23  H   UNL     1     -34.183  23.540  -2.352  0.00  0.00    +0.213 HD
ENDBRANCH   5  22
BRANCH   8  24
ATOM     24  O   UNL     1     -33.487  25.720  -1.437  0.00  0.00    -0.382 OA
ATOM     25  H   UNL     1     -33.130  26.032  -0.591  0.00  0.00    +0.210 HD
ENDBRANCH   8  24
BRANCH  17  26
ATOM     26  O   UNL     1     -36.880  22.921   4.357  0.00  0.00    -0.506 OA
ATOM     27  H   UNL     1     -36.054  22.629   4.688  0.00  0.00    +0.292 HD
ENDBRANCH  17  26
BRANCH  19  28
ATOM     28  O   UNL     1     -35.922  20.608   3.700  0.00  0.00    -0.506 OA
ATOM     29  H   UNL     1     -36.786  20.430   4.013  0.00  0.00    +0.292 HD
ENDBRANCH  19  28
BRANCH  20  30
ATOM     30  O   UNL     1     -35.166  26.622   3.451  0.00  0.00    -0.506 OA
ATOM     31  H   UNL     1     -35.475  25.775   3.708  0.00  0.00    +0.292 HD
ENDBRANCH  20  30
BRANCH  19  32
ATOM     32  C   UNL     1     -34.967  20.325   1.516  0.00  0.00    +0.036 C 
ATOM     33  C   UNL     1     -33.955  19.511   1.858  0.00  0.00    +0.003 C 
BRANCH  33  34
ATOM     34  C   UNL     1     -33.216  18.727   0.891  0.00  0.00    -0.004 C 
ATOM     35  C   UNL     1     -32.056  18.117   1.175  0.00  0.00    -0.026 C 
ATOM     36  C   UNL     1     -31.285  17.304   0.187  0.00  0.00    +0.031 C 
ENDBRANCH  33  34
ENDBRANCH  19  32
BRANCH  20  37
ATOM     37  C   UNL     1     -35.781  28.438   2.009  0.00  0.00    +0.036 C 
ATOM     38  C   UNL     1     -35.202  29.501   2.589  0.00  0.00    +0.003 C 
BRANCH  38  39
ATOM     39  C   UNL     1     -35.679  30.855   2.404  0.00  0.00    -0.004 C 
ATOM     40  C   UNL     1     -36.651  31.180   1.539  0.00  0.00    -0.026 C 
ATOM     41  C   UNL     1     -37.150  32.573   1.340  0.00  0.00    +0.031 C 
ENDBRANCH  38  39
ENDBRANCH  20  37
TORSDOF 9
ENDMDL
MODEL 6
REMARK VINA RESULT:      -6.1      6.005     10.020
REMARK  Name = 5368914
REMARK  9 active torsions:
REMARK  status: ('A' for Active; 'I' for Inactive)
REMARK    1  A    between atoms: C_5  and  O_22
REMARK    2  A    between atoms: C_8  and  O_24
REMARK    3  A    between atoms: C_17  and  O_26
REMARK    4  A    between atoms: C_19  and  O_28
REMARK    5  A    between atoms: C_19  and  C_32
REMARK    6  A    between atoms: C_20  and  O_30
REMARK    7  A    between atoms: C_20  and  C_37
REMARK    8  A    between atoms: C_33  and  C_34
REMARK    9  A    between atoms: C_38  and  C_39
REMARK                            x       y       z     vdW  Elec       q    Type
REMARK                         _______ _______ _______ _____ _____    ______ ____
ROOT
ATOM      1  O   UNL     1     -33.435  28.891  -0.017  0.00  0.00    -0.329 OA
ATOM      2  O   UNL     1     -33.756  30.120   4.154  0.00  0.00    -0.291 OA
ATOM      3  O   UNL     1     -31.352  27.435   0.862  0.00  0.00    -0.289 OA
ATOM      4  C   UNL     1     -34.114  30.334   1.769  0.00  0.00    +0.111 C 
ATOM      5  C   UNL     1     -34.616  29.475   0.576  0.00  0.00    +0.214 C 
ATOM      6  C   UNL     1     -32.746  30.803   1.212  0.00  0.00    +0.072 C 
ATOM      7  C   UNL     1     -32.263  29.610   0.392  0.00  0.00    +0.154 C 
ATOM      8  C   UNL     1     -35.593  28.347   0.980  0.00  0.00    +0.139 C 
ATOM      9  C   UNL     1     -33.995  29.542   3.090  0.00  0.00    +0.176 C 
ATOM     10  C   UNL     1     -35.018  31.549   2.078  0.00  0.00    +0.013 C 
ATOM     11  C   UNL     1     -34.918  27.385   1.970  0.00  0.00    +0.064 C 
ATOM     12  C   UNL     1     -31.708  31.353   2.165  0.00  0.00    +0.048 C 
ATOM     13  C   UNL     1     -34.162  28.060   3.074  0.00  0.00    +0.049 C 
ATOM     14  C   UNL     1     -31.420  28.622   1.187  0.00  0.00    +0.197 C 
ATOM     15  C   UNL     1     -31.478  30.017  -0.853  0.00  0.00    +0.038 C 
ATOM     16  C   UNL     1     -36.109  27.525  -0.213  0.00  0.00    +0.035 C 
ATOM     17  C   UNL     1     -30.800  30.389   2.787  0.00  0.00    +0.131 C 
ATOM     18  C   UNL     1     -30.645  29.121   2.366  0.00  0.00    +0.049 C 
ATOM     19  C   UNL     1     -31.610  32.682   2.343  0.00  0.00    +0.133 C 
ATOM     20  C   UNL     1     -33.621  27.361   4.082  0.00  0.00    +0.132 C 
ATOM     21  C   UNL     1     -29.742  28.117   3.024  0.00  0.00    +0.037 C 
ENDROOT
BRANCH   5  22
ATOM     22  O   UNL     1     -35.222  30.345  -0.386  0.00  0.00    -0.362 OA
ATOM     23  H   UNL     1     -34.601  31.053  -0.619  0.00  0.00    +0.213 HD
ENDBRANCH   5  22
BRANCH   8  24
ATOM     24  O   UNL     1     -36.743  28.903   1.625  0.00  0.00    -0.382 OA
ATOM     25  H   UNL     1     -37.290  29.363   0.969  0.00  0.00    +0.210 HD
ENDBRANCH   8  24
BRANCH  17  26
ATOM     26  O   UNL     1     -30.107  30.818   3.910  0.00  0.00    -0.506 OA
ATOM     27  H   UNL     1     -29.192  31.012   3.851  0.00  0.00    +0.292 HD
ENDBRANCH  17  26
BRANCH  19  28
ATOM     28  O   UNL     1     -30.626  33.233   3.137  0.00  0.00    -0.506 OA
ATOM     29  H   UNL     1     -30.475  32.896   3.997  0.00  0.00    +0.292 HD
ENDBRANCH  19  28
BRANCH  20  30
ATOM     30  O   UNL     1     -32.928  27.977   5.106  0.00  0.00    -0.506 OA
ATOM     31  H   UNL     1     -32.937  28.911   5.181  0.00  0.00    +0.292 HD
ENDBRANCH  20  30
BRANCH  19  32
ATOM     32  C   UNL     1     -32.523  33.614   1.716  0.00  0.00    +0.036 C 
ATOM     33  C   UNL     1     -33.091  34.669   2.321  0.00  0.00    +0.003 C 
BRANCH  33  34
ATOM     34  C   UNL     1     -33.999  35.570   1.643  0.00  0.00    -0.004 C 
ATOM     35  C   UNL     1     -35.220  35.205   1.226  0.00  0.00    -0.026 C 
ATOM     36  C   UNL     1     -36.166  36.124   0.527  0.00  0.00    +0.031 C 
ENDBRANCH  33  34
ENDBRANCH  19  32
BRANCH  20  37
ATOM     37  C   UNL     1     -33.722  25.915   4.169  0.00  0.00    +0.036 C 
ATOM     38  C   UNL     1     -34.466  25.238   5.057  0.00  0.00    +0.003 C 
BRANCH  38  39
ATOM     39  C   UNL     1     -34.527  23.792   5.093  0.00  0.00    -0.004 C 
ATOM     40  C   UNL     1     -35.255  23.110   5.989  0.00  0.00    -0.026 C 
ATOM     41  C   UNL     1     -35.324  21.620   6.036  0.00  0.00    +0.031 C 
ENDBRANCH  38  39
ENDBRANCH  20  37
TORSDOF 9
ENDMDL
MODEL 7
REMARK VINA RESULT:      -6.0      1.824      7.866
REMARK  Name = 5368914
REMARK  9 active torsions:
REMARK  status: ('A' for Active; 'I' for Inactive)
REMARK    1  A    between atoms: C_5  and  O_22
REMARK    2  A    between atoms: C_8  and  O_24
REMARK    3  A    between atoms: C_17  and  O_26
REMARK    4  A    between atoms: C_19  and  O_28
REMARK    5  A    between atoms: C_19  and  C_32
REMARK    6  A    between atoms: C_20  and  O_30
REMARK    7  A    between atoms: C_20  and  C_37
REMARK    8  A    between atoms: C_33  and  C_34
REMARK    9  A    between atoms: C_38  and  C_39
REMARK                            x       y       z     vdW  Elec       q    Type
REMARK                         _______ _______ _______ _____ _____    ______ ____
ROOT
ATOM      1  O   UNL     1     -37.551  22.866  -1.258  0.00  0.00    -0.329 OA
ATOM      2  O   UNL     1     -37.719  22.131   3.037  0.00  0.00    -0.291 OA
ATOM      3  O   UNL     1     -35.002  23.562  -0.758  0.00  0.00    -0.289 OA
ATOM      4  C   UNL     1     -38.653  22.590   0.851  0.00  0.00    +0.111 C 
ATOM      5  C   UNL     1     -38.552  22.054  -0.604  0.00  0.00    +0.214 C 
ATOM      6  C   UNL     1     -38.358  24.092   0.610  0.00  0.00    +0.072 C 
ATOM      7  C   UNL     1     -37.339  24.081  -0.526  0.00  0.00    +0.154 C 
ATOM      8  C   UNL     1     -38.141  20.567  -0.700  0.00  0.00    +0.139 C 
ATOM      9  C   UNL     1     -37.655  21.921   1.823  0.00  0.00    +0.176 C 
ATOM     10  C   UNL     1     -40.053  22.407   1.480  0.00  0.00    +0.013 C 
ATOM     11  C   UNL     1     -36.767  20.348  -0.048  0.00  0.00    +0.064 C 
ATOM     12  C   UNL     1     -37.963  24.965   1.780  0.00  0.00    +0.048 C 
ATOM     13  C   UNL     1     -36.598  21.018   1.283  0.00  0.00    +0.049 C 
ATOM     14  C   UNL     1     -35.893  24.038  -0.051  0.00  0.00    +0.197 C 
ATOM     15  C   UNL     1     -37.494  25.262  -1.482  0.00  0.00    +0.038 C 
ATOM     16  C   UNL     1     -38.078  20.039  -2.143  0.00  0.00    +0.035 C 
ATOM     17  C   UNL     1     -36.539  25.034   2.107  0.00  0.00    +0.131 C 
ATOM     18  C   UNL     1     -35.557  24.611   1.290  0.00  0.00    +0.049 C 
ATOM     19  C   UNL     1     -38.903  25.690   2.413  0.00  0.00    +0.133 C 
ATOM     20  C   UNL     1     -35.502  20.824   2.030  0.00  0.00    +0.132 C 
ATOM     21  C   UNL     1     -34.096  24.646   1.637  0.00  0.00    +0.037 C 
ENDROOT
BRANCH   5  22
ATOM     22  O   UNL     1     -39.807  22.272  -1.256  0.00  0.00    -0.362 OA
ATOM     23  H   UNL     1     -39.864  21.712  -2.047  0.00  0.00    +0.213 HD
ENDBRANCH   5  22
BRANCH   8  24
ATOM     24  O   UNL     1     -39.091  19.752  -0.005  0.00  0.00    -0.382 OA
ATOM     25  H   UNL     1     -39.300  18.971  -0.541  0.00  0.00    +0.210 HD
ENDBRANCH   8  24
BRANCH  17  26
ATOM     26  O   UNL     1     -36.209  25.519   3.365  0.00  0.00    -0.506 OA
ATOM     27  H   UNL     1     -35.560  26.188   3.454  0.00  0.00    +0.292 HD
ENDBRANCH  17  26
BRANCH  19  28
ATOM     28  O   UNL     1     -38.578  26.563   3.430  0.00  0.00    -0.506 OA
ATOM     29  H   UNL     1     -38.941  26.442   4.284  0.00  0.00    +0.292 HD
ENDBRANCH  19  28
BRANCH  20  30
ATOM     30  O   UNL     1     -35.343  21.433   3.260  0.00  0.00    -0.506 OA
ATOM     31  H   UNL     1     -35.852  21.146   3.993  0.00  0.00    +0.292 HD
ENDBRANCH  20  30
BRANCH  19  32
ATOM     32  C   UNL     1     -40.306  25.603   2.069  0.00  0.00    +0.036 C 
ATOM     33  C   UNL     1     -41.290  26.320   2.637  0.00  0.00    +0.003 C 
BRANCH  33  34
ATOM     34  C   UNL     1     -42.679  26.190   2.252  0.00  0.00    -0.004 C 
ATOM     35  C   UNL     1     -43.121  25.250   1.404  0.00  0.00    -0.026 C 
ATOM     36  C   UNL     1     -44.552  25.105   1.001  0.00  0.00    +0.031 C 
ENDBRANCH  33  34
ENDBRANCH  19  32
BRANCH  20  37
ATOM     37  C   UNL     1     -34.411  19.966   1.605  0.00  0.00    +0.036 C 
ATOM     38  C   UNL     1     -33.377  20.342   0.837  0.00  0.00    +0.003 C 
BRANCH  38  39
ATOM     39  C   UNL     1     -32.317  19.438   0.446  0.00  0.00    -0.004 C 
ATOM     40  C   UNL     1     -32.035  18.308   1.109  0.00  0.00    -0.026 C 
ATOM     41  C   UNL     1     -30.943  17.368   0.716  0.00  0.00    +0.031 C 
ENDBRANCH  38  39
ENDBRANCH  20  37
TORSDOF 9
ENDMDL
MODEL 8
REMARK VINA RESULT:      -6.0      2.014      3.440
REMARK  Name = 5368914
REMARK  9 active torsions:
REMARK  status: ('A' for Active; 'I' for Inactive)
REMARK    1  A    between atoms: C_5  and  O_22
REMARK    2  A    between atoms: C_8  and  O_24
REMARK    3  A    between atoms: C_17  and  O_26
REMARK    4  A    between atoms: C_19  and  O_28
REMARK    5  A    between atoms: C_19  and  C_32
REMARK    6  A    between atoms: C_20  and  O_30
REMARK    7  A    between atoms: C_20  and  C_37
REMARK    8  A    between atoms: C_33  and  C_34
REMARK    9  A    between atoms: C_38  and  C_39
REMARK                            x       y       z     vdW  Elec       q    Type
REMARK                         _______ _______ _______ _____ _____    ______ ____
ROOT
ATOM      1  O   UNL     1     -36.774  23.838  -1.331  0.00  0.00    -0.329 OA
ATOM      2  O   UNL     1     -35.438  23.625   2.814  0.00  0.00    -0.291 OA
ATOM      3  O   UNL     1     -39.104  22.936  -0.335  0.00  0.00    -0.289 OA
ATOM      4  C   UNL     1     -35.138  23.697   0.413  0.00  0.00    +0.111 C 
ATOM      5  C   UNL     1     -35.621  24.532  -0.806  0.00  0.00    +0.214 C 
ATOM      6  C   UNL     1     -35.512  22.272  -0.068  0.00  0.00    +0.072 C 
ATOM      7  C   UNL     1     -36.800  22.484  -0.858  0.00  0.00    +0.154 C 
ATOM      8  C   UNL     1     -36.017  25.985  -0.455  0.00  0.00    +0.139 C 
ATOM      9  C   UNL     1     -35.825  24.092   1.739  0.00  0.00    +0.176 C 
ATOM     10  C   UNL     1     -33.618  23.800   0.669  0.00  0.00    +0.013 C 
ATOM     11  C   UNL     1     -37.160  25.994   0.573  0.00  0.00    +0.064 C 
ATOM     12  C   UNL     1     -35.590  21.148   0.941  0.00  0.00    +0.048 C 
ATOM     13  C   UNL     1     -36.973  25.043   1.716  0.00  0.00    +0.049 C 
ATOM     14  C   UNL     1     -38.063  22.358  -0.016  0.00  0.00    +0.197 C 
ATOM     15  C   UNL     1     -36.929  21.548  -2.058  0.00  0.00    +0.038 C 
ATOM     16  C   UNL     1     -36.461  26.811  -1.674  0.00  0.00    +0.035 C 
ATOM     17  C   UNL     1     -36.873  20.945   1.613  0.00  0.00    +0.131 C 
ATOM     18  C   UNL     1     -38.032  21.492   1.204  0.00  0.00    +0.049 C 
ATOM     19  C   UNL     1     -34.526  20.346   1.122  0.00  0.00    +0.133 C 
ATOM     20  C   UNL     1     -37.823  25.020   2.753  0.00  0.00    +0.132 C 
ATOM     21  C   UNL     1     -39.345  21.317   1.912  0.00  0.00    +0.037 C 
ENDROOT
BRANCH   5  22
ATOM     22  O   UNL     1     -34.592  24.518  -1.801  0.00  0.00    -0.362 OA
ATOM     23  H   UNL     1     -33.742  24.300  -1.385  0.00  0.00    +0.213 HD
ENDBRANCH   5  22
BRANCH   8  24
ATOM     24  O   UNL     1     -34.902  26.670   0.124  0.00  0.00    -0.382 OA
ATOM     25  H   UNL     1     -34.627  26.213   0.934  0.00  0.00    +0.210 HD
ENDBRANCH   8  24
BRANCH  17  26
ATOM     26  O   UNL     1     -36.858  20.183   2.773  0.00  0.00    -0.506 OA
ATOM     27  H   UNL     1     -36.808  20.603   3.609  0.00  0.00    +0.292 HD
ENDBRANCH  17  26
BRANCH  19  28
ATOM     28  O   UNL     1     -34.578  19.258   1.969  0.00  0.00    -0.506 OA
ATOM     29  H   UNL     1     -34.138  19.287   2.795  0.00  0.00    +0.292 HD
ENDBRANCH  19  28
BRANCH  20  30
ATOM     30  O   UNL     1     -37.653  24.151   3.814  0.00  0.00    -0.506 OA
ATOM     31  H   UNL     1     -36.861  24.172   4.314  0.00  0.00    +0.292 HD
ENDBRANCH  20  30
BRANCH  19  32
ATOM     32  C   UNL     1     -33.266  20.568   0.444  0.00  0.00    +0.036 C 
ATOM     33  C   UNL     1     -32.209  19.741   0.480  0.00  0.00    +0.003 C 
BRANCH  33  34
ATOM     34  C   UNL     1     -30.972  20.016  -0.219  0.00  0.00    -0.004 C 
ATOM     35  C   UNL     1     -30.715  21.185  -0.823  0.00  0.00    -0.026 C 
ATOM     36  C   UNL     1     -29.442  21.482  -1.546  0.00  0.00    +0.031 C 
ENDBRANCH  33  34
ENDBRANCH  19  32
BRANCH  20  37
ATOM     37  C   UNL     1     -38.974  25.900   2.837  0.00  0.00    +0.036 C 
ATOM     38  C   UNL     1     -40.249  25.539   2.624  0.00  0.00    +0.003 C 
BRANCH  38  39
ATOM     39  C   UNL     1     -41.356  26.465   2.723  0.00  0.00    -0.004 C 
ATOM     40  C   UNL     1     -41.861  26.883   3.893  0.00  0.00    -0.026 C 
ATOM     41  C   UNL     1     -43.004  27.837   4.008  0.00  0.00    +0.031 C 
ENDBRANCH  38  39
ENDBRANCH  20  37
TORSDOF 9
ENDMDL
MODEL 9
REMARK VINA RESULT:      -6.0      2.487      5.153
REMARK  Name = 5368914
REMARK  9 active torsions:
REMARK  status: ('A' for Active; 'I' for Inactive)
REMARK    1  A    between atoms: C_5  and  O_22
REMARK    2  A    between atoms: C_8  and  O_24
REMARK    3  A    between atoms: C_17  and  O_26
REMARK    4  A    between atoms: C_19  and  O_28
REMARK    5  A    between atoms: C_19  and  C_32
REMARK    6  A    between atoms: C_20  and  O_30
REMARK    7  A    between atoms: C_20  and  C_37
REMARK    8  A    between atoms: C_33  and  C_34
REMARK    9  A    between atoms: C_38  and  C_39
REMARK                            x       y       z     vdW  Elec       q    Type
REMARK                         _______ _______ _______ _____ _____    ______ ____
ROOT
ATOM      1  O   UNL     1     -36.128  24.270  -0.533  0.00  0.00    -0.329 OA
ATOM      2  O   UNL     1     -36.787  20.955   2.221  0.00  0.00    -0.291 OA
ATOM      3  O   UNL     1     -37.385  25.721   1.350  0.00  0.00    -0.289 OA
ATOM      4  C   UNL     1     -36.351  21.961   0.063  0.00  0.00    +0.111 C 
ATOM      5  C   UNL     1     -35.405  23.020  -0.569  0.00  0.00    +0.214 C 
ATOM      6  C   UNL     1     -37.724  22.517  -0.391  0.00  0.00    +0.072 C 
ATOM      7  C   UNL     1     -37.531  24.030  -0.354  0.00  0.00    +0.154 C 
ATOM      8  C   UNL     1     -34.062  23.188   0.178  0.00  0.00    +0.139 C 
ATOM      9  C   UNL     1     -36.214  21.853   1.598  0.00  0.00    +0.176 C 
ATOM     10  C   UNL     1     -36.136  20.534  -0.489  0.00  0.00    +0.013 C 
ATOM     11  C   UNL     1     -34.308  23.622   1.631  0.00  0.00    +0.064 C 
ATOM     12  C   UNL     1     -38.981  22.042   0.304  0.00  0.00    +0.048 C 
ATOM     13  C   UNL     1     -35.387  22.853   2.333  0.00  0.00    +0.049 C 
ATOM     14  C   UNL     1     -37.897  24.662   0.983  0.00  0.00    +0.197 C 
ATOM     15  C   UNL     1     -38.298  24.760  -1.455  0.00  0.00    +0.038 C 
ATOM     16  C   UNL     1     -33.120  24.214  -0.476  0.00  0.00    +0.035 C 
ATOM     17  C   UNL     1     -39.400  22.780   1.496  0.00  0.00    +0.131 C 
ATOM     18  C   UNL     1     -38.918  23.986   1.843  0.00  0.00    +0.049 C 
ATOM     19  C   UNL     1     -39.692  21.033  -0.229  0.00  0.00    +0.133 C 
ATOM     20  C   UNL     1     -35.638  23.031   3.638  0.00  0.00    +0.132 C 
ATOM     21  C   UNL     1     -39.319  24.730   3.085  0.00  0.00    +0.037 C 
ENDROOT
BRANCH   5  22
ATOM     22  O   UNL     1     -35.178  22.666  -1.937  0.00  0.00    -0.362 OA
ATOM     23  H   UNL     1     -35.851  23.087  -2.496  0.00  0.00    +0.213 HD
ENDBRANCH   5  22
BRANCH   8  24
ATOM     24  O   UNL     1     -33.358  21.943   0.206  0.00  0.00    -0.382 OA
ATOM     25  H   UNL     1     -32.565  22.007  -0.350  0.00  0.00    +0.210 HD
ENDBRANCH   8  24
BRANCH  17  26
ATOM     26  O   UNL     1     -40.312  22.150   2.332  0.00  0.00    -0.506 OA
ATOM     27  H   UNL     1     -40.395  22.422   3.224  0.00  0.00    +0.292 HD
ENDBRANCH  17  26
BRANCH  19  28
ATOM     28  O   UNL     1     -40.887  20.622   0.323  0.00  0.00    -0.506 OA
ATOM     29  H   UNL     1     -40.927  20.383   1.228  0.00  0.00    +0.292 HD
ENDBRANCH  19  28
BRANCH  20  30
ATOM     30  O   UNL     1     -36.626  22.321   4.293  0.00  0.00    -0.506 OA
ATOM     31  H   UNL     1     -37.304  22.778   4.753  0.00  0.00    +0.292 HD
ENDBRANCH  20  30
BRANCH  19  32
ATOM     32  C   UNL     1     -39.254  20.320  -1.410  0.00  0.00    +0.036 C 
ATOM     33  C   UNL     1     -39.301  18.988  -1.574  0.00  0.00    +0.003 C 
BRANCH  33  34
ATOM     34  C   UNL     1     -38.848  18.327  -2.779  0.00  0.00    -0.004 C 
ATOM     35  C   UNL     1     -37.751  18.703  -3.453  0.00  0.00    -0.026 C 
ATOM     36  C   UNL     1     -37.272  18.029  -4.697  0.00  0.00    +0.031 C 
ENDBRANCH  33  34
ENDBRANCH  19  32
BRANCH  20  37
ATOM     37  C   UNL     1     -34.895  23.976   4.452  0.00  0.00    +0.036 C 
ATOM     38  C   UNL     1     -35.435  24.909   5.252  0.00  0.00    +0.003 C 
BRANCH  38  39
ATOM     39  C   UNL     1     -34.640  25.824   6.041  0.00  0.00    -0.004 C 
ATOM     40  C   UNL     1     -33.522  26.408   5.585  0.00  0.00    -0.026 C 
ATOM     41  C   UNL     1     -32.694  27.353   6.390  0.00  0.00    +0.031 C 
ENDBRANCH  38  39
ENDBRANCH  20  37
TORSDOF 9
ENDMDL
