MODEL 1
REMARK VINA RESULT:      -6.7      0.000      0.000
REMARK  Name = 5748400
REMARK  7 active torsions:
REMARK  status: ('A' for Active; 'I' for Inactive)
REMARK    1  A    between atoms: N_2  and  CA_17
REMARK    2  A    between atoms: C_3  and  CA_5
REMARK    3  A    between atoms: CA_5  and  N_8
REMARK    4  A    between atoms: C_9  and  C_11
REMARK    5  A    between atoms: CA_17  and  C_24
REMARK    6  A    between atoms: CA_20  and  C_26
REMARK    7  A    between atoms: C_26  and  O_27
REMARK                            x       y       z     vdW  Elec       q    Type
REMARK                         _______ _______ _______ _____ _____    ______ ____
ROOT
ATOM      1  O   ALA A   1     -40.727  25.018   1.969  0.00  0.00    -0.273 OA
ATOM      2  N   ALA A   1     -40.883  26.619   3.644  0.00  0.00    -0.295 N 
ATOM      3  C   ALA A   1     -40.193  25.834   2.716  0.00  0.00    +0.241 C 
ATOM      4  H   ALA A   1     -40.368  27.246   4.200  0.00  0.00    +0.150 HD
ENDROOT
BRANCH   3   5
ATOM      5  CA  ALA A   1     -38.699  26.131   2.690  0.00  0.00    +0.149 C 
ATOM      6  CB  ALA A   1     -38.231  26.440   1.276  0.00  0.00    +0.031 C 
BRANCH   5   8
ATOM      7  O   UNK A   0     -36.192  26.151   4.089  0.00  0.00    -0.270 OA
ATOM      8  N   ALA A   1     -38.010  24.991   3.232  0.00  0.00    -0.295 N 
ATOM      9  C   UNK A   0     -36.794  25.098   3.897  0.00  0.00    +0.246 C 
ATOM     10  H   ALA A   1     -38.414  24.100   3.129  0.00  0.00    +0.150 HD
BRANCH   9  11
ATOM     11  C   UNK A   0     -36.198  23.824   4.376  0.00  0.00    +0.053 C 
ATOM     12  C   UNK A   0     -35.674  23.741   5.666  0.00  0.00    +0.005 C 
ATOM     13  C   UNK A   0     -36.162  22.711   3.536  0.00  0.00    +0.005 C 
ATOM     14  C   UNK A   0     -35.113  22.546   6.116  0.00  0.00    +0.000 C 
ATOM     15  C   UNK A   0     -35.602  21.515   3.985  0.00  0.00    +0.000 C 
ATOM     16  C   UNK A   0     -35.078  21.433   5.276  0.00  0.00    +0.000 C 
ENDBRANCH   9  11
ENDBRANCH   5   8
ENDBRANCH   3   5
BRANCH   2  17
ATOM     17  CA  ALA A   1     -42.296  26.554   3.825  0.00  0.00    +0.176 C 
BRANCH  17  24
ATOM     18  O   ALA A   1     -41.930  28.889   4.112  0.00  0.00    -0.273 OA
ATOM     19  N   ALA A   1     -44.000  28.061   4.732  0.00  0.00    -0.270 N 
ATOM     20  CA  ALA A   1     -44.618  29.349   5.016  0.00  0.00    +0.175 C 
ATOM     21  CB  ALA A   1     -46.112  29.056   5.089  0.00  0.00    +0.033 C 
ATOM     22  CG  ALA A   1     -46.166  27.606   5.564  0.00  0.00    +0.024 C 
ATOM     23  CD  ALA A   1     -44.961  26.971   4.887  0.00  0.00    +0.094 C 
ATOM     24  C   ALA A   1     -42.714  27.945   4.229  0.00  0.00    +0.246 C 
BRANCH  20  26
ATOM     25  OXT ALA A   1     -44.504  29.477   7.428  0.00  0.00    -0.248 OA
ATOM     26  C   ALA A   1     -44.078  29.817   6.334  0.00  0.00    +0.332 C 
BRANCH  26  27
ATOM     27  O   ALA A   1     -43.046  30.676   6.151  0.00  0.00    -0.479 OA
ATOM     28  H   ALA A   1     -43.048  31.509   6.581  0.00  0.00    +0.295 HD
ENDBRANCH  26  27
ENDBRANCH  20  26
ENDBRANCH  17  24
ENDBRANCH   2  17
TORSDOF 7
ENDMDL
MODEL 2
REMARK VINA RESULT:      -6.6      6.785      8.830
REMARK  Name = 5748400
REMARK  7 active torsions:
REMARK  status: ('A' for Active; 'I' for Inactive)
REMARK    1  A    between atoms: N_2  and  CA_17
REMARK    2  A    between atoms: C_3  and  CA_5
REMARK    3  A    between atoms: CA_5  and  N_8
REMARK    4  A    between atoms: C_9  and  C_11
REMARK    5  A    between atoms: CA_17  and  C_24
REMARK    6  A    between atoms: CA_20  and  C_26
REMARK    7  A    between atoms: C_26  and  O_27
REMARK                            x       y       z     vdW  Elec       q    Type
REMARK                         _______ _______ _______ _____ _____    ______ ____
ROOT
ATOM      1  O   ALA A   1     -35.580  23.922   0.133  0.00  0.00    -0.273 OA
ATOM      2  N   ALA A   1     -36.201  21.722   0.542  0.00  0.00    -0.295 N 
ATOM      3  C   ALA A   1     -35.555  22.733  -0.175  0.00  0.00    +0.241 C 
ATOM      4  H   ALA A   1     -36.124  20.796   0.218  0.00  0.00    +0.150 HD
ENDROOT
BRANCH   3   5
ATOM      5  CA  ALA A   1     -34.768  22.199  -1.365  0.00  0.00    +0.149 C 
ATOM      6  CB  ALA A   1     -35.705  21.717  -2.463  0.00  0.00    +0.031 C 
BRANCH   5   8
ATOM      7  O   UNK A   0     -32.079  22.454  -0.394  0.00  0.00    -0.270 OA
ATOM      8  N   ALA A   1     -33.921  21.135  -0.896  0.00  0.00    -0.295 N 
ATOM      9  C   UNK A   0     -32.626  21.355  -0.442  0.00  0.00    +0.246 C 
ATOM     10  H   ALA A   1     -34.271  20.216  -0.895  0.00  0.00    +0.150 HD
BRANCH   9  11
ATOM     11  C   UNK A   0     -31.871  20.149  -0.014  0.00  0.00    +0.053 C 
ATOM     12  C   UNK A   0     -30.545  19.979  -0.413  0.00  0.00    +0.005 C 
ATOM     13  C   UNK A   0     -32.488  19.187   0.785  0.00  0.00    +0.005 C 
ATOM     14  C   UNK A   0     -29.836  18.847  -0.012  0.00  0.00    +0.000 C 
ATOM     15  C   UNK A   0     -31.779  18.055   1.186  0.00  0.00    +0.000 C 
ATOM     16  C   UNK A   0     -30.453  17.885   0.788  0.00  0.00    +0.000 C 
ENDBRANCH   9  11
ENDBRANCH   5   8
ENDBRANCH   3   5
BRANCH   2  17
ATOM     17  CA  ALA A   1     -36.966  21.966   1.721  0.00  0.00    +0.176 C 
BRANCH  17  24
ATOM     18  O   ALA A   1     -35.448  20.609   2.954  0.00  0.00    -0.273 OA
ATOM     19  N   ALA A   1     -35.903  22.716   3.795  0.00  0.00    -0.270 N 
ATOM     20  CA  ALA A   1     -34.924  22.680   4.874  0.00  0.00    +0.175 C 
ATOM     21  CB  ALA A   1     -34.799  24.129   5.333  0.00  0.00    +0.033 C 
ATOM     22  CG  ALA A   1     -36.173  24.719   5.022  0.00  0.00    +0.024 C 
ATOM     23  CD  ALA A   1     -36.575  24.012   3.736  0.00  0.00    +0.094 C 
ATOM     24  C   ALA A   1     -36.032  21.691   2.872  0.00  0.00    +0.246 C 
BRANCH  20  26
ATOM     25  OXT ALA A   1     -36.215  22.180   6.856  0.00  0.00    -0.248 OA
ATOM     26  C   ALA A   1     -35.487  21.802   5.951  0.00  0.00    +0.332 C 
BRANCH  26  27
ATOM     27  O   ALA A   1     -35.075  20.521   5.788  0.00  0.00    -0.479 OA
ATOM     28  H   ALA A   1     -35.705  19.834   5.698  0.00  0.00    +0.295 HD
ENDBRANCH  26  27
ENDBRANCH  20  26
ENDBRANCH  17  24
ENDBRANCH   2  17
TORSDOF 7
ENDMDL
MODEL 3
REMARK VINA RESULT:      -6.5      6.519      8.627
REMARK  Name = 5748400
REMARK  7 active torsions:
REMARK  status: ('A' for Active; 'I' for Inactive)
REMARK    1  A    between atoms: N_2  and  CA_17
REMARK    2  A    between atoms: C_3  and  CA_5
REMARK    3  A    between atoms: CA_5  and  N_8
REMARK    4  A    between atoms: C_9  and  C_11
REMARK    5  A    between atoms: CA_17  and  C_24
REMARK    6  A    between atoms: CA_20  and  C_26
REMARK    7  A    between atoms: C_26  and  O_27
REMARK                            x       y       z     vdW  Elec       q    Type
REMARK                         _______ _______ _______ _____ _____    ______ ____
ROOT
ATOM      1  O   ALA A   1     -37.304  24.257   4.086  0.00  0.00    -0.273 OA
ATOM      2  N   ALA A   1     -35.150  24.698   4.832  0.00  0.00    -0.295 N 
ATOM      3  C   ALA A   1     -36.235  23.865   4.547  0.00  0.00    +0.241 C 
ATOM      4  H   ALA A   1     -34.332  24.292   5.200  0.00  0.00    +0.150 HD
ENDROOT
BRANCH   3   5
ATOM      5  CA  ALA A   1     -35.937  22.396   4.824  0.00  0.00    +0.149 C 
ATOM      6  CB  ALA A   1     -35.307  22.219   6.197  0.00  0.00    +0.031 C 
BRANCH   5   8
ATOM      7  O   UNK A   0     -36.736  21.128   2.375  0.00  0.00    -0.270 OA
ATOM      8  N   ALA A   1     -35.068  21.916   3.783  0.00  0.00    -0.295 N 
ATOM      9  C   UNK A   0     -35.548  21.312   2.627  0.00  0.00    +0.246 C 
ATOM     10  H   ALA A   1     -34.096  22.019   3.893  0.00  0.00    +0.150 HD
BRANCH   9  11
ATOM     11  C   UNK A   0     -34.521  20.847   1.659  0.00  0.00    +0.053 C 
ATOM     12  C   UNK A   0     -34.044  19.538   1.724  0.00  0.00    +0.005 C 
ATOM     13  C   UNK A   0     -34.034  21.720   0.687  0.00  0.00    +0.005 C 
ATOM     14  C   UNK A   0     -33.080  19.101   0.815  0.00  0.00    +0.000 C 
ATOM     15  C   UNK A   0     -33.069  21.283  -0.222  0.00  0.00    +0.000 C 
ATOM     16  C   UNK A   0     -32.593  19.974  -0.157  0.00  0.00    +0.000 C 
ENDBRANCH   9  11
ENDBRANCH   5   8
ENDBRANCH   3   5
BRANCH   2  17
ATOM     17  CA  ALA A   1     -35.168  26.107   4.617  0.00  0.00    +0.176 C 
BRANCH  17  24
ATOM     18  O   ALA A   1     -33.336  26.134   6.137  0.00  0.00    -0.273 OA
ATOM     19  N   ALA A   1     -33.256  27.615   4.361  0.00  0.00    -0.270 N 
ATOM     20  CA  ALA A   1     -31.903  28.098   4.607  0.00  0.00    +0.175 C 
ATOM     21  CB  ALA A   1     -31.510  28.820   3.323  0.00  0.00    +0.033 C 
ATOM     22  CG  ALA A   1     -32.844  29.318   2.772  0.00  0.00    +0.024 C 
ATOM     23  CD  ALA A   1     -33.813  28.205   3.146  0.00  0.00    +0.094 C 
ATOM     24  C   ALA A   1     -33.837  26.609   5.116  0.00  0.00    +0.246 C 
BRANCH  20  26
ATOM     25  OXT ALA A   1     -32.406  30.179   5.730  0.00  0.00    -0.248 OA
ATOM     26  C   ALA A   1     -31.976  29.036   5.774  0.00  0.00    +0.332 C 
BRANCH  26  27
ATOM     27  O   ALA A   1     -31.493  28.446   6.894  0.00  0.00    -0.479 OA
ATOM     28  H   ALA A   1     -31.087  28.965   7.560  0.00  0.00    +0.295 HD
ENDBRANCH  26  27
ENDBRANCH  20  26
ENDBRANCH  17  24
ENDBRANCH   2  17
TORSDOF 7
ENDMDL
MODEL 4
REMARK VINA RESULT:      -6.5      5.411      9.172
REMARK  Name = 5748400
REMARK  7 active torsions:
REMARK  status: ('A' for Active; 'I' for Inactive)
REMARK    1  A    between atoms: N_2  and  CA_17
REMARK    2  A    between atoms: C_3  and  CA_5
REMARK    3  A    between atoms: CA_5  and  N_8
REMARK    4  A    between atoms: C_9  and  C_11
REMARK    5  A    between atoms: CA_17  and  C_24
REMARK    6  A    between atoms: CA_20  and  C_26
REMARK    7  A    between atoms: C_26  and  O_27
REMARK                            x       y       z     vdW  Elec       q    Type
REMARK                         _______ _______ _______ _____ _____    ______ ____
ROOT
ATOM      1  O   ALA A   1     -31.395  27.368   6.409  0.00  0.00    -0.273 OA
ATOM      2  N   ALA A   1     -33.332  27.706   5.174  0.00  0.00    -0.295 N 
ATOM      3  C   ALA A   1     -32.133  28.110   5.766  0.00  0.00    +0.241 C 
ATOM      4  H   ALA A   1     -33.857  28.373   4.677  0.00  0.00    +0.150 HD
ENDROOT
BRANCH   3   5
ATOM      5  CA  ALA A   1     -31.804  29.572   5.489  0.00  0.00    +0.149 C 
ATOM      6  CB  ALA A   1     -31.677  30.356   6.787  0.00  0.00    +0.031 C 
BRANCH   5   8
ATOM      7  O   UNK A   0     -31.506  31.593   3.472  0.00  0.00    -0.270 OA
ATOM      8  N   ALA A   1     -32.844  30.110   4.652  0.00  0.00    -0.295 N 
ATOM      9  C   UNK A   0     -32.603  31.092   3.699  0.00  0.00    +0.246 C 
ATOM     10  H   ALA A   1     -33.761  29.770   4.759  0.00  0.00    +0.150 HD
BRANCH   9  11
ATOM     11  C   UNK A   0     -33.787  31.560   2.932  0.00  0.00    +0.053 C 
ATOM     12  C   UNK A   0     -34.991  30.860   3.011  0.00  0.00    +0.005 C 
ATOM     13  C   UNK A   0     -33.695  32.700   2.134  0.00  0.00    +0.005 C 
ATOM     14  C   UNK A   0     -36.102  31.299   2.292  0.00  0.00    +0.000 C 
ATOM     15  C   UNK A   0     -34.806  33.140   1.414  0.00  0.00    +0.000 C 
ATOM     16  C   UNK A   0     -36.009  32.439   1.494  0.00  0.00    +0.000 C 
ENDBRANCH   9  11
ENDBRANCH   5   8
ENDBRANCH   3   5
BRANCH   2  17
ATOM     17  CA  ALA A   1     -33.834  26.373   5.255  0.00  0.00    +0.176 C 
BRANCH  17  24
ATOM     18  O   ALA A   1     -35.273  27.293   3.597  0.00  0.00    -0.273 OA
ATOM     19  N   ALA A   1     -35.444  25.021   4.001  0.00  0.00    -0.270 N 
ATOM     20  CA  ALA A   1     -36.375  24.729   2.918  0.00  0.00    +0.175 C 
ATOM     21  CB  ALA A   1     -36.336  23.211   2.772  0.00  0.00    +0.033 C 
ATOM     22  CG  ALA A   1     -35.995  22.728   4.180  0.00  0.00    +0.024 C 
ATOM     23  CD  ALA A   1     -35.046  23.800   4.697  0.00  0.00    +0.094 C 
ATOM     24  C   ALA A   1     -34.912  26.284   4.205  0.00  0.00    +0.246 C 
BRANCH  20  26
ATOM     25  OXT ALA A   1     -38.569  24.527   3.912  0.00  0.00    -0.248 OA
ATOM     26  C   ALA A   1     -37.725  25.211   3.353  0.00  0.00    +0.332 C 
BRANCH  26  27
ATOM     27  O   ALA A   1     -37.890  26.519   3.040  0.00  0.00    -0.479 OA
ATOM     28  H   ALA A   1     -38.513  27.039   3.510  0.00  0.00    +0.295 HD
ENDBRANCH  26  27
ENDBRANCH  20  26
ENDBRANCH  17  24
ENDBRANCH   2  17
TORSDOF 7
ENDMDL
MODEL 5
REMARK VINA RESULT:      -6.3      6.629      9.531
REMARK  Name = 5748400
REMARK  7 active torsions:
REMARK  status: ('A' for Active; 'I' for Inactive)
REMARK    1  A    between atoms: N_2  and  CA_17
REMARK    2  A    between atoms: C_3  and  CA_5
REMARK    3  A    between atoms: CA_5  and  N_8
REMARK    4  A    between atoms: C_9  and  C_11
REMARK    5  A    between atoms: CA_17  and  C_24
REMARK    6  A    between atoms: CA_20  and  C_26
REMARK    7  A    between atoms: C_26  and  O_27
REMARK                            x       y       z     vdW  Elec       q    Type
REMARK                         _______ _______ _______ _____ _____    ______ ____
ROOT
ATOM      1  O   ALA A   1     -38.553  19.481  -0.613  0.00  0.00    -0.273 OA
ATOM      2  N   ALA A   1     -36.883  19.505   1.001  0.00  0.00    -0.295 N 
ATOM      3  C   ALA A   1     -37.578  18.955  -0.079  0.00  0.00    +0.241 C 
ATOM      4  H   ALA A   1     -36.113  19.010   1.363  0.00  0.00    +0.150 HD
ENDROOT
BRANCH   3   5
ATOM      5  CA  ALA A   1     -36.969  17.647  -0.566  0.00  0.00    +0.149 C 
ATOM      6  CB  ALA A   1     -37.730  16.453  -0.009  0.00  0.00    +0.031 C 
BRANCH   5   8
ATOM      7  O   UNK A   0     -34.680  17.972  -2.268  0.00  0.00    -0.270 OA
ATOM      8  N   ALA A   1     -35.589  17.622  -0.162  0.00  0.00    -0.295 N 
ATOM      9  C   UNK A   0     -34.543  17.789  -1.061  0.00  0.00    +0.246 C 
ATOM     10  H   ALA A   1     -35.376  17.482   0.789  0.00  0.00    +0.150 HD
BRANCH   9  11
ATOM     11  C   UNK A   0     -33.173  17.713  -0.490  0.00  0.00    +0.053 C 
ATOM     12  C   UNK A   0     -32.102  17.325  -1.296  0.00  0.00    +0.005 C 
ATOM     13  C   UNK A   0     -32.958  18.027   0.851  0.00  0.00    +0.005 C 
ATOM     14  C   UNK A   0     -30.816  17.253  -0.760  0.00  0.00    +0.000 C 
ATOM     15  C   UNK A   0     -31.672  17.955   1.388  0.00  0.00    +0.000 C 
ATOM     16  C   UNK A   0     -30.601  17.568   0.581  0.00  0.00    +0.000 C 
ENDBRANCH   9  11
ENDBRANCH   5   8
ENDBRANCH   3   5
BRANCH   2  17
ATOM     17  CA  ALA A   1     -37.235  20.747   1.608  0.00  0.00    +0.176 C 
BRANCH  17  24
ATOM     18  O   ALA A   1     -35.306  20.157   2.873  0.00  0.00    -0.273 OA
ATOM     19  N   ALA A   1     -36.252  22.226   3.293  0.00  0.00    -0.270 N 
ATOM     20  CA  ALA A   1     -35.217  22.702   4.201  0.00  0.00    +0.175 C 
ATOM     21  CB  ALA A   1     -35.458  24.204   4.311  0.00  0.00    +0.033 C 
ATOM     22  CG  ALA A   1     -36.961  24.340   4.083  0.00  0.00    +0.024 C 
ATOM     23  CD  ALA A   1     -37.257  23.259   3.053  0.00  0.00    +0.094 C 
ATOM     24  C   ALA A   1     -36.170  21.005   2.643  0.00  0.00    +0.246 C 
BRANCH  20  26
ATOM     25  OXT ALA A   1     -36.053  22.463   6.456  0.00  0.00    -0.248 OA
ATOM     26  C   ALA A   1     -35.425  22.007   5.512  0.00  0.00    +0.332 C 
BRANCH  26  27
ATOM     27  O   ALA A   1     -34.819  20.796   5.514  0.00  0.00    -0.479 OA
ATOM     28  H   ALA A   1     -35.280  20.041   5.825  0.00  0.00    +0.295 HD
ENDBRANCH  26  27
ENDBRANCH  20  26
ENDBRANCH  17  24
ENDBRANCH   2  17
TORSDOF 7
ENDMDL
MODEL 6
REMARK VINA RESULT:      -6.2      6.279      9.220
REMARK  Name = 5748400
REMARK  7 active torsions:
REMARK  status: ('A' for Active; 'I' for Inactive)
REMARK    1  A    between atoms: N_2  and  CA_17
REMARK    2  A    between atoms: C_3  and  CA_5
REMARK    3  A    between atoms: CA_5  and  N_8
REMARK    4  A    between atoms: C_9  and  C_11
REMARK    5  A    between atoms: CA_17  and  C_24
REMARK    6  A    between atoms: CA_20  and  C_26
REMARK    7  A    between atoms: C_26  and  O_27
REMARK                            x       y       z     vdW  Elec       q    Type
REMARK                         _______ _______ _______ _____ _____    ______ ____
ROOT
ATOM      1  O   ALA A   1     -32.929  26.373   4.827  0.00  0.00    -0.273 OA
ATOM      2  N   ALA A   1     -34.985  27.291   4.260  0.00  0.00    -0.295 N 
ATOM      3  C   ALA A   1     -33.589  27.255   4.282  0.00  0.00    +0.241 C 
ATOM      4  H   ALA A   1     -35.427  28.039   3.798  0.00  0.00    +0.150 HD
ENDROOT
BRANCH   3   5
ATOM      5  CA  ALA A   1     -32.959  28.408   3.510  0.00  0.00    +0.149 C 
ATOM      6  CB  ALA A   1     -32.720  28.022   2.057  0.00  0.00    +0.031 C 
BRANCH   5   8
ATOM      7  O   UNK A   0     -32.608  30.435   5.511  0.00  0.00    -0.270 OA
ATOM      8  N   ALA A   1     -31.729  28.762   4.166  0.00  0.00    -0.295 N 
ATOM      9  C   UNK A   0     -31.655  29.763   5.127  0.00  0.00    +0.246 C 
ATOM     10  H   ALA A   1     -30.907  28.277   3.926  0.00  0.00    +0.150 HD
BRANCH   9  11
ATOM     11  C   UNK A   0     -30.306  30.026   5.693  0.00  0.00    +0.053 C 
ATOM     12  C   UNK A   0     -29.857  29.293   6.792  0.00  0.00    +0.005 C 
ATOM     13  C   UNK A   0     -29.491  31.005   5.127  0.00  0.00    +0.005 C 
ATOM     14  C   UNK A   0     -28.591  29.541   7.324  0.00  0.00    +0.000 C 
ATOM     15  C   UNK A   0     -28.226  31.253   5.659  0.00  0.00    +0.000 C 
ATOM     16  C   UNK A   0     -27.776  30.520   6.757  0.00  0.00    +0.000 C 
ENDBRANCH   9  11
ENDBRANCH   5   8
ENDBRANCH   3   5
BRANCH   2  17
ATOM     17  CA  ALA A   1     -35.803  26.299   4.876  0.00  0.00    +0.176 C 
BRANCH  17  24
ATOM     18  O   ALA A   1     -36.204  25.487   2.675  0.00  0.00    -0.273 OA
ATOM     19  N   ALA A   1     -35.805  23.913   4.324  0.00  0.00    -0.270 N 
ATOM     20  CA  ALA A   1     -35.759  22.755   3.441  0.00  0.00    +0.175 C 
ATOM     21  CB  ALA A   1     -35.136  21.648   4.286  0.00  0.00    +0.033 C 
ATOM     22  CG  ALA A   1     -35.547  22.015   5.710  0.00  0.00    +0.024 C 
ATOM     23  CD  ALA A   1     -35.509  23.536   5.704  0.00  0.00    +0.094 C 
ATOM     24  C   ALA A   1     -35.955  25.206   3.848  0.00  0.00    +0.246 C 
BRANCH  20  26
ATOM     25  OXT ALA A   1     -38.134  23.165   3.250  0.00  0.00    -0.248 OA
ATOM     26  C   ALA A   1     -37.173  22.434   3.060  0.00  0.00    +0.332 C 
BRANCH  26  27
ATOM     27  O   ALA A   1     -37.247  21.215   2.474  0.00  0.00    -0.479 OA
ATOM     28  H   ALA A   1     -37.335  20.445   3.002  0.00  0.00    +0.295 HD
ENDBRANCH  26  27
ENDBRANCH  20  26
ENDBRANCH  17  24
ENDBRANCH   2  17
TORSDOF 7
ENDMDL
MODEL 7
REMARK VINA RESULT:      -6.2      6.678      9.360
REMARK  Name = 5748400
REMARK  7 active torsions:
REMARK  status: ('A' for Active; 'I' for Inactive)
REMARK    1  A    between atoms: N_2  and  CA_17
REMARK    2  A    between atoms: C_3  and  CA_5
REMARK    3  A    between atoms: CA_5  and  N_8
REMARK    4  A    between atoms: C_9  and  C_11
REMARK    5  A    between atoms: CA_17  and  C_24
REMARK    6  A    between atoms: CA_20  and  C_26
REMARK    7  A    between atoms: C_26  and  O_27
REMARK                            x       y       z     vdW  Elec       q    Type
REMARK                         _______ _______ _______ _____ _____    ______ ____
ROOT
ATOM      1  O   ALA A   1     -36.912  24.828   4.857  0.00  0.00    -0.273 OA
ATOM      2  N   ALA A   1     -34.599  24.680   5.002  0.00  0.00    -0.295 N 
ATOM      3  C   ALA A   1     -35.893  24.154   4.988  0.00  0.00    +0.241 C 
ATOM      4  H   ALA A   1     -33.843  24.060   5.113  0.00  0.00    +0.150 HD
ENDROOT
BRANCH   3   5
ATOM      5  CA  ALA A   1     -35.912  22.635   5.106  0.00  0.00    +0.149 C 
ATOM      6  CB  ALA A   1     -35.369  22.188   6.456  0.00  0.00    +0.031 C 
BRANCH   5   8
ATOM      7  O   UNK A   0     -36.894  21.768   2.552  0.00  0.00    -0.270 OA
ATOM      8  N   ALA A   1     -35.131  22.096   4.024  0.00  0.00    -0.295 N 
ATOM      9  C   UNK A   0     -35.697  21.701   2.818  0.00  0.00    +0.246 C 
ATOM     10  H   ALA A   1     -34.159  22.004   4.142  0.00  0.00    +0.150 HD
BRANCH   9  11
ATOM     11  C   UNK A   0     -34.760  21.141   1.810  0.00  0.00    +0.053 C 
ATOM     12  C   UNK A   0     -34.265  21.955   0.791  0.00  0.00    +0.005 C 
ATOM     13  C   UNK A   0     -34.376  19.803   1.882  0.00  0.00    +0.005 C 
ATOM     14  C   UNK A   0     -33.386  21.429  -0.156  0.00  0.00    +0.000 C 
ATOM     15  C   UNK A   0     -33.497  19.277   0.935  0.00  0.00    +0.000 C 
ATOM     16  C   UNK A   0     -33.002  20.091  -0.083  0.00  0.00    +0.000 C 
ENDBRANCH   9  11
ENDBRANCH   5   8
ENDBRANCH   3   5
BRANCH   2  17
ATOM     17  CA  ALA A   1     -34.319  26.071   4.864  0.00  0.00    +0.176 C 
BRANCH  17  24
ATOM     18  O   ALA A   1     -33.879  25.494   2.596  0.00  0.00    -0.273 OA
ATOM     19  N   ALA A   1     -32.569  27.155   3.536  0.00  0.00    -0.270 N 
ATOM     20  CA  ALA A   1     -31.867  27.526   2.314  0.00  0.00    +0.175 C 
ATOM     21  CB  ALA A   1     -31.213  28.865   2.635  0.00  0.00    +0.033 C 
ATOM     22  CG  ALA A   1     -30.974  28.792   4.141  0.00  0.00    +0.024 C 
ATOM     23  CD  ALA A   1     -32.182  28.019   4.649  0.00  0.00    +0.094 C 
ATOM     24  C   ALA A   1     -33.579  26.206   3.557  0.00  0.00    +0.246 C 
BRANCH  20  26
ATOM     25  OXT ALA A   1     -29.840  26.270   2.711  0.00  0.00    -0.248 OA
ATOM     26  C   ALA A   1     -30.849  26.458   2.049  0.00  0.00    +0.332 C 
BRANCH  26  27
ATOM     27  O   ALA A   1     -31.198  25.723   0.965  0.00  0.00    -0.479 OA
ATOM     28  H   ALA A   1     -32.103  25.579   0.767  0.00  0.00    +0.295 HD
ENDBRANCH  26  27
ENDBRANCH  20  26
ENDBRANCH  17  24
ENDBRANCH   2  17
TORSDOF 7
ENDMDL
MODEL 8
REMARK VINA RESULT:      -6.2      6.828      9.392
REMARK  Name = 5748400
REMARK  7 active torsions:
REMARK  status: ('A' for Active; 'I' for Inactive)
REMARK    1  A    between atoms: N_2  and  CA_17
REMARK    2  A    between atoms: C_3  and  CA_5
REMARK    3  A    between atoms: CA_5  and  N_8
REMARK    4  A    between atoms: C_9  and  C_11
REMARK    5  A    between atoms: CA_17  and  C_24
REMARK    6  A    between atoms: CA_20  and  C_26
REMARK    7  A    between atoms: C_26  and  O_27
REMARK                            x       y       z     vdW  Elec       q    Type
REMARK                         _______ _______ _______ _____ _____    ______ ____
ROOT
ATOM      1  O   ALA A   1     -36.359  18.772   0.012  0.00  0.00    -0.273 OA
ATOM      2  N   ALA A   1     -35.918  21.009   0.454  0.00  0.00    -0.295 N 
ATOM      3  C   ALA A   1     -35.772  19.817  -0.260  0.00  0.00    +0.241 C 
ATOM      4  H   ALA A   1     -35.405  21.796   0.161  0.00  0.00    +0.150 HD
ENDROOT
BRANCH   3   5
ATOM      5  CA  ALA A   1     -34.836  19.958  -1.453  0.00  0.00    +0.149 C 
ATOM      6  CB  ALA A   1     -35.388  19.224  -2.666  0.00  0.00    +0.031 C 
BRANCH   5   8
ATOM      7  O   UNK A   0     -32.793  21.355   0.002  0.00  0.00    -0.270 OA
ATOM      8  N   ALA A   1     -33.548  19.441  -1.071  0.00  0.00    -0.295 N 
ATOM      9  C   UNK A   0     -32.620  20.196  -0.365  0.00  0.00    +0.246 C 
ATOM     10  H   ALA A   1     -33.315  18.518  -1.319  0.00  0.00    +0.150 HD
BRANCH   9  11
ATOM     11  C   UNK A   0     -31.326  19.527  -0.068  0.00  0.00    +0.053 C 
ATOM     12  C   UNK A   0     -31.301  18.373   0.716  0.00  0.00    +0.005 C 
ATOM     13  C   UNK A   0     -30.137  20.054  -0.572  0.00  0.00    +0.005 C 
ATOM     14  C   UNK A   0     -30.087  17.746   0.995  0.00  0.00    +0.000 C 
ATOM     15  C   UNK A   0     -28.923  19.426  -0.292  0.00  0.00    +0.000 C 
ATOM     16  C   UNK A   0     -28.898  18.272   0.491  0.00  0.00    +0.000 C 
ENDBRANCH   9  11
ENDBRANCH   5   8
ENDBRANCH   3   5
BRANCH   2  17
ATOM     17  CA  ALA A   1     -36.773  21.142   1.588  0.00  0.00    +0.176 C 
BRANCH  17  24
ATOM     18  O   ALA A   1     -35.114  20.232   3.032  0.00  0.00    -0.273 OA
ATOM     19  N   ALA A   1     -35.923  22.338   3.548  0.00  0.00    -0.270 N 
ATOM     20  CA  ALA A   1     -34.995  22.611   4.638  0.00  0.00    +0.175 C 
ATOM     21  CB  ALA A   1     -35.115  24.112   4.882  0.00  0.00    +0.033 C 
ATOM     22  CG  ALA A   1     -36.550  24.426   4.465  0.00  0.00    +0.024 C 
ATOM     23  CD  ALA A   1     -36.785  23.489   3.289  0.00  0.00    +0.094 C 
ATOM     24  C   ALA A   1     -35.855  21.185   2.783  0.00  0.00    +0.246 C 
BRANCH  20  26
ATOM     25  OXT ALA A   1     -36.116  22.259   6.751  0.00  0.00    -0.248 OA
ATOM     26  C   ALA A   1     -35.458  21.816   5.821  0.00  0.00    +0.332 C 
BRANCH  26  27
ATOM     27  O   ALA A   1     -35.043  20.530   5.726  0.00  0.00    -0.479 OA
ATOM     28  H   ALA A   1     -35.434  19.957   5.095  0.00  0.00    +0.295 HD
ENDBRANCH  26  27
ENDBRANCH  20  26
ENDBRANCH  17  24
ENDBRANCH   2  17
TORSDOF 7
ENDMDL
MODEL 9
REMARK VINA RESULT:      -6.2      6.995     10.648
REMARK  Name = 5748400
REMARK  7 active torsions:
REMARK  status: ('A' for Active; 'I' for Inactive)
REMARK    1  A    between atoms: N_2  and  CA_17
REMARK    2  A    between atoms: C_3  and  CA_5
REMARK    3  A    between atoms: CA_5  and  N_8
REMARK    4  A    between atoms: C_9  and  C_11
REMARK    5  A    between atoms: CA_17  and  C_24
REMARK    6  A    between atoms: CA_20  and  C_26
REMARK    7  A    between atoms: C_26  and  O_27
REMARK                            x       y       z     vdW  Elec       q    Type
REMARK                         _______ _______ _______ _____ _____    ______ ____
ROOT
ATOM      1  O   ALA A   1     -32.178  26.584   3.365  0.00  0.00    -0.273 OA
ATOM      2  N   ALA A   1     -33.024  28.240   4.756  0.00  0.00    -0.295 N 
ATOM      3  C   ALA A   1     -33.071  27.010   4.094  0.00  0.00    +0.241 C 
ATOM      4  H   ALA A   1     -33.789  28.497   5.319  0.00  0.00    +0.150 HD
ENDROOT
BRANCH   3   5
ATOM      5  CA  ALA A   1     -34.335  26.221   4.409  0.00  0.00    +0.149 C 
ATOM      6  CB  ALA A   1     -34.470  25.986   5.906  0.00  0.00    +0.031 C 
BRANCH   5   8
ATOM      7  O   UNK A   0     -36.557  24.568   3.650  0.00  0.00    -0.270 OA
ATOM      8  N   ALA A   1     -34.273  24.977   3.687  0.00  0.00    -0.295 N 
ATOM      9  C   UNK A   0     -35.408  24.243   3.364  0.00  0.00    +0.246 C 
ATOM     10  H   ALA A   1     -33.394  24.633   3.412  0.00  0.00    +0.150 HD
BRANCH   9  11
ATOM     11  C   UNK A   0     -35.174  22.967   2.638  0.00  0.00    +0.053 C 
ATOM     12  C   UNK A   0     -34.572  22.981   1.380  0.00  0.00    +0.005 C 
ATOM     13  C   UNK A   0     -35.558  21.757   3.215  0.00  0.00    +0.005 C 
ATOM     14  C   UNK A   0     -34.354  21.784   0.698  0.00  0.00    +0.000 C 
ATOM     15  C   UNK A   0     -35.339  20.559   2.533  0.00  0.00    +0.000 C 
ATOM     16  C   UNK A   0     -34.736  20.573   1.275  0.00  0.00    +0.000 C 
ENDBRANCH   9  11
ENDBRANCH   5   8
ENDBRANCH   3   5
BRANCH   2  17
ATOM     17  CA  ALA A   1     -31.924  29.142   4.655  0.00  0.00    +0.176 C 
BRANCH  17  24
ATOM     18  O   ALA A   1     -31.643  29.226   7.017  0.00  0.00    -0.273 OA
ATOM     19  N   ALA A   1     -29.840  28.493   5.765  0.00  0.00    -0.270 N 
ATOM     20  CA  ALA A   1     -28.999  28.109   6.891  0.00  0.00    +0.175 C 
ATOM     21  CB  ALA A   1     -27.898  27.251   6.278  0.00  0.00    +0.033 C 
ATOM     22  CG  ALA A   1     -27.769  27.800   4.859  0.00  0.00    +0.024 C 
ATOM     23  CD  ALA A   1     -29.200  28.164   4.493  0.00  0.00    +0.094 C 
ATOM     24  C   ALA A   1     -31.135  28.959   5.926  0.00  0.00    +0.246 C 
BRANCH  20  26
ATOM     25  OXT ALA A   1     -28.072  30.341   6.847  0.00  0.00    -0.248 OA
ATOM     26  C   ALA A   1     -28.454  29.372   7.486  0.00  0.00    +0.332 C 
BRANCH  26  27
ATOM     27  O   ALA A   1     -28.439  29.296   8.839  0.00  0.00    -0.479 OA
ATOM     28  H   ALA A   1     -28.074  29.997   9.344  0.00  0.00    +0.295 HD
ENDBRANCH  26  27
ENDBRANCH  20  26
ENDBRANCH  17  24
ENDBRANCH   2  17
TORSDOF 7
ENDMDL
