MODEL 1
REMARK VINA RESULT:      -7.0      0.000      0.000
REMARK  Name = 192035
REMARK  9 active torsions:
REMARK  status: ('A' for Active; 'I' for Inactive)
REMARK    1  A    between atoms: C_1  and  S_7
REMARK    2  A    between atoms: C_4  and  N_18
REMARK    3  A    between atoms: S_7  and  N_10
REMARK    4  A    between atoms: N_18  and  N_19
REMARK    5  A    between atoms: N_19  and  C_22
REMARK    6  A    between atoms: C_20  and  C_28
REMARK    7  A    between atoms: C_23  and  O_26
REMARK    8  A    between atoms: C_28  and  C_30
REMARK    9  A    between atoms: C_30  and  O_31
REMARK                            x       y       z     vdW  Elec       q    Type
REMARK                         _______ _______ _______ _____ _____    ______ ____
ROOT
ATOM      1  C   UNL     1     -33.286  27.392   4.863  0.00  0.00    +0.125 C 
ATOM      2  C   UNL     1     -34.135  27.331   3.759  0.00  0.00    +0.022 C 
ATOM      3  C   UNL     1     -33.506  26.556   5.959  0.00  0.00    +0.022 C 
ATOM      4  C   UNL     1     -35.418  25.603   4.844  0.00  0.00    +0.089 C 
ATOM      5  C   UNL     1     -35.204  26.433   3.748  0.00  0.00    +0.019 C 
ATOM      6  C   UNL     1     -34.574  25.660   5.949  0.00  0.00    +0.019 C 
ENDROOT
BRANCH   1   7
ATOM      7  S   UNL     1     -31.948  28.513   4.875  0.00  0.00    +0.075 S 
ATOM      8  O   UNL     1     -32.499  29.861   4.949  0.00  0.00    -0.150 OA
ATOM      9  O   UNL     1     -31.051  28.180   3.777  0.00  0.00    -0.150 OA
BRANCH   7  10
ATOM     10  N   UNL     1     -31.175  28.168   6.376  0.00  0.00    -0.199 N 
ATOM     11  H   UNL     1     -31.676  27.767   7.123  0.00  0.00    +0.175 HD
ATOM     12  N   UNL     1     -29.474  29.798   6.497  0.00  0.00    -0.228 NA
ATOM     13  C   UNL     1     -29.779  28.485   6.508  0.00  0.00    +0.147 C 
ATOM     14  C   UNL     1     -28.859  27.463   6.633  0.00  0.00    +0.036 C 
ATOM     15  C   UNL     1     -27.519  27.816   6.758  0.00  0.00    +0.005 C 
ATOM     16  C   UNL     1     -28.163  30.102   6.619  0.00  0.00    +0.100 C 
ATOM     17  C   UNL     1     -27.157  29.158   6.751  0.00  0.00    +0.021 C 
ENDBRANCH   7  10
ENDBRANCH   1   7
BRANCH   4  18
ATOM     18  N   UNL     1     -36.495  24.700   4.834  0.00  0.00    -0.128 NA
BRANCH  18  19
ATOM     19  N   UNL     1     -36.103  23.559   5.173  0.00  0.00    -0.128 NA
BRANCH  19  22
ATOM     20  C   UNL     1     -37.316  21.992   2.057  0.00  0.00    +0.024 C 
ATOM     21  C   UNL     1     -37.203  22.873   3.131  0.00  0.00    +0.017 C 
ATOM     22  C   UNL     1     -36.217  22.674   4.097  0.00  0.00    +0.089 C 
ATOM     23  C   UNL     1     -36.442  20.910   1.949  0.00  0.00    +0.130 C 
ATOM     24  C   UNL     1     -35.342  21.594   3.988  0.00  0.00    +0.021 C 
ATOM     25  C   UNL     1     -35.455  20.711   2.914  0.00  0.00    +0.038 C 
BRANCH  23  26
ATOM     26  O   UNL     1     -36.538  20.037   0.906  0.00  0.00    -0.506 OA
ATOM     27  H   UNL     1     -36.097  20.221   0.100  0.00  0.00    +0.292 HD
ENDBRANCH  23  26
BRANCH  20  28
ATOM     28  C   UNL     1     -38.378  22.219   1.034  0.00  0.00    +0.139 C 
BRANCH  28  30
ATOM     29  O   UNL     1     -40.516  23.188   1.685  0.00  0.00    -0.250 OA
ATOM     30  C   UNL     1     -39.781  22.213   1.608  0.00  0.00    +0.318 C 
BRANCH  30  31
ATOM     31  O   UNL     1     -40.145  20.977   2.040  0.00  0.00    -0.480 OA
ATOM     32  H   UNL     1     -39.490  20.329   2.214  0.00  0.00    +0.295 HD
ENDBRANCH  30  31
ENDBRANCH  28  30
ENDBRANCH  20  28
ENDBRANCH  19  22
ENDBRANCH  18  19
ENDBRANCH   4  18
TORSDOF 9
ENDMDL
MODEL 2
REMARK VINA RESULT:      -7.0      3.063     10.091
REMARK  Name = 192035
REMARK  9 active torsions:
REMARK  status: ('A' for Active; 'I' for Inactive)
REMARK    1  A    between atoms: C_1  and  S_7
REMARK    2  A    between atoms: C_4  and  N_18
REMARK    3  A    between atoms: S_7  and  N_10
REMARK    4  A    between atoms: N_18  and  N_19
REMARK    5  A    between atoms: N_19  and  C_22
REMARK    6  A    between atoms: C_20  and  C_28
REMARK    7  A    between atoms: C_23  and  O_26
REMARK    8  A    between atoms: C_28  and  C_30
REMARK    9  A    between atoms: C_30  and  O_31
REMARK                            x       y       z     vdW  Elec       q    Type
REMARK                         _______ _______ _______ _____ _____    ______ ____
ROOT
ATOM      1  C   UNL     1     -34.906  23.851   4.077  0.00  0.00    +0.125 C 
ATOM      2  C   UNL     1     -35.057  24.289   5.393  0.00  0.00    +0.022 C 
ATOM      3  C   UNL     1     -34.240  24.651   3.148  0.00  0.00    +0.022 C 
ATOM      4  C   UNL     1     -33.880  26.320   4.849  0.00  0.00    +0.089 C 
ATOM      5  C   UNL     1     -34.543  25.527   5.780  0.00  0.00    +0.019 C 
ATOM      6  C   UNL     1     -33.726  25.888   3.535  0.00  0.00    +0.019 C 
ENDROOT
BRANCH   1   7
ATOM      7  S   UNL     1     -35.549  22.301   3.593  0.00  0.00    +0.075 S 
ATOM      8  O   UNL     1     -35.313  21.363   4.684  0.00  0.00    -0.150 OA
ATOM      9  O   UNL     1     -35.038  21.979   2.267  0.00  0.00    -0.150 OA
BRANCH   7  10
ATOM     10  N   UNL     1     -37.243  22.602   3.502  0.00  0.00    -0.199 N 
ATOM     11  H   UNL     1     -37.889  21.985   3.915  0.00  0.00    +0.175 HD
ATOM     12  N   UNL     1     -37.475  23.785   1.476  0.00  0.00    -0.228 NA
ATOM     13  C   UNL     1     -37.685  23.780   2.807  0.00  0.00    +0.147 C 
ATOM     14  C   UNL     1     -38.279  24.806   3.516  0.00  0.00    +0.036 C 
ATOM     15  C   UNL     1     -38.692  25.925   2.801  0.00  0.00    +0.005 C 
ATOM     16  C   UNL     1     -37.888  24.891   0.816  0.00  0.00    +0.100 C 
ATOM     17  C   UNL     1     -38.495  25.977   1.426  0.00  0.00    +0.021 C 
ENDBRANCH   7  10
ENDBRANCH   1   7
BRANCH   4  18
ATOM     18  N   UNL     1     -33.362  27.567   5.239  0.00  0.00    -0.128 NA
BRANCH  18  19
ATOM     19  N   UNL     1     -32.314  27.408   5.907  0.00  0.00    -0.128 NA
BRANCH  19  22
ATOM     20  C   UNL     1     -29.295  29.533   5.983  0.00  0.00    +0.024 C 
ATOM     21  C   UNL     1     -30.138  28.435   6.149  0.00  0.00    +0.017 C 
ATOM     22  C   UNL     1     -31.470  28.510   5.741  0.00  0.00    +0.089 C 
ATOM     23  C   UNL     1     -29.784  30.708   5.410  0.00  0.00    +0.130 C 
ATOM     24  C   UNL     1     -31.959  29.683   5.168  0.00  0.00    +0.021 C 
ATOM     25  C   UNL     1     -31.116  30.782   5.003  0.00  0.00    +0.038 C 
BRANCH  23  26
ATOM     26  O   UNL     1     -28.975  31.791   5.241  0.00  0.00    -0.506 OA
ATOM     27  H   UNL     1     -28.767  32.338   5.974  0.00  0.00    +0.292 HD
ENDBRANCH  23  26
BRANCH  20  28
ATOM     28  C   UNL     1     -27.873  29.436   6.425  0.00  0.00    +0.139 C 
BRANCH  28  30
ATOM     29  O   UNL     1     -27.949  30.034   8.785  0.00  0.00    -0.250 OA
ATOM     30  C   UNL     1     -27.718  29.206   7.915  0.00  0.00    +0.318 C 
BRANCH  30  31
ATOM     31  O   UNL     1     -27.285  27.947   8.189  0.00  0.00    -0.480 OA
ATOM     32  H   UNL     1     -27.890  27.231   8.183  0.00  0.00    +0.295 HD
ENDBRANCH  30  31
ENDBRANCH  28  30
ENDBRANCH  20  28
ENDBRANCH  19  22
ENDBRANCH  18  19
ENDBRANCH   4  18
TORSDOF 9
ENDMDL
MODEL 3
REMARK VINA RESULT:      -6.7      2.629      3.237
REMARK  Name = 192035
REMARK  9 active torsions:
REMARK  status: ('A' for Active; 'I' for Inactive)
REMARK    1  A    between atoms: C_1  and  S_7
REMARK    2  A    between atoms: C_4  and  N_18
REMARK    3  A    between atoms: S_7  and  N_10
REMARK    4  A    between atoms: N_18  and  N_19
REMARK    5  A    between atoms: N_19  and  C_22
REMARK    6  A    between atoms: C_20  and  C_28
REMARK    7  A    between atoms: C_23  and  O_26
REMARK    8  A    between atoms: C_28  and  C_30
REMARK    9  A    between atoms: C_30  and  O_31
REMARK                            x       y       z     vdW  Elec       q    Type
REMARK                         _______ _______ _______ _____ _____    ______ ____
ROOT
ATOM      1  C   UNL     1     -33.651  27.247   4.415  0.00  0.00    +0.125 C 
ATOM      2  C   UNL     1     -34.606  27.163   3.401  0.00  0.00    +0.022 C 
ATOM      3  C   UNL     1     -33.726  26.394   5.516  0.00  0.00    +0.022 C 
ATOM      4  C   UNL     1     -35.705  25.378   4.589  0.00  0.00    +0.089 C 
ATOM      5  C   UNL     1     -35.636  26.226   3.488  0.00  0.00    +0.019 C 
ATOM      6  C   UNL     1     -34.755  25.457   5.603  0.00  0.00    +0.019 C 
ENDROOT
BRANCH   1   7
ATOM      7  S   UNL     1     -32.361  28.419   4.305  0.00  0.00    +0.075 S 
ATOM      8  O   UNL     1     -31.103  27.687   4.221  0.00  0.00    -0.150 OA
ATOM      9  O   UNL     1     -32.533  29.402   5.366  0.00  0.00    -0.150 OA
BRANCH   7  10
ATOM     10  N   UNL     1     -32.650  29.162   2.777  0.00  0.00    -0.199 N 
ATOM     11  H   UNL     1     -32.881  28.622   1.988  0.00  0.00    +0.175 HD
ATOM     12  N   UNL     1     -31.306  31.098   2.854  0.00  0.00    -0.228 NA
ATOM     13  C   UNL     1     -32.544  30.593   2.689  0.00  0.00    +0.147 C 
ATOM     14  C   UNL     1     -33.677  31.346   2.451  0.00  0.00    +0.036 C 
ATOM     15  C   UNL     1     -33.527  32.726   2.373  0.00  0.00    +0.005 C 
ATOM     16  C   UNL     1     -31.199  32.444   2.774  0.00  0.00    +0.100 C 
ATOM     17  C   UNL     1     -32.268  33.293   2.538  0.00  0.00    +0.021 C 
ENDBRANCH   7  10
ENDBRANCH   1   7
BRANCH   4  18
ATOM     18  N   UNL     1     -36.743  24.434   4.676  0.00  0.00    -0.128 NA
BRANCH  18  19
ATOM     19  N   UNL     1     -36.279  23.311   4.980  0.00  0.00    -0.128 NA
BRANCH  19  22
ATOM     20  C   UNL     1     -37.409  21.731   1.839  0.00  0.00    +0.024 C 
ATOM     21  C   UNL     1     -37.360  22.581   2.944  0.00  0.00    +0.017 C 
ATOM     22  C   UNL     1     -36.328  22.458   3.874  0.00  0.00    +0.089 C 
ATOM     23  C   UNL     1     -36.425  20.757   1.665  0.00  0.00    +0.130 C 
ATOM     24  C   UNL     1     -35.345  21.485   3.700  0.00  0.00    +0.021 C 
ATOM     25  C   UNL     1     -35.393  20.634   2.595  0.00  0.00    +0.038 C 
BRANCH  23  26
ATOM     26  O   UNL     1     -36.458  19.916   0.592  0.00  0.00    -0.506 OA
ATOM     27  H   UNL     1     -35.663  19.697   0.146  0.00  0.00    +0.292 HD
ENDBRANCH  23  26
BRANCH  20  28
ATOM     28  C   UNL     1     -38.521  21.876   0.854  0.00  0.00    +0.139 C 
BRANCH  28  30
ATOM     29  O   UNL     1     -40.537  23.100   1.460  0.00  0.00    -0.250 OA
ATOM     30  C   UNL     1     -39.878  22.070   1.500  0.00  0.00    +0.318 C 
BRANCH  30  31
ATOM     31  O   UNL     1     -40.295  20.950   2.146  0.00  0.00    -0.480 OA
ATOM     32  H   UNL     1     -40.752  21.021   2.962  0.00  0.00    +0.295 HD
ENDBRANCH  30  31
ENDBRANCH  28  30
ENDBRANCH  20  28
ENDBRANCH  19  22
ENDBRANCH  18  19
ENDBRANCH   4  18
TORSDOF 9
ENDMDL
MODEL 4
REMARK VINA RESULT:      -6.7      5.399      7.239
REMARK  Name = 192035
REMARK  9 active torsions:
REMARK  status: ('A' for Active; 'I' for Inactive)
REMARK    1  A    between atoms: C_1  and  S_7
REMARK    2  A    between atoms: C_4  and  N_18
REMARK    3  A    between atoms: S_7  and  N_10
REMARK    4  A    between atoms: N_18  and  N_19
REMARK    5  A    between atoms: N_19  and  C_22
REMARK    6  A    between atoms: C_20  and  C_28
REMARK    7  A    between atoms: C_23  and  O_26
REMARK    8  A    between atoms: C_28  and  C_30
REMARK    9  A    between atoms: C_30  and  O_31
REMARK                            x       y       z     vdW  Elec       q    Type
REMARK                         _______ _______ _______ _____ _____    ______ ____
ROOT
ATOM      1  C   UNL     1     -36.380  29.805   1.363  0.00  0.00    +0.125 C 
ATOM      2  C   UNL     1     -36.786  28.514   1.026  0.00  0.00    +0.022 C 
ATOM      3  C   UNL     1     -35.364  29.993   2.300  0.00  0.00    +0.022 C 
ATOM      4  C   UNL     1     -35.163  27.606   2.558  0.00  0.00    +0.089 C 
ATOM      5  C   UNL     1     -36.176  27.411   1.625  0.00  0.00    +0.019 C 
ATOM      6  C   UNL     1     -34.754  28.891   2.899  0.00  0.00    +0.019 C 
ENDROOT
BRANCH   1   7
ATOM      7  S   UNL     1     -37.143  31.184   0.612  0.00  0.00    +0.075 S 
ATOM      8  O   UNL     1     -38.463  30.767   0.155  0.00  0.00    -0.150 OA
ATOM      9  O   UNL     1     -36.215  31.762  -0.352  0.00  0.00    -0.150 OA
BRANCH   7  10
ATOM     10  N   UNL     1     -37.353  32.270   1.934  0.00  0.00    -0.199 N 
ATOM     11  H   UNL     1     -36.929  32.094   2.805  0.00  0.00    +0.175 HD
ATOM     12  N   UNL     1     -39.477  33.210   1.530  0.00  0.00    -0.228 NA
ATOM     13  C   UNL     1     -38.164  33.439   1.728  0.00  0.00    +0.147 C 
ATOM     14  C   UNL     1     -37.575  34.687   1.743  0.00  0.00    +0.036 C 
ATOM     15  C   UNL     1     -38.398  35.789   1.540  0.00  0.00    +0.005 C 
ATOM     16  C   UNL     1     -40.246  34.305   1.334  0.00  0.00    +0.100 C 
ATOM     17  C   UNL     1     -39.760  35.603   1.330  0.00  0.00    +0.021 C 
ENDBRANCH   7  10
ENDBRANCH   1   7
BRANCH   4  18
ATOM     18  N   UNL     1     -34.549  26.495   3.162  0.00  0.00    -0.128 NA
BRANCH  18  19
ATOM     19  N   UNL     1     -35.101  26.242   4.259  0.00  0.00    -0.128 NA
BRANCH  19  22
ATOM     20  C   UNL     1     -35.396  22.637   3.511  0.00  0.00    +0.024 C 
ATOM     21  C   UNL     1     -35.304  24.017   3.332  0.00  0.00    +0.017 C 
ATOM     22  C   UNL     1     -35.193  24.858   4.439  0.00  0.00    +0.089 C 
ATOM     23  C   UNL     1     -35.378  22.098   4.798  0.00  0.00    +0.130 C 
ATOM     24  C   UNL     1     -35.174  24.320   5.725  0.00  0.00    +0.021 C 
ATOM     25  C   UNL     1     -35.267  22.940   5.905  0.00  0.00    +0.038 C 
BRANCH  23  26
ATOM     26  O   UNL     1     -35.467  20.752   4.993  0.00  0.00    -0.506 OA
ATOM     27  H   UNL     1     -36.208  20.393   5.442  0.00  0.00    +0.292 HD
ENDBRANCH  23  26
BRANCH  20  28
ATOM     28  C   UNL     1     -35.515  21.751   2.316  0.00  0.00    +0.139 C 
BRANCH  28  30
ATOM     29  O   UNL     1     -37.904  21.586   1.875  0.00  0.00    -0.250 OA
ATOM     30  C   UNL     1     -36.856  21.053   2.213  0.00  0.00    +0.318 C 
BRANCH  30  31
ATOM     31  O   UNL     1     -36.768  19.738   2.545  0.00  0.00    -0.480 OA
ATOM     32  H   UNL     1     -37.242  19.097   2.052  0.00  0.00    +0.295 HD
ENDBRANCH  30  31
ENDBRANCH  28  30
ENDBRANCH  20  28
ENDBRANCH  19  22
ENDBRANCH  18  19
ENDBRANCH   4  18
TORSDOF 9
ENDMDL
MODEL 5
REMARK VINA RESULT:      -6.7      3.120     10.400
REMARK  Name = 192035
REMARK  9 active torsions:
REMARK  status: ('A' for Active; 'I' for Inactive)
REMARK    1  A    between atoms: C_1  and  S_7
REMARK    2  A    between atoms: C_4  and  N_18
REMARK    3  A    between atoms: S_7  and  N_10
REMARK    4  A    between atoms: N_18  and  N_19
REMARK    5  A    between atoms: N_19  and  C_22
REMARK    6  A    between atoms: C_20  and  C_28
REMARK    7  A    between atoms: C_23  and  O_26
REMARK    8  A    between atoms: C_28  and  C_30
REMARK    9  A    between atoms: C_30  and  O_31
REMARK                            x       y       z     vdW  Elec       q    Type
REMARK                         _______ _______ _______ _____ _____    ______ ____
ROOT
ATOM      1  C   UNL     1     -35.038  24.382   4.324  0.00  0.00    +0.125 C 
ATOM      2  C   UNL     1     -35.169  24.791   5.651  0.00  0.00    +0.022 C 
ATOM      3  C   UNL     1     -34.165  25.056   3.469  0.00  0.00    +0.022 C 
ATOM      4  C   UNL     1     -33.557  26.541   5.267  0.00  0.00    +0.089 C 
ATOM      5  C   UNL     1     -34.426  25.874   6.124  0.00  0.00    +0.019 C 
ATOM      6  C   UNL     1     -33.423  26.137   3.942  0.00  0.00    +0.019 C 
ENDROOT
BRANCH   1   7
ATOM      7  S   UNL     1     -35.967  23.026   3.733  0.00  0.00    +0.075 S 
ATOM      8  O   UNL     1     -37.373  23.411   3.749  0.00  0.00    -0.150 OA
ATOM      9  O   UNL     1     -35.557  21.830   4.457  0.00  0.00    -0.150 OA
BRANCH   7  10
ATOM     10  N   UNL     1     -35.463  22.908   2.089  0.00  0.00    -0.199 N 
ATOM     11  H   UNL     1     -35.207  23.710   1.579  0.00  0.00    +0.175 HD
ATOM     12  N   UNL     1     -36.625  21.012   1.302  0.00  0.00    -0.228 NA
ATOM     13  C   UNL     1     -35.428  21.604   1.484  0.00  0.00    +0.147 C 
ATOM     14  C   UNL     1     -34.213  21.049   1.135  0.00  0.00    +0.036 C 
ATOM     15  C   UNL     1     -34.227  19.786   0.553  0.00  0.00    +0.005 C 
ATOM     16  C   UNL     1     -36.598  19.785   0.735  0.00  0.00    +0.100 C 
ATOM     17  C   UNL     1     -35.438  19.136   0.346  0.00  0.00    +0.021 C 
ENDBRANCH   7  10
ENDBRANCH   1   7
BRANCH   4  18
ATOM     18  N   UNL     1     -32.810  27.632   5.743  0.00  0.00    -0.128 NA
BRANCH  18  19
ATOM     19  N   UNL     1     -32.822  28.562   4.903  0.00  0.00    -0.128 NA
BRANCH  19  22
ATOM     20  C   UNL     1     -29.460  29.705   5.917  0.00  0.00    +0.024 C 
ATOM     21  C   UNL     1     -30.577  28.890   5.743  0.00  0.00    +0.017 C 
ATOM     22  C   UNL     1     -31.702  29.380   5.079  0.00  0.00    +0.089 C 
ATOM     23  C   UNL     1     -29.467  31.012   5.429  0.00  0.00    +0.130 C 
ATOM     24  C   UNL     1     -31.710  30.686   4.591  0.00  0.00    +0.021 C 
ATOM     25  C   UNL     1     -30.592  31.502   4.766  0.00  0.00    +0.038 C 
BRANCH  23  26
ATOM     26  O   UNL     1     -28.384  31.824   5.592  0.00  0.00    -0.506 OA
ATOM     27  H   UNL     1     -28.204  32.200   6.432  0.00  0.00    +0.292 HD
ENDBRANCH  23  26
BRANCH  20  28
ATOM     28  C   UNL     1     -28.265  29.164   6.630  0.00  0.00    +0.139 C 
BRANCH  28  30
ATOM     29  O   UNL     1     -27.243  30.742   8.179  0.00  0.00    -0.250 OA
ATOM     30  C   UNL     1     -28.018  29.817   7.975  0.00  0.00    +0.318 C 
BRANCH  30  31
ATOM     31  O   UNL     1     -28.769  29.251   8.957  0.00  0.00    -0.480 OA
ATOM     32  H   UNL     1     -28.401  28.585   9.504  0.00  0.00    +0.295 HD
ENDBRANCH  30  31
ENDBRANCH  28  30
ENDBRANCH  20  28
ENDBRANCH  19  22
ENDBRANCH  18  19
ENDBRANCH   4  18
TORSDOF 9
ENDMDL
MODEL 6
REMARK VINA RESULT:      -6.6      2.496      3.475
REMARK  Name = 192035
REMARK  9 active torsions:
REMARK  status: ('A' for Active; 'I' for Inactive)
REMARK    1  A    between atoms: C_1  and  S_7
REMARK    2  A    between atoms: C_4  and  N_18
REMARK    3  A    between atoms: S_7  and  N_10
REMARK    4  A    between atoms: N_18  and  N_19
REMARK    5  A    between atoms: N_19  and  C_22
REMARK    6  A    between atoms: C_20  and  C_28
REMARK    7  A    between atoms: C_23  and  O_26
REMARK    8  A    between atoms: C_28  and  C_30
REMARK    9  A    between atoms: C_30  and  O_31
REMARK                            x       y       z     vdW  Elec       q    Type
REMARK                         _______ _______ _______ _____ _____    ______ ____
ROOT
ATOM      1  C   UNL     1     -32.679  29.992   2.513  0.00  0.00    +0.125 C 
ATOM      2  C   UNL     1     -32.078  28.736   2.432  0.00  0.00    +0.022 C 
ATOM      3  C   UNL     1     -34.056  30.095   2.715  0.00  0.00    +0.022 C 
ATOM      4  C   UNL     1     -34.225  27.691   2.755  0.00  0.00    +0.089 C 
ATOM      5  C   UNL     1     -32.853  27.582   2.553  0.00  0.00    +0.019 C 
ATOM      6  C   UNL     1     -34.831  28.941   2.837  0.00  0.00    +0.019 C 
ENDROOT
BRANCH   1   7
ATOM      7  S   UNL     1     -31.710  31.437   2.362  0.00  0.00    +0.075 S 
ATOM      8  O   UNL     1     -32.508  32.436   1.662  0.00  0.00    -0.150 OA
ATOM      9  O   UNL     1     -30.409  31.070   1.818  0.00  0.00    -0.150 OA
BRANCH   7  10
ATOM     10  N   UNL     1     -31.529  31.946   3.998  0.00  0.00    -0.199 N 
ATOM     11  H   UNL     1     -31.706  32.878   4.260  0.00  0.00    +0.175 HD
ATOM     12  N   UNL     1     -29.852  30.512   4.830  0.00  0.00    -0.228 NA
ATOM     13  C   UNL     1     -31.111  30.972   4.969  0.00  0.00    +0.147 C 
ATOM     14  C   UNL     1     -31.991  30.573   5.955  0.00  0.00    +0.036 C 
ATOM     15  C   UNL     1     -31.544  29.628   6.873  0.00  0.00    +0.005 C 
ATOM     16  C   UNL     1     -29.453  29.593   5.739  0.00  0.00    +0.100 C 
ATOM     17  C   UNL     1     -30.253  29.124   6.769  0.00  0.00    +0.021 C 
ENDBRANCH   7  10
ENDBRANCH   1   7
BRANCH   4  18
ATOM     18  N   UNL     1     -35.006  26.528   2.876  0.00  0.00    -0.128 NA
BRANCH  18  19
ATOM     19  N   UNL     1     -35.277  26.316   4.081  0.00  0.00    -0.128 NA
BRANCH  19  22
ATOM     20  C   UNL     1     -35.396  22.670   3.504  0.00  0.00    +0.024 C 
ATOM     21  C   UNL     1     -35.353  24.042   3.260  0.00  0.00    +0.017 C 
ATOM     22  C   UNL     1     -35.321  24.941   4.327  0.00  0.00    +0.089 C 
ATOM     23  C   UNL     1     -35.406  22.196   4.816  0.00  0.00    +0.130 C 
ATOM     24  C   UNL     1     -35.330  24.467   5.638  0.00  0.00    +0.021 C 
ATOM     25  C   UNL     1     -35.373  23.094   5.883  0.00  0.00    +0.038 C 
BRANCH  23  26
ATOM     26  O   UNL     1     -35.448  20.858   5.074  0.00  0.00    -0.506 OA
ATOM     27  H   UNL     1     -35.056  20.520   5.856  0.00  0.00    +0.292 HD
ENDBRANCH  23  26
BRANCH  20  28
ATOM     28  C   UNL     1     -35.431  21.724   2.351  0.00  0.00    +0.139 C 
BRANCH  28  30
ATOM     29  O   UNL     1     -37.775  21.549   1.712  0.00  0.00    -0.250 OA
ATOM     30  C   UNL     1     -36.769  21.032   2.179  0.00  0.00    +0.318 C 
BRANCH  30  31
ATOM     31  O   UNL     1     -36.730  19.744   2.609  0.00  0.00    -0.480 OA
ATOM     32  H   UNL     1     -37.098  19.515   3.440  0.00  0.00    +0.295 HD
ENDBRANCH  30  31
ENDBRANCH  28  30
ENDBRANCH  20  28
ENDBRANCH  19  22
ENDBRANCH  18  19
ENDBRANCH   4  18
TORSDOF 9
ENDMDL
MODEL 7
REMARK VINA RESULT:      -6.6      2.670      9.889
REMARK  Name = 192035
REMARK  9 active torsions:
REMARK  status: ('A' for Active; 'I' for Inactive)
REMARK    1  A    between atoms: C_1  and  S_7
REMARK    2  A    between atoms: C_4  and  N_18
REMARK    3  A    between atoms: S_7  and  N_10
REMARK    4  A    between atoms: N_18  and  N_19
REMARK    5  A    between atoms: N_19  and  C_22
REMARK    6  A    between atoms: C_20  and  C_28
REMARK    7  A    between atoms: C_23  and  O_26
REMARK    8  A    between atoms: C_28  and  C_30
REMARK    9  A    between atoms: C_30  and  O_31
REMARK                            x       y       z     vdW  Elec       q    Type
REMARK                         _______ _______ _______ _____ _____    ______ ____
ROOT
ATOM      1  C   UNL     1     -36.024  25.133   3.889  0.00  0.00    +0.125 C 
ATOM      2  C   UNL     1     -35.394  26.126   3.139  0.00  0.00    +0.022 C 
ATOM      3  C   UNL     1     -35.588  24.857   5.185  0.00  0.00    +0.022 C 
ATOM      4  C   UNL     1     -33.900  26.564   4.978  0.00  0.00    +0.089 C 
ATOM      5  C   UNL     1     -34.329  26.844   3.685  0.00  0.00    +0.019 C 
ATOM      6  C   UNL     1     -34.524  25.574   5.731  0.00  0.00    +0.019 C 
ENDROOT
BRANCH   1   7
ATOM      7  S   UNL     1     -37.358  24.236   3.206  0.00  0.00    +0.075 S 
ATOM      8  O   UNL     1     -37.315  24.411   1.759  0.00  0.00    -0.150 OA
ATOM      9  O   UNL     1     -38.575  24.595   3.922  0.00  0.00    -0.150 OA
BRANCH   7  10
ATOM     10  N   UNL     1     -36.939  22.603   3.560  0.00  0.00    -0.199 N 
ATOM     11  H   UNL     1     -37.115  22.217   4.449  0.00  0.00    +0.175 HD
ATOM     12  N   UNL     1     -35.087  22.202   2.158  0.00  0.00    -0.228 NA
ATOM     13  C   UNL     1     -36.327  21.820   2.522  0.00  0.00    +0.147 C 
ATOM     14  C   UNL     1     -37.017  20.758   1.972  0.00  0.00    +0.036 C 
ATOM     15  C   UNL     1     -36.386  20.029   0.971  0.00  0.00    +0.005 C 
ATOM     16  C   UNL     1     -34.505  21.471   1.180  0.00  0.00    +0.100 C 
ATOM     17  C   UNL     1     -35.106  20.387   0.561  0.00  0.00    +0.021 C 
ENDBRANCH   7  10
ENDBRANCH   1   7
BRANCH   4  18
ATOM     18  N   UNL     1     -32.827  27.286   5.527  0.00  0.00    -0.128 NA
BRANCH  18  19
ATOM     19  N   UNL     1     -32.886  28.485   5.167  0.00  0.00    -0.128 NA
BRANCH  19  22
ATOM     20  C   UNL     1     -29.456  29.109   6.386  0.00  0.00    +0.024 C 
ATOM     21  C   UNL     1     -30.683  28.484   6.166  0.00  0.00    +0.017 C 
ATOM     22  C   UNL     1     -31.656  29.112   5.388  0.00  0.00    +0.089 C 
ATOM     23  C   UNL     1     -29.201  30.362   5.828  0.00  0.00    +0.130 C 
ATOM     24  C   UNL     1     -31.402  30.364   4.831  0.00  0.00    +0.021 C 
ATOM     25  C   UNL     1     -30.174  30.990   5.051  0.00  0.00    +0.038 C 
BRANCH  23  26
ATOM     26  O   UNL     1     -28.008  30.988   6.034  0.00  0.00    -0.506 OA
ATOM     27  H   UNL     1     -27.700  31.132   6.907  0.00  0.00    +0.292 HD
ENDBRANCH  23  26
BRANCH  20  28
ATOM     28  C   UNL     1     -28.426  28.423   7.221  0.00  0.00    +0.139 C 
BRANCH  28  30
ATOM     29  O   UNL     1     -28.037  26.019   7.206  0.00  0.00    -0.250 OA
ATOM     30  C   UNL     1     -27.961  27.102   6.642  0.00  0.00    +0.318 C 
BRANCH  30  31
ATOM     31  O   UNL     1     -27.438  27.253   5.397  0.00  0.00    -0.480 OA
ATOM     32  H   UNL     1     -28.006  27.330   4.656  0.00  0.00    +0.295 HD
ENDBRANCH  30  31
ENDBRANCH  28  30
ENDBRANCH  20  28
ENDBRANCH  19  22
ENDBRANCH  18  19
ENDBRANCH   4  18
TORSDOF 9
ENDMDL
MODEL 8
REMARK VINA RESULT:      -6.5      5.718      9.629
REMARK  Name = 192035
REMARK  9 active torsions:
REMARK  status: ('A' for Active; 'I' for Inactive)
REMARK    1  A    between atoms: C_1  and  S_7
REMARK    2  A    between atoms: C_4  and  N_18
REMARK    3  A    between atoms: S_7  and  N_10
REMARK    4  A    between atoms: N_18  and  N_19
REMARK    5  A    between atoms: N_19  and  C_22
REMARK    6  A    between atoms: C_20  and  C_28
REMARK    7  A    between atoms: C_23  and  O_26
REMARK    8  A    between atoms: C_28  and  C_30
REMARK    9  A    between atoms: C_30  and  O_31
REMARK                            x       y       z     vdW  Elec       q    Type
REMARK                         _______ _______ _______ _____ _____    ______ ____
ROOT
ATOM      1  C   UNL     1     -33.637  17.937   0.185  0.00  0.00    +0.125 C 
ATOM      2  C   UNL     1     -34.949  18.033  -0.280  0.00  0.00    +0.022 C 
ATOM      3  C   UNL     1     -33.212  18.741   1.242  0.00  0.00    +0.022 C 
ATOM      4  C   UNL     1     -35.405  19.732   1.366  0.00  0.00    +0.089 C 
ATOM      5  C   UNL     1     -35.836  18.933   0.313  0.00  0.00    +0.019 C 
ATOM      6  C   UNL     1     -34.098  19.640   1.835  0.00  0.00    +0.019 C 
ENDROOT
BRANCH   1   7
ATOM      7  S   UNL     1     -32.528  16.809  -0.555  0.00  0.00    +0.075 S 
ATOM      8  O   UNL     1     -33.006  16.540  -1.907  0.00  0.00    -0.150 OA
ATOM      9  O   UNL     1     -32.326  15.689   0.354  0.00  0.00    -0.150 OA
BRANCH   7  10
ATOM     10  N   UNL     1     -31.075  17.726  -0.674  0.00  0.00    -0.199 N 
ATOM     11  H   UNL     1     -31.053  18.579  -1.165  0.00  0.00    +0.175 HD
ATOM     12  N   UNL     1     -29.387  16.083  -0.570  0.00  0.00    -0.228 NA
ATOM     13  C   UNL     1     -29.894  17.211  -0.036  0.00  0.00    +0.147 C 
ATOM     14  C   UNL     1     -29.364  17.875   1.053  0.00  0.00    +0.036 C 
ATOM     15  C   UNL     1     -28.222  17.340   1.638  0.00  0.00    +0.005 C 
ATOM     16  C   UNL     1     -28.277  15.592   0.026  0.00  0.00    +0.100 C 
ATOM     17  C   UNL     1     -27.663  16.177   1.122  0.00  0.00    +0.021 C 
ENDBRANCH   7  10
ENDBRANCH   1   7
BRANCH   4  18
ATOM     18  N   UNL     1     -36.298  20.639   1.962  0.00  0.00    -0.128 NA
BRANCH  18  19
ATOM     19  N   UNL     1     -35.792  21.120   3.003  0.00  0.00    -0.128 NA
BRANCH  19  22
ATOM     20  C   UNL     1     -36.316  24.457   4.497  0.00  0.00    +0.024 C 
ATOM     21  C   UNL     1     -35.773  23.199   4.240  0.00  0.00    +0.017 C 
ATOM     22  C   UNL     1     -36.338  22.381   3.262  0.00  0.00    +0.089 C 
ATOM     23  C   UNL     1     -37.427  24.897   3.777  0.00  0.00    +0.130 C 
ATOM     24  C   UNL     1     -37.448  22.821   2.541  0.00  0.00    +0.021 C 
ATOM     25  C   UNL     1     -37.992  24.080   2.798  0.00  0.00    +0.038 C 
BRANCH  23  26
ATOM     26  O   UNL     1     -37.972  26.123   4.016  0.00  0.00    -0.506 OA
ATOM     27  H   UNL     1     -37.945  26.487   4.879  0.00  0.00    +0.292 HD
ENDBRANCH  23  26
BRANCH  20  28
ATOM     28  C   UNL     1     -35.699  25.318   5.548  0.00  0.00    +0.139 C 
BRANCH  28  30
ATOM     29  O   UNL     1     -33.430  26.084   5.104  0.00  0.00    -0.250 OA
ATOM     30  C   UNL     1     -34.638  26.257   5.012  0.00  0.00    +0.318 C 
BRANCH  30  31
ATOM     31  O   UNL     1     -35.185  27.342   4.402  0.00  0.00    -0.480 OA
ATOM     32  H   UNL     1     -36.106  27.503   4.470  0.00  0.00    +0.295 HD
ENDBRANCH  30  31
ENDBRANCH  28  30
ENDBRANCH  20  28
ENDBRANCH  19  22
ENDBRANCH  18  19
ENDBRANCH   4  18
TORSDOF 9
ENDMDL
MODEL 9
REMARK VINA RESULT:      -6.5      5.990      9.186
REMARK  Name = 192035
REMARK  9 active torsions:
REMARK  status: ('A' for Active; 'I' for Inactive)
REMARK    1  A    between atoms: C_1  and  S_7
REMARK    2  A    between atoms: C_4  and  N_18
REMARK    3  A    between atoms: S_7  and  N_10
REMARK    4  A    between atoms: N_18  and  N_19
REMARK    5  A    between atoms: N_19  and  C_22
REMARK    6  A    between atoms: C_20  and  C_28
REMARK    7  A    between atoms: C_23  and  O_26
REMARK    8  A    between atoms: C_28  and  C_30
REMARK    9  A    between atoms: C_30  and  O_31
REMARK                            x       y       z     vdW  Elec       q    Type
REMARK                         _______ _______ _______ _____ _____    ______ ____
ROOT
ATOM      1  C   UNL     1     -33.587  17.589   0.147  0.00  0.00    +0.125 C 
ATOM      2  C   UNL     1     -33.016  18.230   1.246  0.00  0.00    +0.022 C 
ATOM      3  C   UNL     1     -34.826  18.008  -0.339  0.00  0.00    +0.022 C 
ATOM      4  C   UNL     1     -34.919  19.703   1.371  0.00  0.00    +0.089 C 
ATOM      5  C   UNL     1     -33.684  19.290   1.860  0.00  0.00    +0.019 C 
ATOM      6  C   UNL     1     -35.493  19.068   0.274  0.00  0.00    +0.019 C 
ENDROOT
BRANCH   1   7
ATOM      7  S   UNL     1     -32.750  16.263  -0.622  0.00  0.00    +0.075 S 
ATOM      8  O   UNL     1     -33.752  15.420  -1.265  0.00  0.00    -0.150 OA
ATOM      9  O   UNL     1     -31.842  15.661   0.345  0.00  0.00    -0.150 OA
BRANCH   7  10
ATOM     10  N   UNL     1     -31.841  17.050  -1.856  0.00  0.00    -0.199 N 
ATOM     11  H   UNL     1     -31.831  16.702  -2.777  0.00  0.00    +0.175 HD
ATOM     12  N   UNL     1     -30.058  18.035  -0.670  0.00  0.00    -0.228 NA
ATOM     13  C   UNL     1     -31.099  18.229  -1.503  0.00  0.00    +0.147 C 
ATOM     14  C   UNL     1     -31.480  19.453  -2.017  0.00  0.00    +0.036 C 
ATOM     15  C   UNL     1     -30.733  20.566  -1.648  0.00  0.00    +0.005 C 
ATOM     16  C   UNL     1     -29.356  19.141  -0.332  0.00  0.00    +0.100 C 
ATOM     17  C   UNL     1     -29.650  20.416  -0.789  0.00  0.00    +0.021 C 
ENDBRANCH   7  10
ENDBRANCH   1   7
BRANCH   4  18
ATOM     18  N   UNL     1     -35.591  20.771   1.990  0.00  0.00    -0.128 NA
BRANCH  18  19
ATOM     19  N   UNL     1     -35.466  20.695   3.234  0.00  0.00    -0.128 NA
BRANCH  19  22
ATOM     20  C   UNL     1     -36.624  24.172   3.689  0.00  0.00    +0.024 C 
ATOM     21  C   UNL     1     -36.394  22.925   3.110  0.00  0.00    +0.017 C 
ATOM     22  C   UNL     1     -35.696  21.945   3.816  0.00  0.00    +0.089 C 
ATOM     23  C   UNL     1     -36.155  24.441   4.975  0.00  0.00    +0.130 C 
ATOM     24  C   UNL     1     -35.227  22.213   5.101  0.00  0.00    +0.021 C 
ATOM     25  C   UNL     1     -35.456  23.461   5.681  0.00  0.00    +0.038 C 
BRANCH  23  26
ATOM     26  O   UNL     1     -36.369  25.654   5.557  0.00  0.00    -0.506 OA
ATOM     27  H   UNL     1     -35.983  26.425   5.187  0.00  0.00    +0.292 HD
ENDBRANCH  23  26
BRANCH  20  28
ATOM     28  C   UNL     1     -37.372  25.209   2.919  0.00  0.00    +0.139 C 
BRANCH  28  30
ATOM     29  O   UNL     1     -39.565  24.273   3.420  0.00  0.00    -0.250 OA
ATOM     30  C   UNL     1     -38.851  25.252   3.245  0.00  0.00    +0.318 C 
BRANCH  30  31
ATOM     31  O   UNL     1     -39.314  26.528   3.326  0.00  0.00    -0.480 OA
ATOM     32  H   UNL     1     -40.192  26.692   3.610  0.00  0.00    +0.295 HD
ENDBRANCH  30  31
ENDBRANCH  28  30
ENDBRANCH  20  28
ENDBRANCH  19  22
ENDBRANCH  18  19
ENDBRANCH   4  18
TORSDOF 9
ENDMDL
