MODEL 1
REMARK VINA RESULT:      -6.5      0.000      0.000
REMARK  Name = 5311447
REMARK  11 active torsions:
REMARK  status: ('A' for Active; 'I' for Inactive)
REMARK    1  A    between atoms: N_1  and  C_4
REMARK    2  A    between atoms: N_1  and  C_21
REMARK    3  A    between atoms: C_4  and  C_14
REMARK    4  A    between atoms: C_12  and  C_18
REMARK    5  A    between atoms: C_18  and  O_19
REMARK    6  A    between atoms: C_21  and  C_23
REMARK    7  A    between atoms: C_21  and  C_27
REMARK    8  A    between atoms: C_23  and  O_24
REMARK    9  A    between atoms: O_24  and  C_25
REMARK   10  A    between atoms: C_27  and  C_28
REMARK   11  A    between atoms: C_28  and  C_29
REMARK                            x       y       z     vdW  Elec       q    Type
REMARK                         _______ _______ _______ _____ _____    ______ ____
ROOT
ATOM      1  N   UNK A   1     -37.914  22.443   2.973  0.00  0.00    +0.399 N 
ATOM      2  H   UNK A   1     -38.790  22.278   3.467  0.00  0.00    -0.083 HD
ATOM      3  H   UNK A   1     -37.136  22.007   3.469  0.00  0.00    -0.083 HD
ENDROOT
BRANCH   1   4
ATOM      4  C   UNK A   1     -37.670  23.874   2.900  0.00  0.00    +0.018 C 
ATOM      5  C   UNK A   1     -38.917  24.657   3.258  0.00  0.00    -0.014 C 
BRANCH   4  14
ATOM      6  S   UNK A   1     -34.770  28.257   2.633  0.00  0.00    -0.129 S 
ATOM      7  S   UNK A   1     -33.498  26.642   0.471  0.00  0.00    -0.129 S 
ATOM      8  O   UNK A   1     -36.588  23.688   5.012  0.00  0.00    -0.277 OA
ATOM      9  N   UNK A   1     -35.580  25.042   3.426  0.00  0.00    -0.271 N 
ATOM     10  C   UNK A   1     -34.294  26.557   2.110  0.00  0.00    +0.098 C 
ATOM     11  C   UNK A   1     -33.381  25.879   3.147  0.00  0.00    +0.053 C 
ATOM     12  C   UNK A   1     -34.348  25.275   4.169  0.00  0.00    +0.176 C 
ATOM     13  C   UNK A   1     -35.525  25.646   2.091  0.00  0.00    +0.114 C 
ATOM     14  C   UNK A   1     -36.568  24.182   3.883  0.00  0.00    +0.206 C 
ATOM     15  C   UNK A   1     -33.999  29.149   1.258  0.00  0.00    +0.070 C 
ATOM     16  C   UNK A   1     -34.111  28.283   0.022  0.00  0.00    +0.070 C 
BRANCH  12  18
ATOM     17  O   UNK A   1     -33.790  26.633   6.090  0.00  0.00    -0.248 OA
ATOM     18  C   UNK A   1     -34.627  26.213   5.306  0.00  0.00    +0.332 C 
BRANCH  18  19
ATOM     19  O   UNK A   1     -35.944  26.534   5.351  0.00  0.00    -0.479 OA
ATOM     20  H   UNK A   1     -36.521  26.242   4.673  0.00  0.00    +0.295 HD
ENDBRANCH  18  19
ENDBRANCH  12  18
ENDBRANCH   4  14
ENDBRANCH   1   4
BRANCH   1  21
ATOM     21  C   UNK A   0     -38.000  21.857   1.641  0.00  0.00    +0.041 C 
BRANCH  21  23
ATOM     22  O   UNK A   0     -40.257  21.115   2.202  0.00  0.00    -0.252 OA
ATOM     23  C   UNK A   0     -39.462  21.540   1.374  0.00  0.00    +0.297 C 
BRANCH  23  24
ATOM     24  O   UNK A   0     -39.748  21.812   0.065  0.00  0.00    -0.450 OA
BRANCH  24  25
ATOM     25  C   UNK A   0     -39.634  23.186  -0.319  0.00  0.00    +0.208 C 
ATOM     26  C   UNK A   0     -40.893  23.919   0.089  0.00  0.00    +0.051 C 
ENDBRANCH  24  25
ENDBRANCH  23  24
ENDBRANCH  21  23
BRANCH  21  27
ATOM     27  C   UNK A   0     -37.165  20.571   1.530  0.00  0.00    -0.006 C 
BRANCH  27  28
ATOM     28  C   UNK A   0     -35.883  20.547   2.376  0.00  0.00    +0.025 C 
BRANCH  28  29
ATOM     29  C   UNK A   0     -34.617  20.473   1.560  0.00  0.00    -0.022 C 
ATOM     30  C   UNK A   0     -34.230  21.557   0.771  0.00  0.00    -0.004 C 
ATOM     31  C   UNK A   0     -33.833  19.320   1.594  0.00  0.00    -0.004 C 
ATOM     32  C   UNK A   0     -33.061  21.487   0.017  0.00  0.00    -0.000 C 
ATOM     33  C   UNK A   0     -32.662  19.251   0.839  0.00  0.00    -0.000 C 
ATOM     34  C   UNK A   0     -32.275  20.334   0.051  0.00  0.00    -0.000 C 
ENDBRANCH  28  29
ENDBRANCH  27  28
ENDBRANCH  21  27
ENDBRANCH   1  21
TORSDOF 11
ENDMDL
MODEL 2
REMARK VINA RESULT:      -6.3      1.091      1.935
REMARK  Name = 5311447
REMARK  11 active torsions:
REMARK  status: ('A' for Active; 'I' for Inactive)
REMARK    1  A    between atoms: N_1  and  C_4
REMARK    2  A    between atoms: N_1  and  C_21
REMARK    3  A    between atoms: C_4  and  C_14
REMARK    4  A    between atoms: C_12  and  C_18
REMARK    5  A    between atoms: C_18  and  O_19
REMARK    6  A    between atoms: C_21  and  C_23
REMARK    7  A    between atoms: C_21  and  C_27
REMARK    8  A    between atoms: C_23  and  O_24
REMARK    9  A    between atoms: O_24  and  C_25
REMARK   10  A    between atoms: C_27  and  C_28
REMARK   11  A    between atoms: C_28  and  C_29
REMARK                            x       y       z     vdW  Elec       q    Type
REMARK                         _______ _______ _______ _____ _____    ______ ____
ROOT
ATOM      1  N   UNK A   1     -37.726  22.279   2.647  0.00  0.00    +0.399 N 
ATOM      2  H   UNK A   1     -38.700  21.999   2.761  0.00  0.00    -0.083 HD
ATOM      3  H   UNK A   1     -37.150  21.881   3.387  0.00  0.00    -0.083 HD
ENDROOT
BRANCH   1   4
ATOM      4  C   UNK A   1     -37.636  23.728   2.720  0.00  0.00    +0.018 C 
ATOM      5  C   UNK A   1     -38.971  24.338   3.096  0.00  0.00    -0.014 C 
BRANCH   4  14
ATOM      6  S   UNK A   1     -34.817  28.171   2.674  0.00  0.00    -0.129 S 
ATOM      7  S   UNK A   1     -33.374  26.602   0.588  0.00  0.00    -0.129 S 
ATOM      8  O   UNK A   1     -36.689  23.545   4.896  0.00  0.00    -0.277 OA
ATOM      9  N   UNK A   1     -35.609  24.934   3.389  0.00  0.00    -0.271 N 
ATOM     10  C   UNK A   1     -34.272  26.487   2.171  0.00  0.00    +0.098 C 
ATOM     11  C   UNK A   1     -33.415  25.818   3.260  0.00  0.00    +0.053 C 
ATOM     12  C   UNK A   1     -34.433  25.185   4.212  0.00  0.00    +0.176 C 
ATOM     13  C   UNK A   1     -35.480  25.550   2.066  0.00  0.00    +0.114 C 
ATOM     14  C   UNK A   1     -36.606  24.049   3.774  0.00  0.00    +0.206 C 
ATOM     15  C   UNK A   1     -33.977  29.091   1.359  0.00  0.00    +0.070 C 
ATOM     16  C   UNK A   1     -33.991  28.234   0.112  0.00  0.00    +0.070 C 
BRANCH  12  18
ATOM     17  O   UNK A   1     -34.027  26.545   6.170  0.00  0.00    -0.248 OA
ATOM     18  C   UNK A   1     -34.805  26.108   5.336  0.00  0.00    +0.332 C 
BRANCH  18  19
ATOM     19  O   UNK A   1     -36.130  26.392   5.304  0.00  0.00    -0.479 OA
ATOM     20  H   UNK A   1     -36.755  25.701   5.213  0.00  0.00    +0.295 HD
ENDBRANCH  18  19
ENDBRANCH  12  18
ENDBRANCH   4  14
ENDBRANCH   1   4
BRANCH   1  21
ATOM     21  C   UNK A   0     -37.238  21.787   1.364  0.00  0.00    +0.041 C 
BRANCH  21  23
ATOM     22  O   UNK A   0     -39.517  20.946   1.120  0.00  0.00    -0.252 OA
ATOM     23  C   UNK A   0     -38.361  20.989   0.722  0.00  0.00    +0.297 C 
BRANCH  23  24
ATOM     24  O   UNK A   0     -37.874  20.335  -0.376  0.00  0.00    -0.450 OA
BRANCH  24  25
ATOM     25  C   UNK A   0     -38.461  19.058  -0.645  0.00  0.00    +0.208 C 
ATOM     26  C   UNK A   0     -37.455  17.975  -0.321  0.00  0.00    +0.051 C 
ENDBRANCH  24  25
ENDBRANCH  23  24
ENDBRANCH  21  23
BRANCH  21  27
ATOM     27  C   UNK A   0     -36.000  20.892   1.533  0.00  0.00    -0.006 C 
BRANCH  27  28
ATOM     28  C   UNK A   0     -34.715  21.417   0.875  0.00  0.00    +0.025 C 
BRANCH  28  29
ATOM     29  C   UNK A   0     -33.601  20.402   0.820  0.00  0.00    -0.022 C 
ATOM     30  C   UNK A   0     -33.739  19.178   1.475  0.00  0.00    -0.004 C 
ATOM     31  C   UNK A   0     -32.432  20.689   0.115  0.00  0.00    -0.004 C 
ATOM     32  C   UNK A   0     -32.709  18.241   1.425  0.00  0.00    -0.000 C 
ATOM     33  C   UNK A   0     -31.401  19.750   0.064  0.00  0.00    -0.000 C 
ATOM     34  C   UNK A   0     -31.539  18.526   0.718  0.00  0.00    -0.000 C 
ENDBRANCH  28  29
ENDBRANCH  27  28
ENDBRANCH  21  27
ENDBRANCH   1  21
TORSDOF 11
ENDMDL
MODEL 3
REMARK VINA RESULT:      -6.3      2.674      5.043
REMARK  Name = 5311447
REMARK  11 active torsions:
REMARK  status: ('A' for Active; 'I' for Inactive)
REMARK    1  A    between atoms: N_1  and  C_4
REMARK    2  A    between atoms: N_1  and  C_21
REMARK    3  A    between atoms: C_4  and  C_14
REMARK    4  A    between atoms: C_12  and  C_18
REMARK    5  A    between atoms: C_18  and  O_19
REMARK    6  A    between atoms: C_21  and  C_23
REMARK    7  A    between atoms: C_21  and  C_27
REMARK    8  A    between atoms: C_23  and  O_24
REMARK    9  A    between atoms: O_24  and  C_25
REMARK   10  A    between atoms: C_27  and  C_28
REMARK   11  A    between atoms: C_28  and  C_29
REMARK                            x       y       z     vdW  Elec       q    Type
REMARK                         _______ _______ _______ _____ _____    ______ ____
ROOT
ATOM      1  N   UNK A   1     -37.637  20.643   1.133  0.00  0.00    +0.399 N 
ATOM      2  H   UNK A   1     -38.034  19.712   1.005  0.00  0.00    -0.083 HD
ATOM      3  H   UNK A   1     -37.567  20.868   2.126  0.00  0.00    -0.083 HD
ENDROOT
BRANCH   1   4
ATOM      4  C   UNK A   1     -38.503  21.621   0.498  0.00  0.00    +0.018 C 
ATOM      5  C   UNK A   1     -39.564  20.943  -0.345  0.00  0.00    -0.014 C 
BRANCH   4  14
ATOM      6  S   UNK A   1     -38.551  26.883   0.566  0.00  0.00    -0.129 S 
ATOM      7  S   UNK A   1     -35.759  26.364   1.477  0.00  0.00    -0.129 S 
ATOM      8  O   UNK A   1     -40.061  21.918   2.273  0.00  0.00    -0.277 OA
ATOM      9  N   UNK A   1     -38.666  23.702   1.785  0.00  0.00    -0.271 N 
ATOM     10  C   UNK A   1     -37.477  25.754   1.545  0.00  0.00    +0.098 C 
ATOM     11  C   UNK A   1     -37.971  25.616   2.996  0.00  0.00    +0.053 C 
ATOM     12  C   UNK A   1     -39.037  24.519   2.933  0.00  0.00    +0.176 C 
ATOM     13  C   UNK A   1     -37.588  24.323   1.009  0.00  0.00    +0.114 C 
ATOM     14  C   UNK A   1     -39.153  22.415   1.604  0.00  0.00    +0.206 C 
ATOM     15  C   UNK A   1     -37.298  28.138   0.198  0.00  0.00    +0.070 C 
ATOM     16  C   UNK A   1     -35.970  27.431   0.033  0.00  0.00    +0.070 C 
BRANCH  12  18
ATOM     17  O   UNK A   1     -41.115  24.856   1.742  0.00  0.00    -0.248 OA
ATOM     18  C   UNK A   1     -40.412  25.079   2.716  0.00  0.00    +0.332 C 
BRANCH  18  19
ATOM     19  O   UNK A   1     -40.774  25.876   3.751  0.00  0.00    -0.479 OA
ATOM     20  H   UNK A   1     -41.604  25.754   4.168  0.00  0.00    +0.295 HD
ENDBRANCH  18  19
ENDBRANCH  12  18
ENDBRANCH   4  14
ENDBRANCH   1   4
BRANCH   1  21
ATOM     21  C   UNK A   0     -36.298  20.674   0.556  0.00  0.00    +0.041 C 
BRANCH  21  23
ATOM     22  O   UNK A   0     -36.764  18.350  -0.031  0.00  0.00    -0.252 OA
ATOM     23  C   UNK A   0     -35.960  19.261   0.110  0.00  0.00    +0.297 C 
BRANCH  23  24
ATOM     24  O   UNK A   0     -34.614  19.173  -0.115  0.00  0.00    -0.450 OA
BRANCH  24  25
ATOM     25  C   UNK A   0     -33.981  17.986   0.375  0.00  0.00    +0.208 C 
ATOM     26  C   UNK A   0     -32.924  18.373   1.386  0.00  0.00    +0.051 C 
ENDBRANCH  24  25
ENDBRANCH  23  24
ENDBRANCH  21  23
BRANCH  21  27
ATOM     27  C   UNK A   0     -35.252  21.158   1.573  0.00  0.00    -0.006 C 
BRANCH  27  28
ATOM     28  C   UNK A   0     -35.443  20.642   3.007  0.00  0.00    +0.025 C 
BRANCH  28  29
ATOM     29  C   UNK A   0     -35.361  21.721   4.057  0.00  0.00    -0.022 C 
ATOM     30  C   UNK A   0     -35.256  21.377   5.405  0.00  0.00    -0.004 C 
ATOM     31  C   UNK A   0     -35.390  23.064   3.680  0.00  0.00    -0.004 C 
ATOM     32  C   UNK A   0     -35.181  22.375   6.375  0.00  0.00    -0.000 C 
ATOM     33  C   UNK A   0     -35.313  24.063   4.651  0.00  0.00    -0.000 C 
ATOM     34  C   UNK A   0     -35.209  23.719   5.999  0.00  0.00    -0.000 C 
ENDBRANCH  28  29
ENDBRANCH  27  28
ENDBRANCH  21  27
ENDBRANCH   1  21
TORSDOF 11
ENDMDL
MODEL 4
REMARK VINA RESULT:      -6.2      2.449      4.946
REMARK  Name = 5311447
REMARK  11 active torsions:
REMARK  status: ('A' for Active; 'I' for Inactive)
REMARK    1  A    between atoms: N_1  and  C_4
REMARK    2  A    between atoms: N_1  and  C_21
REMARK    3  A    between atoms: C_4  and  C_14
REMARK    4  A    between atoms: C_12  and  C_18
REMARK    5  A    between atoms: C_18  and  O_19
REMARK    6  A    between atoms: C_21  and  C_23
REMARK    7  A    between atoms: C_21  and  C_27
REMARK    8  A    between atoms: C_23  and  O_24
REMARK    9  A    between atoms: O_24  and  C_25
REMARK   10  A    between atoms: C_27  and  C_28
REMARK   11  A    between atoms: C_28  and  C_29
REMARK                            x       y       z     vdW  Elec       q    Type
REMARK                         _______ _______ _______ _____ _____    ______ ____
ROOT
ATOM      1  N   UNK A   1     -37.198  20.803   2.606  0.00  0.00    +0.399 N 
ATOM      2  H   UNK A   1     -37.362  19.802   2.502  0.00  0.00    -0.083 HD
ATOM      3  H   UNK A   1     -37.699  21.165   3.417  0.00  0.00    -0.083 HD
ENDROOT
BRANCH   1   4
ATOM      4  C   UNK A   1     -37.682  21.491   1.421  0.00  0.00    +0.018 C 
ATOM      5  C   UNK A   1     -37.959  20.511   0.298  0.00  0.00    -0.014 C 
BRANCH   4  14
ATOM      6  S   UNK A   1     -39.030  26.192  -0.521  0.00  0.00    -0.129 S 
ATOM      7  S   UNK A   1     -36.993  27.013   1.498  0.00  0.00    -0.129 S 
ATOM      8  O   UNK A   1     -39.922  21.555   2.225  0.00  0.00    -0.277 OA
ATOM      9  N   UNK A   1     -38.943  23.578   1.665  0.00  0.00    -0.271 N 
ATOM     10  C   UNK A   1     -38.324  25.818   1.138  0.00  0.00    +0.098 C 
ATOM     11  C   UNK A   1     -39.406  25.832   2.232  0.00  0.00    +0.053 C 
ATOM     12  C   UNK A   1     -40.007  24.425   2.190  0.00  0.00    +0.176 C 
ATOM     13  C   UNK A   1     -37.812  24.375   1.181  0.00  0.00    +0.114 C 
ATOM     14  C   UNK A   1     -38.954  22.199   1.813  0.00  0.00    +0.206 C 
ATOM     15  C   UNK A   1     -38.101  27.715  -0.833  0.00  0.00    +0.070 C 
ATOM     16  C   UNK A   1     -36.732  27.560  -0.205  0.00  0.00    +0.070 C 
BRANCH  12  18
ATOM     17  O   UNK A   1     -41.352  23.510   0.400  0.00  0.00    -0.248 OA
ATOM     18  C   UNK A   1     -41.196  24.345   1.278  0.00  0.00    +0.332 C 
BRANCH  18  19
ATOM     19  O   UNK A   1     -42.081  25.334   1.556  0.00  0.00    -0.479 OA
ATOM     20  H   UNK A   1     -42.651  25.258   2.295  0.00  0.00    +0.295 HD
ENDBRANCH  18  19
ENDBRANCH  12  18
ENDBRANCH   4  14
ENDBRANCH   1   4
BRANCH   1  21
ATOM     21  C   UNK A   0     -35.772  21.035   2.801  0.00  0.00    +0.041 C 
BRANCH  21  23
ATOM     22  O   UNK A   0     -34.872  23.303   2.719  0.00  0.00    -0.252 OA
ATOM     23  C   UNK A   0     -35.599  22.476   3.252  0.00  0.00    +0.297 C 
BRANCH  23  24
ATOM     24  O   UNK A   0     -36.392  22.701   4.343  0.00  0.00    -0.450 OA
BRANCH  24  25
ATOM     25  C   UNK A   0     -35.723  23.223   5.496  0.00  0.00    +0.208 C 
ATOM     26  C   UNK A   0     -35.326  22.075   6.398  0.00  0.00    +0.051 C 
ENDBRANCH  24  25
ENDBRANCH  23  24
ENDBRANCH  21  23
BRANCH  21  27
ATOM     27  C   UNK A   0     -34.976  20.800   1.507  0.00  0.00    -0.006 C 
BRANCH  27  28
ATOM     28  C   UNK A   0     -34.494  19.358   1.286  0.00  0.00    +0.025 C 
BRANCH  28  29
ATOM     29  C   UNK A   0     -33.047  19.258   0.874  0.00  0.00    -0.022 C 
ATOM     30  C   UNK A   0     -32.300  18.130   1.216  0.00  0.00    -0.004 C 
ATOM     31  C   UNK A   0     -32.455  20.293   0.151  0.00  0.00    -0.004 C 
ATOM     32  C   UNK A   0     -30.962  18.038   0.835  0.00  0.00    -0.000 C 
ATOM     33  C   UNK A   0     -31.116  20.200  -0.231  0.00  0.00    -0.000 C 
ATOM     34  C   UNK A   0     -30.370  19.073   0.111  0.00  0.00    -0.000 C 
ENDBRANCH  28  29
ENDBRANCH  27  28
ENDBRANCH  21  27
ENDBRANCH   1  21
TORSDOF 11
ENDMDL
MODEL 5
REMARK VINA RESULT:      -5.9      2.158      3.700
REMARK  Name = 5311447
REMARK  11 active torsions:
REMARK  status: ('A' for Active; 'I' for Inactive)
REMARK    1  A    between atoms: N_1  and  C_4
REMARK    2  A    between atoms: N_1  and  C_21
REMARK    3  A    between atoms: C_4  and  C_14
REMARK    4  A    between atoms: C_12  and  C_18
REMARK    5  A    between atoms: C_18  and  O_19
REMARK    6  A    between atoms: C_21  and  C_23
REMARK    7  A    between atoms: C_21  and  C_27
REMARK    8  A    between atoms: C_23  and  O_24
REMARK    9  A    between atoms: O_24  and  C_25
REMARK   10  A    between atoms: C_27  and  C_28
REMARK   11  A    between atoms: C_28  and  C_29
REMARK                            x       y       z     vdW  Elec       q    Type
REMARK                         _______ _______ _______ _____ _____    ______ ____
ROOT
ATOM      1  N   UNK A   1     -37.359  22.898   3.409  0.00  0.00    +0.399 N 
ATOM      2  H   UNK A   1     -38.292  22.486   3.409  0.00  0.00    -0.083 HD
ATOM      3  H   UNK A   1     -37.286  23.617   4.129  0.00  0.00    -0.083 HD
ENDROOT
BRANCH   1   4
ATOM      4  C   UNK A   1     -37.110  23.512   2.116  0.00  0.00    +0.018 C 
ATOM      5  C   UNK A   1     -38.139  23.068   1.096  0.00  0.00    -0.014 C 
BRANCH   4  14
ATOM      6  S   UNK A   1     -34.050  26.900  -0.501  0.00  0.00    -0.129 S 
ATOM      7  S   UNK A   1     -32.122  25.915   1.550  0.00  0.00    -0.129 S 
ATOM      8  O   UNK A   1     -38.234  25.519   2.729  0.00  0.00    -0.277 OA
ATOM      9  N   UNK A   1     -36.045  25.717   1.997  0.00  0.00    -0.271 N 
ATOM     10  C   UNK A   1     -33.871  26.334   1.241  0.00  0.00    +0.098 C 
ATOM     11  C   UNK A   1     -34.384  27.389   2.237  0.00  0.00    +0.053 C 
ATOM     12  C   UNK A   1     -35.889  27.127   2.326  0.00  0.00    +0.176 C 
ATOM     13  C   UNK A   1     -34.791  25.138   1.505  0.00  0.00    +0.114 C 
ATOM     14  C   UNK A   1     -37.192  25.004   2.316  0.00  0.00    +0.206 C 
ATOM     15  C   UNK A   1     -32.291  26.903  -0.929  0.00  0.00    +0.070 C 
ATOM     16  C   UNK A   1     -31.630  25.765  -0.183  0.00  0.00    +0.070 C 
BRANCH  12  18
ATOM     17  O   UNK A   1     -37.256  27.511   0.368  0.00  0.00    -0.248 OA
ATOM     18  C   UNK A   1     -36.665  27.953   1.342  0.00  0.00    +0.332 C 
BRANCH  18  19
ATOM     19  O   UNK A   1     -36.620  29.266   1.676  0.00  0.00    -0.479 OA
ATOM     20  H   UNK A   1     -35.841  29.762   1.521  0.00  0.00    +0.295 HD
ENDBRANCH  18  19
ENDBRANCH  12  18
ENDBRANCH   4  14
ENDBRANCH   1   4
BRANCH   1  21
ATOM     21  C   UNK A   0     -36.379  21.857   3.694  0.00  0.00    +0.041 C 
BRANCH  21  23
ATOM     22  O   UNK A   0     -34.881  21.528   5.594  0.00  0.00    -0.252 OA
ATOM     23  C   UNK A   0     -35.667  22.238   4.982  0.00  0.00    +0.297 C 
BRANCH  23  24
ATOM     24  O   UNK A   0     -36.041  23.503   5.342  0.00  0.00    -0.450 OA
BRANCH  24  25
ATOM     25  C   UNK A   0     -35.003  24.488   5.308  0.00  0.00    +0.208 C 
ATOM     26  C   UNK A   0     -35.574  25.822   5.734  0.00  0.00    +0.051 C 
ENDBRANCH  24  25
ENDBRANCH  23  24
ENDBRANCH  21  23
BRANCH  21  27
ATOM     27  C   UNK A   0     -35.351  21.718   2.559  0.00  0.00    -0.006 C 
BRANCH  27  28
ATOM     28  C   UNK A   0     -35.267  20.325   1.917  0.00  0.00    +0.025 C 
BRANCH  28  29
ATOM     29  C   UNK A   0     -33.935  20.031   1.274  0.00  0.00    -0.022 C 
ATOM     30  C   UNK A   0     -33.349  20.968   0.423  0.00  0.00    -0.004 C 
ATOM     31  C   UNK A   0     -33.290  18.822   1.531  0.00  0.00    -0.004 C 
ATOM     32  C   UNK A   0     -32.118  20.696  -0.172  0.00  0.00    -0.000 C 
ATOM     33  C   UNK A   0     -32.057  18.550   0.936  0.00  0.00    -0.000 C 
ATOM     34  C   UNK A   0     -31.471  19.486   0.085  0.00  0.00    -0.000 C 
ENDBRANCH  28  29
ENDBRANCH  27  28
ENDBRANCH  21  27
ENDBRANCH   1  21
TORSDOF 11
ENDMDL
MODEL 6
REMARK VINA RESULT:      -5.9      3.170      4.850
REMARK  Name = 5311447
REMARK  11 active torsions:
REMARK  status: ('A' for Active; 'I' for Inactive)
REMARK    1  A    between atoms: N_1  and  C_4
REMARK    2  A    between atoms: N_1  and  C_21
REMARK    3  A    between atoms: C_4  and  C_14
REMARK    4  A    between atoms: C_12  and  C_18
REMARK    5  A    between atoms: C_18  and  O_19
REMARK    6  A    between atoms: C_21  and  C_23
REMARK    7  A    between atoms: C_21  and  C_27
REMARK    8  A    between atoms: C_23  and  O_24
REMARK    9  A    between atoms: O_24  and  C_25
REMARK   10  A    between atoms: C_27  and  C_28
REMARK   11  A    between atoms: C_28  and  C_29
REMARK                            x       y       z     vdW  Elec       q    Type
REMARK                         _______ _______ _______ _____ _____    ______ ____
ROOT
ATOM      1  N   UNK A   1     -34.057  25.275   3.684  0.00  0.00    +0.399 N 
ATOM      2  H   UNK A   1     -34.026  25.087   4.686  0.00  0.00    -0.083 HD
ATOM      3  H   UNK A   1     -33.405  24.669   3.186  0.00  0.00    -0.083 HD
ENDROOT
BRANCH   1   4
ATOM      4  C   UNK A   1     -33.677  26.657   3.447  0.00  0.00    +0.018 C 
ATOM      5  C   UNK A   1     -34.876  27.489   3.040  0.00  0.00    -0.014 C 
BRANCH   4  14
ATOM      6  S   UNK A   1     -30.494  30.843   3.643  0.00  0.00    -0.129 S 
ATOM      7  S   UNK A   1     -28.581  28.763   2.688  0.00  0.00    -0.129 S 
ATOM      8  O   UNK A   1     -33.673  26.963   5.807  0.00  0.00    -0.277 OA
ATOM      9  N   UNK A   1     -31.923  27.906   4.619  0.00  0.00    -0.271 N 
ATOM     10  C   UNK A   1     -30.027  29.066   3.759  0.00  0.00    +0.098 C 
ATOM     11  C   UNK A   1     -29.752  28.644   5.213  0.00  0.00    +0.053 C 
ATOM     12  C   UNK A   1     -31.132  28.300   5.777  0.00  0.00    +0.176 C 
ATOM     13  C   UNK A   1     -31.214  28.181   3.366  0.00  0.00    +0.114 C 
ATOM     14  C   UNK A   1     -33.100  27.180   4.738  0.00  0.00    +0.206 C 
ATOM     15  C   UNK A   1     -29.099  31.386   2.624  0.00  0.00    +0.070 C 
ATOM     16  C   UNK A   1     -28.746  30.256   1.682  0.00  0.00    +0.070 C 
BRANCH  12  18
ATOM     17  O   UNK A   1     -32.513  30.283   5.882  0.00  0.00    -0.248 OA
ATOM     18  C   UNK A   1     -31.781  29.479   6.440  0.00  0.00    +0.332 C 
BRANCH  18  19
ATOM     19  O   UNK A   1     -31.444  29.538   7.752  0.00  0.00    -0.479 OA
ATOM     20  H   UNK A   1     -31.450  30.360   8.201  0.00  0.00    +0.295 HD
ENDBRANCH  18  19
ENDBRANCH  12  18
ENDBRANCH   4  14
ENDBRANCH   1   4
BRANCH   1  21
ATOM     21  C   UNK A   0     -35.404  25.009   3.192  0.00  0.00    +0.041 C 
BRANCH  21  23
ATOM     22  O   UNK A   0     -37.397  24.212   4.355  0.00  0.00    -0.252 OA
ATOM     23  C   UNK A   0     -36.182  24.352   4.320  0.00  0.00    +0.297 C 
BRANCH  23  24
ATOM     24  O   UNK A   0     -35.306  23.935   5.284  0.00  0.00    -0.450 OA
BRANCH  24  25
ATOM     25  C   UNK A   0     -35.697  22.765   6.010  0.00  0.00    +0.208 C 
ATOM     26  C   UNK A   0     -34.778  21.623   5.638  0.00  0.00    +0.051 C 
ENDBRANCH  24  25
ENDBRANCH  23  24
ENDBRANCH  21  23
BRANCH  21  27
ATOM     27  C   UNK A   0     -35.388  24.080   1.967  0.00  0.00    -0.006 C 
BRANCH  27  28
ATOM     28  C   UNK A   0     -35.784  22.622   2.244  0.00  0.00    +0.025 C 
BRANCH  28  29
ATOM     29  C   UNK A   0     -34.838  21.611   1.647  0.00  0.00    -0.022 C 
ATOM     30  C   UNK A   0     -34.847  20.293   2.101  0.00  0.00    -0.004 C 
ATOM     31  C   UNK A   0     -33.953  21.996   0.639  0.00  0.00    -0.004 C 
ATOM     32  C   UNK A   0     -33.972  19.359   1.548  0.00  0.00    -0.000 C 
ATOM     33  C   UNK A   0     -33.078  21.061   0.085  0.00  0.00    -0.000 C 
ATOM     34  C   UNK A   0     -33.087  19.743   0.540  0.00  0.00    -0.000 C 
ENDBRANCH  28  29
ENDBRANCH  27  28
ENDBRANCH  21  27
ENDBRANCH   1  21
TORSDOF 11
ENDMDL
MODEL 7
REMARK VINA RESULT:      -5.8      1.902      2.796
REMARK  Name = 5311447
REMARK  11 active torsions:
REMARK  status: ('A' for Active; 'I' for Inactive)
REMARK    1  A    between atoms: N_1  and  C_4
REMARK    2  A    between atoms: N_1  and  C_21
REMARK    3  A    between atoms: C_4  and  C_14
REMARK    4  A    between atoms: C_12  and  C_18
REMARK    5  A    between atoms: C_18  and  O_19
REMARK    6  A    between atoms: C_21  and  C_23
REMARK    7  A    between atoms: C_21  and  C_27
REMARK    8  A    between atoms: C_23  and  O_24
REMARK    9  A    between atoms: O_24  and  C_25
REMARK   10  A    between atoms: C_27  and  C_28
REMARK   11  A    between atoms: C_28  and  C_29
REMARK                            x       y       z     vdW  Elec       q    Type
REMARK                         _______ _______ _______ _____ _____    ______ ____
ROOT
ATOM      1  N   UNK A   1     -35.493  23.650   4.347  0.00  0.00    +0.399 N 
ATOM      2  H   UNK A   1     -36.238  23.249   4.916  0.00  0.00    -0.083 HD
ATOM      3  H   UNK A   1     -34.581  23.435   4.749  0.00  0.00    -0.083 HD
ENDROOT
BRANCH   1   4
ATOM      4  C   UNK A   1     -35.650  25.094   4.306  0.00  0.00    +0.018 C 
ATOM      5  C   UNK A   1     -36.240  25.614   5.602  0.00  0.00    -0.014 C 
BRANCH   4  14
ATOM      6  S   UNK A   1     -34.888  30.067   2.762  0.00  0.00    -0.129 S 
ATOM      7  S   UNK A   1     -35.642  28.811   0.164  0.00  0.00    -0.129 S 
ATOM      8  O   UNK A   1     -33.302  25.205   4.682  0.00  0.00    -0.277 OA
ATOM      9  N   UNK A   1     -34.211  26.758   3.224  0.00  0.00    -0.271 N 
ATOM     10  C   UNK A   1     -34.768  28.540   1.742  0.00  0.00    +0.098 C 
ATOM     11  C   UNK A   1     -33.305  28.123   1.513  0.00  0.00    +0.053 C 
ATOM     12  C   UNK A   1     -32.944  27.301   2.753  0.00  0.00    +0.176 C 
ATOM     13  C   UNK A   1     -35.347  27.346   2.508  0.00  0.00    +0.114 C 
ATOM     14  C   UNK A   1     -34.276  25.679   4.094  0.00  0.00    +0.206 C 
ATOM     15  C   UNK A   1     -35.690  31.115   1.522  0.00  0.00    +0.070 C 
ATOM     16  C   UNK A   1     -36.612  30.239   0.702  0.00  0.00    +0.070 C 
BRANCH  12  18
ATOM     17  O   UNK A   1     -32.816  28.314   4.945  0.00  0.00    -0.248 OA
ATOM     18  C   UNK A   1     -32.337  28.147   3.834  0.00  0.00    +0.332 C 
BRANCH  18  19
ATOM     19  O   UNK A   1     -31.179  28.709   3.409  0.00  0.00    -0.479 OA
ATOM     20  H   UNK A   1     -30.364  28.271   3.556  0.00  0.00    +0.295 HD
ENDBRANCH  18  19
ENDBRANCH  12  18
ENDBRANCH   4  14
ENDBRANCH   1   4
BRANCH   1  21
ATOM     21  C   UNK A   0     -35.555  23.078   3.007  0.00  0.00    +0.041 C 
BRANCH  21  23
ATOM     22  O   UNK A   0     -36.943  24.227   1.359  0.00  0.00    -0.252 OA
ATOM     23  C   UNK A   0     -36.854  23.544   2.371  0.00  0.00    +0.297 C 
BRANCH  23  24
ATOM     24  O   UNK A   0     -37.907  23.070   3.104  0.00  0.00    -0.450 OA
BRANCH  24  25
ATOM     25  C   UNK A   0     -39.165  23.029   2.423  0.00  0.00    +0.208 C 
ATOM     26  C   UNK A   0     -39.401  21.627   1.906  0.00  0.00    +0.051 C 
ENDBRANCH  24  25
ENDBRANCH  23  24
ENDBRANCH  21  23
BRANCH  21  27
ATOM     27  C   UNK A   0     -35.521  21.541   3.044  0.00  0.00    -0.006 C 
BRANCH  27  28
ATOM     28  C   UNK A   0     -35.565  20.852   1.672  0.00  0.00    +0.025 C 
BRANCH  28  29
ATOM     29  C   UNK A   0     -34.216  20.389   1.181  0.00  0.00    -0.022 C 
ATOM     30  C   UNK A   0     -33.462  21.206   0.338  0.00  0.00    -0.004 C 
ATOM     31  C   UNK A   0     -33.724  19.143   1.569  0.00  0.00    -0.004 C 
ATOM     32  C   UNK A   0     -32.216  20.777  -0.116  0.00  0.00    -0.000 C 
ATOM     33  C   UNK A   0     -32.476  18.714   1.115  0.00  0.00    -0.000 C 
ATOM     34  C   UNK A   0     -31.722  19.531   0.273  0.00  0.00    -0.000 C 
ENDBRANCH  28  29
ENDBRANCH  27  28
ENDBRANCH  21  27
ENDBRANCH   1  21
TORSDOF 11
ENDMDL
MODEL 8
REMARK VINA RESULT:      -5.8      2.395      4.069
REMARK  Name = 5311447
REMARK  11 active torsions:
REMARK  status: ('A' for Active; 'I' for Inactive)
REMARK    1  A    between atoms: N_1  and  C_4
REMARK    2  A    between atoms: N_1  and  C_21
REMARK    3  A    between atoms: C_4  and  C_14
REMARK    4  A    between atoms: C_12  and  C_18
REMARK    5  A    between atoms: C_18  and  O_19
REMARK    6  A    between atoms: C_21  and  C_23
REMARK    7  A    between atoms: C_21  and  C_27
REMARK    8  A    between atoms: C_23  and  O_24
REMARK    9  A    between atoms: O_24  and  C_25
REMARK   10  A    between atoms: C_27  and  C_28
REMARK   11  A    between atoms: C_28  and  C_29
REMARK                            x       y       z     vdW  Elec       q    Type
REMARK                         _______ _______ _______ _____ _____    ______ ____
ROOT
ATOM      1  N   UNK A   1     -38.301  20.652   0.933  0.00  0.00    +0.399 N 
ATOM      2  H   UNK A   1     -39.074  20.008   0.765  0.00  0.00    -0.083 HD
ATOM      3  H   UNK A   1     -38.191  20.827   1.932  0.00  0.00    -0.083 HD
ENDROOT
BRANCH   1   4
ATOM      4  C   UNK A   1     -38.582  21.915   0.271  0.00  0.00    +0.018 C 
ATOM      5  C   UNK A   1     -39.511  21.717  -0.909  0.00  0.00    -0.014 C 
BRANCH   4  14
ATOM      6  S   UNK A   1     -36.573  26.581   1.647  0.00  0.00    -0.129 S 
ATOM      7  S   UNK A   1     -34.787  24.756   3.188  0.00  0.00    -0.129 S 
ATOM      8  O   UNK A   1     -40.442  22.726   1.515  0.00  0.00    -0.277 OA
ATOM      9  N   UNK A   1     -38.386  23.708   1.932  0.00  0.00    -0.271 N 
ATOM     10  C   UNK A   1     -36.491  24.999   2.584  0.00  0.00    +0.098 C 
ATOM     11  C   UNK A   1     -37.509  24.968   3.737  0.00  0.00    +0.053 C 
ATOM     12  C   UNK A   1     -38.810  24.493   3.084  0.00  0.00    +0.176 C 
ATOM     13  C   UNK A   1     -36.945  23.835   1.697  0.00  0.00    +0.114 C 
ATOM     14  C   UNK A   1     -39.232  22.811   1.295  0.00  0.00    +0.206 C 
ATOM     15  C   UNK A   1     -34.890  27.149   1.998  0.00  0.00    +0.070 C 
ATOM     16  C   UNK A   1     -33.994  25.931   2.066  0.00  0.00    +0.070 C 
BRANCH  12  18
ATOM     17  O   UNK A   1     -39.966  25.854   1.453  0.00  0.00    -0.248 OA
ATOM     18  C   UNK A   1     -39.658  25.639   2.616  0.00  0.00    +0.332 C 
BRANCH  18  19
ATOM     19  O   UNK A   1     -40.038  26.413   3.661  0.00  0.00    -0.479 OA
ATOM     20  H   UNK A   1     -39.416  26.977   4.077  0.00  0.00    +0.295 HD
ENDBRANCH  18  19
ENDBRANCH  12  18
ENDBRANCH   4  14
ENDBRANCH   1   4
BRANCH   1  21
ATOM     21  C   UNK A   0     -37.068  20.058   0.428  0.00  0.00    +0.041 C 
BRANCH  21  23
ATOM     22  O   UNK A   0     -38.545  18.300  -0.403  0.00  0.00    -0.252 OA
ATOM     23  C   UNK A   0     -37.417  18.689  -0.133  0.00  0.00    +0.297 C 
BRANCH  23  24
ATOM     24  O   UNK A   0     -36.267  17.966  -0.294  0.00  0.00    -0.450 OA
BRANCH  24  25
ATOM     25  C   UNK A   0     -35.926  17.642  -1.645  0.00  0.00    +0.208 C 
ATOM     26  C   UNK A   0     -34.492  18.051  -1.904  0.00  0.00    +0.051 C 
ENDBRANCH  24  25
ENDBRANCH  23  24
ENDBRANCH  21  23
BRANCH  21  27
ATOM     27  C   UNK A   0     -36.015  19.908   1.537  0.00  0.00    -0.006 C 
BRANCH  27  28
ATOM     28  C   UNK A   0     -34.775  20.803   1.389  0.00  0.00    +0.025 C 
BRANCH  28  29
ATOM     29  C   UNK A   0     -33.518  20.047   1.041  0.00  0.00    -0.022 C 
ATOM     30  C   UNK A   0     -32.558  20.630   0.213  0.00  0.00    -0.004 C 
ATOM     31  C   UNK A   0     -33.314  18.763   1.548  0.00  0.00    -0.004 C 
ATOM     32  C   UNK A   0     -31.397  19.930  -0.109  0.00  0.00    -0.000 C 
ATOM     33  C   UNK A   0     -32.151  18.063   1.227  0.00  0.00    -0.000 C 
ATOM     34  C   UNK A   0     -31.192  18.647   0.398  0.00  0.00    -0.000 C 
ENDBRANCH  28  29
ENDBRANCH  27  28
ENDBRANCH  21  27
ENDBRANCH   1  21
TORSDOF 11
ENDMDL
MODEL 9
REMARK VINA RESULT:      -5.8      2.756      6.681
REMARK  Name = 5311447
REMARK  11 active torsions:
REMARK  status: ('A' for Active; 'I' for Inactive)
REMARK    1  A    between atoms: N_1  and  C_4
REMARK    2  A    between atoms: N_1  and  C_21
REMARK    3  A    between atoms: C_4  and  C_14
REMARK    4  A    between atoms: C_12  and  C_18
REMARK    5  A    between atoms: C_18  and  O_19
REMARK    6  A    between atoms: C_21  and  C_23
REMARK    7  A    between atoms: C_21  and  C_27
REMARK    8  A    between atoms: C_23  and  O_24
REMARK    9  A    between atoms: O_24  and  C_25
REMARK   10  A    between atoms: C_27  and  C_28
REMARK   11  A    between atoms: C_28  and  C_29
REMARK                            x       y       z     vdW  Elec       q    Type
REMARK                         _______ _______ _______ _____ _____    ______ ____
ROOT
ATOM      1  N   UNK A   1     -35.928  26.031   4.141  0.00  0.00    +0.399 N 
ATOM      2  H   UNK A   1     -35.936  26.407   5.089  0.00  0.00    -0.083 HD
ATOM      3  H   UNK A   1     -36.853  25.686   3.885  0.00  0.00    -0.083 HD
ENDROOT
BRANCH   1   4
ATOM      4  C   UNK A   1     -34.988  24.926   4.075  0.00  0.00    +0.018 C 
ATOM      5  C   UNK A   1     -34.184  24.817   5.355  0.00  0.00    -0.014 C 
BRANCH   4  14
ATOM      6  S   UNK A   1     -33.823  21.365   0.380  0.00  0.00    -0.129 S 
ATOM      7  S   UNK A   1     -35.131  23.460  -1.292  0.00  0.00    -0.129 S 
ATOM      8  O   UNK A   1     -36.463  23.202   4.795  0.00  0.00    -0.277 OA
ATOM      9  N   UNK A   1     -35.729  23.113   2.600  0.00  0.00    -0.271 N 
ATOM     10  C   UNK A   1     -35.149  22.640   0.337  0.00  0.00    +0.098 C 
ATOM     11  C   UNK A   1     -36.529  22.034   0.648  0.00  0.00    +0.053 C 
ATOM     12  C   UNK A   1     -36.607  22.030   2.177  0.00  0.00    +0.176 C 
ATOM     13  C   UNK A   1     -34.953  23.645   1.476  0.00  0.00    +0.114 C 
ATOM     14  C   UNK A   1     -35.800  23.672   3.868  0.00  0.00    +0.206 C 
ATOM     15  C   UNK A   1     -33.312  21.500  -1.353  0.00  0.00    +0.070 C 
ATOM     16  C   UNK A   1     -33.464  22.947  -1.769  0.00  0.00    +0.070 C 
BRANCH  12  18
ATOM     17  O   UNK A   1     -35.095  20.611   3.422  0.00  0.00    -0.248 OA
ATOM     18  C   UNK A   1     -36.116  20.739   2.764  0.00  0.00    +0.332 C 
BRANCH  18  19
ATOM     19  O   UNK A   1     -36.962  19.723   2.463  0.00  0.00    -0.479 OA
ATOM     20  H   UNK A   1     -37.128  19.502   1.568  0.00  0.00    +0.295 HD
ENDBRANCH  18  19
ENDBRANCH  12  18
ENDBRANCH   4  14
ENDBRANCH   1   4
BRANCH   1  21
ATOM     21  C   UNK A   0     -35.556  27.093   3.212  0.00  0.00    +0.041 C 
BRANCH  21  23
ATOM     22  O   UNK A   0     -36.007  27.014   0.814  0.00  0.00    -0.252 OA
ATOM     23  C   UNK A   0     -36.411  26.930   1.966  0.00  0.00    +0.297 C 
BRANCH  23  24
ATOM     24  O   UNK A   0     -37.700  26.666   2.339  0.00  0.00    -0.450 OA
BRANCH  24  25
ATOM     25  C   UNK A   0     -38.326  25.570   1.665  0.00  0.00    +0.208 C 
ATOM     26  C   UNK A   0     -39.184  24.809   2.653  0.00  0.00    +0.051 C 
ENDBRANCH  24  25
ENDBRANCH  23  24
ENDBRANCH  21  23
BRANCH  21  27
ATOM     27  C   UNK A   0     -34.069  27.019   2.831  0.00  0.00    -0.006 C 
BRANCH  27  28
ATOM     28  C   UNK A   0     -33.350  28.373   2.731  0.00  0.00    +0.025 C 
BRANCH  28  29
ATOM     29  C   UNK A   0     -32.766  28.849   4.037  0.00  0.00    -0.022 C 
ATOM     30  C   UNK A   0     -32.429  27.928   5.028  0.00  0.00    -0.004 C 
ATOM     31  C   UNK A   0     -32.564  30.212   4.253  0.00  0.00    -0.004 C 
ATOM     32  C   UNK A   0     -31.890  28.369   6.236  0.00  0.00    -0.000 C 
ATOM     33  C   UNK A   0     -32.023  30.653   5.461  0.00  0.00    -0.000 C 
ATOM     34  C   UNK A   0     -31.686  29.732   6.453  0.00  0.00    -0.000 C 
ENDBRANCH  28  29
ENDBRANCH  27  28
ENDBRANCH  21  27
ENDBRANCH   1  21
TORSDOF 11
ENDMDL
