MODEL 1
REMARK VINA RESULT:      -5.4      0.000      0.000
REMARK  Name = 193379
REMARK  9 active torsions:
REMARK  status: ('A' for Active; 'I' for Inactive)
REMARK    1  A    between atoms: CA_1  and  C_4
REMARK    2  A    between atoms: CA_1  and  N_12
REMARK    3  A    between atoms: CA_1  and  CB_21
REMARK    4  A    between atoms: N_3  and  CA_6
REMARK    5  A    between atoms: CA_6  and  C_8
REMARK    6  A    between atoms: C_8  and  O_9
REMARK    7  A    between atoms: C_13  and  C_15
REMARK    8  A    between atoms: C_15  and  N_17
REMARK    9  A    between atoms: CB_21  and  CG_24
REMARK                            x       y       z     vdW  Elec       q    Type
REMARK                         _______ _______ _______ _____ _____    ______ ____
ROOT
ATOM      1  CA  HIS A   1     -36.563  24.711   3.652  0.00  0.00    +0.151 C 
ENDROOT
BRANCH   1   4
ATOM      2  O   HIS A   1     -34.490  23.750   2.845  0.00  0.00    -0.273 OA
ATOM      3  N   GLY A   2     -36.496  22.754   2.236  0.00  0.00    -0.294 N 
ATOM      4  C   HIS A   1     -35.719  23.714   2.867  0.00  0.00    +0.241 C 
ATOM      5  H   GLY A   2     -37.475  22.814   2.314  0.00  0.00    +0.150 HD
BRANCH   3   6
ATOM      6  CA  GLY A   2     -35.928  21.668   1.470  0.00  0.00    +0.200 C 
BRANCH   6   8
ATOM      7  OXT GLY A   2     -34.655  19.937   2.554  0.00  0.00    -0.248 OA
ATOM      8  C   GLY A   2     -35.751  20.409   2.280  0.00  0.00    +0.334 C 
BRANCH   8   9
ATOM      9  O   GLY A   2     -36.918  19.850   2.674  0.00  0.00    -0.479 OA
ATOM     10  H   GLY A   2     -36.967  19.397   3.494  0.00  0.00    +0.295 HD
ENDBRANCH   8   9
ENDBRANCH   6   8
ENDBRANCH   3   6
ENDBRANCH   1   4
BRANCH   1  12
ATOM     11  O   UNK A   0     -38.809  26.273   2.697  0.00  0.00    -0.273 OA
ATOM     12  N   HIS A   1     -37.937  24.293   3.549  0.00  0.00    -0.297 N 
ATOM     13  C   UNK A   0     -38.954  25.113   3.076  0.00  0.00    +0.243 C 
ATOM     14  H   HIS A   1     -38.168  23.377   3.828  0.00  0.00    +0.150 HD
BRANCH  13  15
ATOM     15  C   UNK A   0     -40.282  24.388   3.028  0.00  0.00    +0.176 C 
BRANCH  15  17
ATOM     16  O   UNK A   0     -39.338  21.765   2.214  0.00  0.00    -0.275 OA
ATOM     17  N   UNK A   0     -40.443  23.764   1.748  0.00  0.00    -0.297 N 
ATOM     18  C   UNK A   0     -39.956  22.497   1.443  0.00  0.00    +0.223 C 
ATOM     19  C   UNK A   0     -40.285  22.071   0.038  0.00  0.00    +0.095 C 
ATOM     20  H   UNK A   0     -40.925  24.258   1.047  0.00  0.00    +0.150 HD
ENDBRANCH  15  17
ENDBRANCH  13  15
ENDBRANCH   1  12
BRANCH   1  21
ATOM     21  CB  HIS A   1     -36.093  24.783   5.107  0.00  0.00    +0.059 C 
BRANCH  21  24
ATOM     22  ND1 HIS A   1     -35.213  26.903   4.215  0.00  0.00    -0.246 NA
ATOM     23  NE2 HIS A   1     -33.170  26.491   5.153  0.00  0.00    -0.225 NA
ATOM     24  CG  HIS A   1     -35.434  26.114   5.444  0.00  0.00    +0.148 C 
ATOM     25  CD2 HIS A   1     -34.031  25.932   5.924  0.00  0.00    +0.098 C 
ATOM     26  CE1 HIS A   1     -33.925  27.054   4.157  0.00  0.00    +0.194 C 
ENDBRANCH  21  24
ENDBRANCH   1  21
TORSDOF 9
ENDMDL
MODEL 2
REMARK VINA RESULT:      -5.3      2.703      5.141
REMARK  Name = 193379
REMARK  9 active torsions:
REMARK  status: ('A' for Active; 'I' for Inactive)
REMARK    1  A    between atoms: CA_1  and  C_4
REMARK    2  A    between atoms: CA_1  and  N_12
REMARK    3  A    between atoms: CA_1  and  CB_21
REMARK    4  A    between atoms: N_3  and  CA_6
REMARK    5  A    between atoms: CA_6  and  C_8
REMARK    6  A    between atoms: C_8  and  O_9
REMARK    7  A    between atoms: C_13  and  C_15
REMARK    8  A    between atoms: C_15  and  N_17
REMARK    9  A    between atoms: CB_21  and  CG_24
REMARK                            x       y       z     vdW  Elec       q    Type
REMARK                         _______ _______ _______ _____ _____    ______ ____
ROOT
ATOM      1  CA  HIS A   1     -38.094  23.065   2.100  0.00  0.00    +0.151 C 
ENDROOT
BRANCH   1   4
ATOM      2  O   HIS A   1     -37.680  24.370   4.100  0.00  0.00    -0.273 OA
ATOM      3  N   GLY A   2     -36.149  22.734   3.497  0.00  0.00    -0.294 N 
ATOM      4  C   HIS A   1     -37.301  23.489   3.331  0.00  0.00    +0.241 C 
ATOM      5  H   GLY A   2     -35.932  22.050   2.823  0.00  0.00    +0.150 HD
BRANCH   3   6
ATOM      6  CA  GLY A   2     -35.254  22.909   4.618  0.00  0.00    +0.200 C 
BRANCH   6   8
ATOM      7  OXT GLY A   2     -35.972  22.175   6.795  0.00  0.00    -0.248 OA
ATOM      8  C   GLY A   2     -35.478  21.894   5.711  0.00  0.00    +0.334 C 
BRANCH   8   9
ATOM      9  O   GLY A   2     -35.080  20.645   5.379  0.00  0.00    -0.479 OA
ATOM     10  H   GLY A   2     -34.945  20.003   6.048  0.00  0.00    +0.295 HD
ENDBRANCH   8   9
ENDBRANCH   6   8
ENDBRANCH   3   6
ENDBRANCH   1   4
BRANCH   1  12
ATOM     11  O   UNK A   0     -37.439  21.938  -0.488  0.00  0.00    -0.273 OA
ATOM     12  N   HIS A   1     -37.741  21.700   1.805  0.00  0.00    -0.297 N 
ATOM     13  C   UNK A   0     -37.440  21.245   0.527  0.00  0.00    +0.243 C 
ATOM     14  H   HIS A   1     -37.712  21.055   2.549  0.00  0.00    +0.150 HD
BRANCH  13  15
ATOM     15  C   UNK A   0     -37.053  19.782   0.531  0.00  0.00    +0.176 C 
BRANCH  15  17
ATOM     16  O   UNK A   0     -35.030  20.053   2.595  0.00  0.00    -0.275 OA
ATOM     17  N   UNK A   0     -35.634  19.659   0.379  0.00  0.00    -0.297 N 
ATOM     18  C   UNK A   0     -34.732  19.805   1.429  0.00  0.00    +0.223 C 
ATOM     19  C   UNK A   0     -33.305  19.601   1.001  0.00  0.00    +0.095 C 
ATOM     20  H   UNK A   0     -35.276  19.460  -0.516  0.00  0.00    +0.150 HD
ENDBRANCH  15  17
ENDBRANCH  13  15
ENDBRANCH   1  12
BRANCH   1  21
ATOM     21  CB  HIS A   1     -39.595  23.229   2.346  0.00  0.00    +0.059 C 
BRANCH  21  24
ATOM     22  ND1 HIS A   1     -39.150  25.056   0.755  0.00  0.00    -0.246 NA
ATOM     23  NE2 HIS A   1     -39.945  26.596   2.245  0.00  0.00    -0.225 NA
ATOM     24  CG  HIS A   1     -40.191  24.397   1.570  0.00  0.00    +0.148 C 
ATOM     25  CD2 HIS A   1     -40.597  25.513   2.474  0.00  0.00    +0.098 C 
ATOM     26  CE1 HIS A   1     -39.101  26.269   1.216  0.00  0.00    +0.194 C 
ENDBRANCH  21  24
ENDBRANCH   1  21
TORSDOF 9
ENDMDL
MODEL 3
REMARK VINA RESULT:      -5.3      1.981      2.824
REMARK  Name = 193379
REMARK  9 active torsions:
REMARK  status: ('A' for Active; 'I' for Inactive)
REMARK    1  A    between atoms: CA_1  and  C_4
REMARK    2  A    between atoms: CA_1  and  N_12
REMARK    3  A    between atoms: CA_1  and  CB_21
REMARK    4  A    between atoms: N_3  and  CA_6
REMARK    5  A    between atoms: CA_6  and  C_8
REMARK    6  A    between atoms: C_8  and  O_9
REMARK    7  A    between atoms: C_13  and  C_15
REMARK    8  A    between atoms: C_15  and  N_17
REMARK    9  A    between atoms: CB_21  and  CG_24
REMARK                            x       y       z     vdW  Elec       q    Type
REMARK                         _______ _______ _______ _____ _____    ______ ____
ROOT
ATOM      1  CA  HIS A   1     -36.996  25.004   3.692  0.00  0.00    +0.151 C 
ENDROOT
BRANCH   1   4
ATOM      2  O   HIS A   1     -35.815  23.971   1.844  0.00  0.00    -0.273 OA
ATOM      3  N   GLY A   2     -37.181  22.650   3.176  0.00  0.00    -0.294 N 
ATOM      4  C   HIS A   1     -36.598  23.846   2.784  0.00  0.00    +0.241 C 
ATOM      5  H   GLY A   2     -37.797  22.656   3.944  0.00  0.00    +0.150 HD
BRANCH   3   6
ATOM      6  CA  GLY A   2     -36.921  21.397   2.506  0.00  0.00    +0.200 C 
BRANCH   6   8
ATOM      7  OXT GLY A   2     -34.836  20.245   2.159  0.00  0.00    -0.248 OA
ATOM      8  C   GLY A   2     -35.628  20.756   2.942  0.00  0.00    +0.334 C 
BRANCH   8   9
ATOM      9  O   GLY A   2     -35.426  20.799   4.279  0.00  0.00    -0.479 OA
ATOM     10  H   GLY A   2     -36.118  20.562   4.864  0.00  0.00    +0.295 HD
ENDBRANCH   8   9
ENDBRANCH   6   8
ENDBRANCH   3   6
ENDBRANCH   1   4
BRANCH   1  12
ATOM     11  O   UNK A   0     -38.888  26.591   2.177  0.00  0.00    -0.273 OA
ATOM     12  N   HIS A   1     -38.431  24.995   3.805  0.00  0.00    -0.297 N 
ATOM     13  C   UNK A   0     -39.266  25.794   3.033  0.00  0.00    +0.243 C 
ATOM     14  H   HIS A   1     -38.843  24.390   4.465  0.00  0.00    +0.150 HD
BRANCH  13  15
ATOM     15  C   UNK A   0     -40.726  25.530   3.331  0.00  0.00    +0.176 C 
BRANCH  15  17
ATOM     16  O   UNK A   0     -42.805  27.302   2.347  0.00  0.00    -0.275 OA
ATOM     17  N   UNK A   0     -41.292  26.662   4.001  0.00  0.00    -0.297 N 
ATOM     18  C   UNK A   0     -42.291  27.461   3.453  0.00  0.00    +0.223 C 
ATOM     19  C   UNK A   0     -42.723  28.566   4.377  0.00  0.00    +0.095 C 
ATOM     20  H   UNK A   0     -40.958  26.888   4.899  0.00  0.00    +0.150 HD
ENDBRANCH  15  17
ENDBRANCH  13  15
ENDBRANCH   1  12
BRANCH   1  21
ATOM     21  CB  HIS A   1     -36.312  24.876   5.055  0.00  0.00    +0.059 C 
BRANCH  21  24
ATOM     22  ND1 HIS A   1     -35.230  26.926   4.223  0.00  0.00    -0.246 NA
ATOM     23  NE2 HIS A   1     -33.223  26.263   5.093  0.00  0.00    -0.225 NA
ATOM     24  CG  HIS A   1     -35.508  26.115   5.426  0.00  0.00    +0.148 C 
ATOM     25  CD2 HIS A   1     -34.123  25.767   5.863  0.00  0.00    +0.098 C 
ATOM     26  CE1 HIS A   1     -33.935  26.941   4.138  0.00  0.00    +0.194 C 
ENDBRANCH  21  24
ENDBRANCH   1  21
TORSDOF 9
ENDMDL
MODEL 4
REMARK VINA RESULT:      -5.2      1.640      2.302
REMARK  Name = 193379
REMARK  9 active torsions:
REMARK  status: ('A' for Active; 'I' for Inactive)
REMARK    1  A    between atoms: CA_1  and  C_4
REMARK    2  A    between atoms: CA_1  and  N_12
REMARK    3  A    between atoms: CA_1  and  CB_21
REMARK    4  A    between atoms: N_3  and  CA_6
REMARK    5  A    between atoms: CA_6  and  C_8
REMARK    6  A    between atoms: C_8  and  O_9
REMARK    7  A    between atoms: C_13  and  C_15
REMARK    8  A    between atoms: C_15  and  N_17
REMARK    9  A    between atoms: CB_21  and  CG_24
REMARK                            x       y       z     vdW  Elec       q    Type
REMARK                         _______ _______ _______ _____ _____    ______ ____
ROOT
ATOM      1  CA  HIS A   1     -36.162  24.176   4.064  0.00  0.00    +0.151 C 
ENDROOT
BRANCH   1   4
ATOM      2  O   HIS A   1     -35.437  21.897   4.461  0.00  0.00    -0.273 OA
ATOM      3  N   GLY A   2     -35.746  22.607   2.273  0.00  0.00    -0.294 N 
ATOM      4  C   HIS A   1     -35.726  22.775   3.650  0.00  0.00    +0.241 C 
ATOM      5  H   GLY A   2     -35.990  23.374   1.708  0.00  0.00    +0.150 HD
BRANCH   3   6
ATOM      6  CA  GLY A   2     -35.423  21.352   1.634  0.00  0.00    +0.200 C 
BRANCH   6   8
ATOM      7  OXT GLY A   2     -37.299  20.314   0.541  0.00  0.00    -0.248 OA
ATOM      8  C   GLY A   2     -36.603  20.419   1.543  0.00  0.00    +0.334 C 
BRANCH   8   9
ATOM      9  O   GLY A   2     -36.821  19.709   2.674  0.00  0.00    -0.479 OA
ATOM     10  H   GLY A   2     -37.003  18.791   2.623  0.00  0.00    +0.295 HD
ENDBRANCH   8   9
ENDBRANCH   6   8
ENDBRANCH   3   6
ENDBRANCH   1   4
BRANCH   1  12
ATOM     11  O   UNK A   0     -37.867  25.740   2.321  0.00  0.00    -0.273 OA
ATOM     12  N   HIS A   1     -37.601  24.205   4.047  0.00  0.00    -0.297 N 
ATOM     13  C   UNK A   0     -38.342  24.990   3.171  0.00  0.00    +0.243 C 
ATOM     14  H   HIS A   1     -38.087  23.640   4.691  0.00  0.00    +0.150 HD
BRANCH  13  15
ATOM     15  C   UNK A   0     -39.829  24.774   3.346  0.00  0.00    +0.176 C 
BRANCH  15  17
ATOM     16  O   UNK A   0     -41.405  27.186   3.705  0.00  0.00    -0.275 OA
ATOM     17  N   UNK A   0     -40.543  25.504   2.341  0.00  0.00    -0.297 N 
ATOM     18  C   UNK A   0     -41.276  26.657   2.603  0.00  0.00    +0.223 C 
ATOM     19  C   UNK A   0     -41.905  27.239   1.365  0.00  0.00    +0.095 C 
ATOM     20  H   UNK A   0     -40.512  25.173   1.415  0.00  0.00    +0.150 HD
ENDBRANCH  15  17
ENDBRANCH  13  15
ENDBRANCH   1  12
BRANCH   1  21
ATOM     21  CB  HIS A   1     -35.597  24.528   5.442  0.00  0.00    +0.059 C 
BRANCH  21  24
ATOM     22  ND1 HIS A   1     -35.174  26.635   4.240  0.00  0.00    -0.246 NA
ATOM     23  NE2 HIS A   1     -33.118  26.824   5.220  0.00  0.00    -0.225 NA
ATOM     24  CG  HIS A   1     -35.253  26.006   5.574  0.00  0.00    +0.148 C 
ATOM     25  CD2 HIS A   1     -33.859  26.208   6.069  0.00  0.00    +0.098 C 
ATOM     26  CE1 HIS A   1     -33.948  27.054   4.154  0.00  0.00    +0.194 C 
ENDBRANCH  21  24
ENDBRANCH   1  21
TORSDOF 9
ENDMDL
MODEL 5
REMARK VINA RESULT:      -5.1      2.002      5.553
REMARK  Name = 193379
REMARK  9 active torsions:
REMARK  status: ('A' for Active; 'I' for Inactive)
REMARK    1  A    between atoms: CA_1  and  C_4
REMARK    2  A    between atoms: CA_1  and  N_12
REMARK    3  A    between atoms: CA_1  and  CB_21
REMARK    4  A    between atoms: N_3  and  CA_6
REMARK    5  A    between atoms: CA_6  and  C_8
REMARK    6  A    between atoms: C_8  and  O_9
REMARK    7  A    between atoms: C_13  and  C_15
REMARK    8  A    between atoms: C_15  and  N_17
REMARK    9  A    between atoms: CB_21  and  CG_24
REMARK                            x       y       z     vdW  Elec       q    Type
REMARK                         _______ _______ _______ _____ _____    ______ ____
ROOT
ATOM      1  CA  HIS A   1     -36.771  22.870   2.922  0.00  0.00    +0.151 C 
ENDROOT
BRANCH   1   4
ATOM      2  O   HIS A   1     -38.833  22.677   1.663  0.00  0.00    -0.273 OA
ATOM      3  N   GLY A   2     -38.714  24.231   3.382  0.00  0.00    -0.294 N 
ATOM      4  C   HIS A   1     -38.205  23.238   2.558  0.00  0.00    +0.241 C 
ATOM      5  H   GLY A   2     -38.128  24.619   4.072  0.00  0.00    +0.150 HD
BRANCH   3   6
ATOM      6  CA  GLY A   2     -40.070  24.719   3.272  0.00  0.00    +0.200 C 
BRANCH   6   8
ATOM      7  OXT GLY A   2     -39.586  26.671   1.948  0.00  0.00    -0.248 OA
ATOM      8  C   GLY A   2     -40.139  26.186   2.928  0.00  0.00    +0.334 C 
BRANCH   8   9
ATOM      9  O   GLY A   2     -40.868  26.914   3.804  0.00  0.00    -0.479 OA
ATOM     10  H   GLY A   2     -40.976  27.835   3.671  0.00  0.00    +0.295 HD
ENDBRANCH   8   9
ENDBRANCH   6   8
ENDBRANCH   3   6
ENDBRANCH   1   4
BRANCH   1  12
ATOM     11  O   UNK A   0     -35.229  20.498   3.549  0.00  0.00    -0.273 OA
ATOM     12  N   HIS A   1     -36.343  21.840   2.011  0.00  0.00    -0.297 N 
ATOM     13  C   UNK A   0     -35.603  20.730   2.401  0.00  0.00    +0.243 C 
ATOM     14  H   HIS A   1     -36.588  21.927   1.061  0.00  0.00    +0.150 HD
BRANCH  13  15
ATOM     15  C   UNK A   0     -35.346  19.792   1.242  0.00  0.00    +0.176 C 
BRANCH  15  17
ATOM     16  O   UNK A   0     -32.906  18.279   1.671  0.00  0.00    -0.275 OA
ATOM     17  N   UNK A   0     -34.051  20.055   0.688  0.00  0.00    -0.297 N 
ATOM     18  C   UNK A   0     -32.930  19.273   0.948  0.00  0.00    +0.223 C 
ATOM     19  C   UNK A   0     -31.705  19.755   0.220  0.00  0.00    +0.095 C 
ATOM     20  H   UNK A   0     -33.949  20.830   0.091  0.00  0.00    +0.150 HD
ENDBRANCH  15  17
ENDBRANCH  13  15
ENDBRANCH   1  12
BRANCH   1  21
ATOM     21  CB  HIS A   1     -35.868  24.103   2.859  0.00  0.00    +0.059 C 
BRANCH  21  24
ATOM     22  ND1 HIS A   1     -36.206  24.584   5.251  0.00  0.00    -0.246 NA
ATOM     23  NE2 HIS A   1     -35.045  26.543   5.058  0.00  0.00    -0.225 NA
ATOM     24  CG  HIS A   1     -35.193  24.403   4.191  0.00  0.00    +0.148 C 
ATOM     25  CD2 HIS A   1     -34.537  25.745   4.191  0.00  0.00    +0.098 C 
ATOM     26  CE1 HIS A   1     -36.030  25.803   5.660  0.00  0.00    +0.194 C 
ENDBRANCH  21  24
ENDBRANCH   1  21
TORSDOF 9
ENDMDL
MODEL 6
REMARK VINA RESULT:      -5.1      2.054      4.916
REMARK  Name = 193379
REMARK  9 active torsions:
REMARK  status: ('A' for Active; 'I' for Inactive)
REMARK    1  A    between atoms: CA_1  and  C_4
REMARK    2  A    between atoms: CA_1  and  N_12
REMARK    3  A    between atoms: CA_1  and  CB_21
REMARK    4  A    between atoms: N_3  and  CA_6
REMARK    5  A    between atoms: CA_6  and  C_8
REMARK    6  A    between atoms: C_8  and  O_9
REMARK    7  A    between atoms: C_13  and  C_15
REMARK    8  A    between atoms: C_15  and  N_17
REMARK    9  A    between atoms: CB_21  and  CG_24
REMARK                            x       y       z     vdW  Elec       q    Type
REMARK                         _______ _______ _______ _____ _____    ______ ____
ROOT
ATOM      1  CA  HIS A   1     -35.765  23.362   3.129  0.00  0.00    +0.151 C 
ENDROOT
BRANCH   1   4
ATOM      2  O   HIS A   1     -37.684  24.381   4.205  0.00  0.00    -0.273 OA
ATOM      3  N   GLY A   2     -38.014  23.142   2.271  0.00  0.00    -0.294 N 
ATOM      4  C   HIS A   1     -37.247  23.683   3.292  0.00  0.00    +0.241 C 
ATOM      5  H   GLY A   2     -37.567  22.595   1.584  0.00  0.00    +0.150 HD
BRANCH   3   6
ATOM      6  CA  GLY A   2     -39.440  23.347   2.171  0.00  0.00    +0.200 C 
BRANCH   6   8
ATOM      7  OXT GLY A   2     -40.769  22.292   0.465  0.00  0.00    -0.248 OA
ATOM      8  C   GLY A   2     -40.155  22.191   1.519  0.00  0.00    +0.334 C 
BRANCH   8   9
ATOM      9  O   GLY A   2     -40.055  21.033   2.211  0.00  0.00    -0.479 OA
ATOM     10  H   GLY A   2     -40.786  20.448   2.254  0.00  0.00    +0.295 HD
ENDBRANCH   8   9
ENDBRANCH   6   8
ENDBRANCH   3   6
ENDBRANCH   1   4
BRANCH   1  12
ATOM     11  O   UNK A   0     -35.246  20.566   3.680  0.00  0.00    -0.273 OA
ATOM     12  N   HIS A   1     -35.655  22.290   2.175  0.00  0.00    -0.297 N 
ATOM     13  C   UNK A   0     -35.403  20.970   2.530  0.00  0.00    +0.243 C 
ATOM     14  H   HIS A   1     -35.764  22.503   1.219  0.00  0.00    +0.150 HD
BRANCH  13  15
ATOM     15  C   UNK A   0     -35.397  20.057   1.324  0.00  0.00    +0.176 C 
BRANCH  15  17
ATOM     16  O   UNK A   0     -32.628  20.311   0.491  0.00  0.00    -0.275 OA
ATOM     17  N   UNK A   0     -34.355  19.084   1.462  0.00  0.00    -0.297 N 
ATOM     18  C   UNK A   0     -33.047  19.290   1.033  0.00  0.00    +0.223 C 
ATOM     19  C   UNK A   0     -32.150  18.119   1.323  0.00  0.00    +0.095 C 
ATOM     20  H   UNK A   0     -34.574  18.223   1.885  0.00  0.00    +0.150 HD
ENDBRANCH  15  17
ENDBRANCH  13  15
ENDBRANCH   1  12
BRANCH   1  21
ATOM     21  CB  HIS A   1     -34.993  24.607   2.686  0.00  0.00    +0.059 C 
BRANCH  21  24
ATOM     22  ND1 HIS A   1     -34.350  24.648   5.063  0.00  0.00    -0.246 NA
ATOM     23  NE2 HIS A   1     -34.158  26.925   5.008  0.00  0.00    -0.225 NA
ATOM     24  CG  HIS A   1     -33.936  25.031   3.698  0.00  0.00    +0.148 C 
ATOM     25  CD2 HIS A   1     -33.860  26.517   3.828  0.00  0.00    +0.098 C 
ATOM     26  CE1 HIS A   1     -34.439  25.776   5.700  0.00  0.00    +0.194 C 
ENDBRANCH  21  24
ENDBRANCH   1  21
TORSDOF 9
ENDMDL
MODEL 7
REMARK VINA RESULT:      -5.1      4.279      7.131
REMARK  Name = 193379
REMARK  9 active torsions:
REMARK  status: ('A' for Active; 'I' for Inactive)
REMARK    1  A    between atoms: CA_1  and  C_4
REMARK    2  A    between atoms: CA_1  and  N_12
REMARK    3  A    between atoms: CA_1  and  CB_21
REMARK    4  A    between atoms: N_3  and  CA_6
REMARK    5  A    between atoms: CA_6  and  C_8
REMARK    6  A    between atoms: C_8  and  O_9
REMARK    7  A    between atoms: C_13  and  C_15
REMARK    8  A    between atoms: C_15  and  N_17
REMARK    9  A    between atoms: CB_21  and  CG_24
REMARK                            x       y       z     vdW  Elec       q    Type
REMARK                         _______ _______ _______ _____ _____    ______ ____
ROOT
ATOM      1  CA  HIS A   1     -32.448  27.822   4.524  0.00  0.00    +0.151 C 
ENDROOT
BRANCH   1   4
ATOM      2  O   HIS A   1     -32.241  28.722   6.765  0.00  0.00    -0.273 OA
ATOM      3  N   GLY A   2     -30.362  28.667   5.404  0.00  0.00    -0.294 N 
ATOM      4  C   HIS A   1     -31.704  28.464   5.689  0.00  0.00    +0.241 C 
ATOM      5  H   GLY A   2     -30.028  28.428   4.510  0.00  0.00    +0.150 HD
BRANCH   3   6
ATOM      6  CA  GLY A   2     -29.433  29.215   6.366  0.00  0.00    +0.200 C 
BRANCH   6   8
ATOM      7  OXT GLY A   2     -28.557  27.001   6.713  0.00  0.00    -0.248 OA
ATOM      8  C   GLY A   2     -28.664  28.154   7.111  0.00  0.00    +0.334 C 
BRANCH   8   9
ATOM      9  O   GLY A   2     -28.107  28.596   8.261  0.00  0.00    -0.479 OA
ATOM     10  H   GLY A   2     -27.447  28.085   8.688  0.00  0.00    +0.295 HD
ENDBRANCH   8   9
ENDBRANCH   6   8
ENDBRANCH   3   6
ENDBRANCH   1   4
BRANCH   1  12
ATOM     11  O   UNK A   0     -33.516  25.130   4.602  0.00  0.00    -0.273 OA
ATOM     12  N   HIS A   1     -33.739  27.408   5.008  0.00  0.00    -0.297 N 
ATOM     13  C   UNK A   0     -34.171  26.087   5.008  0.00  0.00    +0.243 C 
ATOM     14  H   HIS A   1     -34.349  28.098   5.357  0.00  0.00    +0.150 HD
BRANCH  13  15
ATOM     15  C   UNK A   0     -35.545  25.947   5.626  0.00  0.00    +0.176 C 
BRANCH  15  17
ATOM     16  O   UNK A   0     -37.123  23.967   4.205  0.00  0.00    -0.275 OA
ATOM     17  N   UNK A   0     -36.547  26.185   4.629  0.00  0.00    -0.297 N 
ATOM     18  C   UNK A   0     -37.259  25.170   3.996  0.00  0.00    +0.223 C 
ATOM     19  C   UNK A   0     -38.267  25.696   3.012  0.00  0.00    +0.095 C 
ATOM     20  H   UNK A   0     -36.743  27.116   4.379  0.00  0.00    +0.150 HD
ENDBRANCH  15  17
ENDBRANCH  13  15
ENDBRANCH   1  12
BRANCH   1  21
ATOM     21  CB  HIS A   1     -32.560  28.803   3.355  0.00  0.00    +0.059 C 
BRANCH  21  24
ATOM     22  ND1 HIS A   1     -34.702  30.001   3.557  0.00  0.00    -0.246 NA
ATOM     23  NE2 HIS A   1     -33.942  31.666   2.188  0.00  0.00    -0.225 NA
ATOM     24  CG  HIS A   1     -33.242  30.107   3.748  0.00  0.00    +0.148 C 
ATOM     25  CD2 HIS A   1     -32.908  31.214   2.802  0.00  0.00    +0.098 C 
ATOM     26  CE1 HIS A   1     -34.978  30.912   2.674  0.00  0.00    +0.194 C 
ENDBRANCH  21  24
ENDBRANCH   1  21
TORSDOF 9
ENDMDL
MODEL 8
REMARK VINA RESULT:      -5.0      2.151      4.870
REMARK  Name = 193379
REMARK  9 active torsions:
REMARK  status: ('A' for Active; 'I' for Inactive)
REMARK    1  A    between atoms: CA_1  and  C_4
REMARK    2  A    between atoms: CA_1  and  N_12
REMARK    3  A    between atoms: CA_1  and  CB_21
REMARK    4  A    between atoms: N_3  and  CA_6
REMARK    5  A    between atoms: CA_6  and  C_8
REMARK    6  A    between atoms: C_8  and  O_9
REMARK    7  A    between atoms: C_13  and  C_15
REMARK    8  A    between atoms: C_15  and  N_17
REMARK    9  A    between atoms: CB_21  and  CG_24
REMARK                            x       y       z     vdW  Elec       q    Type
REMARK                         _______ _______ _______ _____ _____    ______ ____
ROOT
ATOM      1  CA  HIS A   1     -37.039  24.710   4.573  0.00  0.00    +0.151 C 
ENDROOT
BRANCH   1   4
ATOM      2  O   HIS A   1     -37.583  25.516   2.353  0.00  0.00    -0.273 OA
ATOM      3  N   GLY A   2     -39.312  24.893   3.771  0.00  0.00    -0.294 N 
ATOM      4  C   HIS A   1     -37.981  25.104   3.441  0.00  0.00    +0.241 C 
ATOM      5  H   GLY A   2     -39.527  24.560   4.672  0.00  0.00    +0.150 HD
BRANCH   3   6
ATOM      6  CA  GLY A   2     -40.395  25.141   2.848  0.00  0.00    +0.200 C 
BRANCH   6   8
ATOM      7  OXT GLY A   2     -41.102  27.231   1.885  0.00  0.00    -0.248 OA
ATOM      8  C   GLY A   2     -40.887  26.566   2.891  0.00  0.00    +0.334 C 
BRANCH   8   9
ATOM      9  O   GLY A   2     -41.069  27.038   4.145  0.00  0.00    -0.479 OA
ATOM     10  H   GLY A   2     -40.331  27.170   4.707  0.00  0.00    +0.295 HD
ENDBRANCH   8   9
ENDBRANCH   6   8
ENDBRANCH   3   6
ENDBRANCH   1   4
BRANCH   1  12
ATOM     11  O   UNK A   0     -36.010  22.541   6.194  0.00  0.00    -0.273 OA
ATOM     12  N   HIS A   1     -36.276  23.573   4.128  0.00  0.00    -0.297 N 
ATOM     13  C   UNK A   0     -35.821  22.574   4.980  0.00  0.00    +0.243 C 
ATOM     14  H   HIS A   1     -36.066  23.499   3.169  0.00  0.00    +0.150 HD
BRANCH  13  15
ATOM     15  C   UNK A   0     -35.098  21.480   4.225  0.00  0.00    +0.176 C 
BRANCH  15  17
ATOM     16  O   UNK A   0     -34.295  19.787   2.007  0.00  0.00    -0.275 OA
ATOM     17  N   UNK A   0     -35.913  21.027   3.138  0.00  0.00    -0.297 N 
ATOM     18  C   UNK A   0     -35.444  20.213   2.111  0.00  0.00    +0.223 C 
ATOM     19  C   UNK A   0     -36.513  19.864   1.112  0.00  0.00    +0.095 C 
ATOM     20  H   UNK A   0     -36.856  21.306   3.115  0.00  0.00    +0.150 HD
ENDBRANCH  15  17
ENDBRANCH  13  15
ENDBRANCH   1  12
BRANCH   1  21
ATOM     21  CB  HIS A   1     -36.141  25.888   4.958  0.00  0.00    +0.059 C 
BRANCH  21  24
ATOM     22  ND1 HIS A   1     -33.679  25.908   4.900  0.00  0.00    -0.246 NA
ATOM     23  NE2 HIS A   1     -33.683  27.948   3.869  0.00  0.00    -0.225 NA
ATOM     24  CG  HIS A   1     -34.903  25.992   4.077  0.00  0.00    +0.148 C 
ATOM     25  CD2 HIS A   1     -34.756  27.356   3.486  0.00  0.00    +0.098 C 
ATOM     26  CE1 HIS A   1     -33.082  27.044   4.706  0.00  0.00    +0.194 C 
ENDBRANCH  21  24
ENDBRANCH   1  21
TORSDOF 9
ENDMDL
MODEL 9
REMARK VINA RESULT:      -4.9      2.263      6.218
REMARK  Name = 193379
REMARK  9 active torsions:
REMARK  status: ('A' for Active; 'I' for Inactive)
REMARK    1  A    between atoms: CA_1  and  C_4
REMARK    2  A    between atoms: CA_1  and  N_12
REMARK    3  A    between atoms: CA_1  and  CB_21
REMARK    4  A    between atoms: N_3  and  CA_6
REMARK    5  A    between atoms: CA_6  and  C_8
REMARK    6  A    between atoms: C_8  and  O_9
REMARK    7  A    between atoms: C_13  and  C_15
REMARK    8  A    between atoms: C_15  and  N_17
REMARK    9  A    between atoms: CB_21  and  CG_24
REMARK                            x       y       z     vdW  Elec       q    Type
REMARK                         _______ _______ _______ _____ _____    ______ ____
ROOT
ATOM      1  CA  HIS A   1     -36.421  24.944   4.068  0.00  0.00    +0.151 C 
ENDROOT
BRANCH   1   4
ATOM      2  O   HIS A   1     -36.023  23.209   5.714  0.00  0.00    -0.273 OA
ATOM      3  N   GLY A   2     -35.728  22.707   3.467  0.00  0.00    -0.294 N 
ATOM      4  C   HIS A   1     -36.027  23.546   4.531  0.00  0.00    +0.241 C 
ATOM      5  H   GLY A   2     -35.759  23.074   2.554  0.00  0.00    +0.150 HD
BRANCH   3   6
ATOM      6  CA  GLY A   2     -35.376  21.317   3.642  0.00  0.00    +0.200 C 
BRANCH   6   8
ATOM      7  OXT GLY A   2     -34.953  20.446   1.439  0.00  0.00    -0.248 OA
ATOM      8  C   GLY A   2     -35.676  20.478   2.426  0.00  0.00    +0.334 C 
BRANCH   8   9
ATOM      9  O   GLY A   2     -36.821  19.765   2.530  0.00  0.00    -0.479 OA
ATOM     10  H   GLY A   2     -37.053  19.368   3.347  0.00  0.00    +0.295 HD
ENDBRANCH   8   9
ENDBRANCH   6   8
ENDBRANCH   3   6
ENDBRANCH   1   4
BRANCH   1  12
ATOM     11  O   UNK A   0     -34.726  26.353   5.948  0.00  0.00    -0.273 OA
ATOM     12  N   HIS A   1     -35.208  25.664   3.781  0.00  0.00    -0.297 N 
ATOM     13  C   UNK A   0     -34.454  26.314   4.751  0.00  0.00    +0.243 C 
ATOM     14  H   HIS A   1     -34.895  25.697   2.847  0.00  0.00    +0.150 HD
BRANCH  13  15
ATOM     15  C   UNK A   0     -33.205  26.936   4.165  0.00  0.00    +0.176 C 
BRANCH  15  17
ATOM     16  O   UNK A   0     -31.051  27.657   5.974  0.00  0.00    -0.275 OA
ATOM     17  N   UNK A   0     -32.972  28.211   4.775  0.00  0.00    -0.297 N 
ATOM     18  C   UNK A   0     -31.908  28.471   5.634  0.00  0.00    +0.223 C 
ATOM     19  C   UNK A   0     -31.883  29.897   6.112  0.00  0.00    +0.095 C 
ATOM     20  H   UNK A   0     -33.597  28.945   4.576  0.00  0.00    +0.150 HD
ENDBRANCH  15  17
ENDBRANCH  13  15
ENDBRANCH   1  12
BRANCH   1  21
ATOM     21  CB  HIS A   1     -37.344  24.864   2.850  0.00  0.00    +0.059 C 
BRANCH  21  24
ATOM     22  ND1 HIS A   1     -39.420  23.583   2.517  0.00  0.00    -0.246 NA
ATOM     23  NE2 HIS A   1     -40.532  25.479   1.888  0.00  0.00    -0.225 NA
ATOM     24  CG  HIS A   1     -38.810  24.720   3.235  0.00  0.00    +0.148 C 
ATOM     25  CD2 HIS A   1     -39.632  25.857   2.722  0.00  0.00    +0.098 C 
ATOM     26  CE1 HIS A   1     -40.362  24.121   1.804  0.00  0.00    +0.194 C 
ENDBRANCH  21  24
ENDBRANCH   1  21
TORSDOF 9
ENDMDL
