MODEL 1
REMARK VINA RESULT:      -7.4      0.000      0.000
REMARK  Name = 189166
REMARK  4 active torsions:
REMARK  status: ('A' for Active; 'I' for Inactive)
REMARK    1  A    between atoms: N_3  and  C_17
REMARK    2  A    between atoms: C_5  and  C_23
REMARK    3  A    between atoms: C_23  and  C_25
REMARK    4  A    between atoms: C_25  and  O_26
REMARK                            x       y       z     vdW  Elec       q    Type
REMARK                         _______ _______ _______ _____ _____    ______ ____
ROOT
ATOM      1 CL   UNL     1     -35.406  20.825  -0.207  0.00  0.00    -0.082 Cl
ATOM      2  O   UNL     1     -35.987  22.294   6.302  0.00  0.00    -0.269 OA
ATOM      3  N   UNL     1     -36.015  25.221   4.308  0.00  0.00    -0.239 N 
ATOM      4  N   UNL     1     -36.175  24.414   5.431  0.00  0.00    -0.229 N 
ATOM      5  C   UNL     1     -36.635  24.708   3.082  0.00  0.00    +0.125 C 
ATOM      6  C   UNL     1     -36.139  23.300   2.856  0.00  0.00    +0.003 C 
ATOM      7  C   UNL     1     -35.819  22.494   3.961  0.00  0.00    +0.053 C 
ATOM      8  C   UNL     1     -35.988  23.045   5.331  0.00  0.00    +0.261 C 
ATOM      9  C   UNL     1     -36.012  22.774   1.566  0.00  0.00    +0.009 C 
ATOM     10  C   UNL     1     -35.379  21.181   3.779  0.00  0.00    +0.005 C 
ATOM     11  C   UNL     1     -35.565  21.465   1.383  0.00  0.00    +0.057 C 
ATOM     12  C   UNL     1     -35.250  20.671   2.487  0.00  0.00    +0.012 C 
ATOM     13  H   UNL     1     -36.420  24.815   6.296  0.00  0.00    +0.173 HD
ENDROOT
BRANCH   3  17
ATOM     14  S   UNL     1     -31.323  28.764   4.752  0.00  0.00    +0.023 S 
ATOM     15  N   UNL     1     -32.074  27.201   6.557  0.00  0.00    -0.155 NA
ATOM     16  N   UNL     1     -31.147  28.099   6.274  0.00  0.00    -0.079 NA
ATOM     17  C   UNL     1     -34.912  26.091   4.339  0.00  0.00    +0.049 C 
ATOM     18  C   UNL     1     -34.078  26.157   5.478  0.00  0.00    +0.091 C 
ATOM     19  C   UNL     1     -34.614  26.916   3.238  0.00  0.00    +0.013 C 
ATOM     20  C   UNL     1     -32.973  27.033   5.509  0.00  0.00    +0.092 C 
ATOM     21  C   UNL     1     -33.525  27.792   3.241  0.00  0.00    +0.010 C 
ATOM     22  C   UNL     1     -32.723  27.830   4.388  0.00  0.00    +0.062 C 
ENDBRANCH   3  17
BRANCH   5  23
ATOM     23  C   UNL     1     -38.162  24.745   3.209  0.00  0.00    +0.135 C 
BRANCH  23  25
ATOM     24  O   UNL     1     -38.301  26.854   2.003  0.00  0.00    -0.250 OA
ATOM     25  C   UNL     1     -38.761  26.066   2.817  0.00  0.00    +0.316 C 
BRANCH  25  26
ATOM     26  O   UNL     1     -39.912  26.275   3.505  0.00  0.00    -0.480 OA
ATOM     27  H   UNL     1     -39.921  26.856   4.239  0.00  0.00    +0.295 HD
ENDBRANCH  25  26
ENDBRANCH  23  25
ENDBRANCH   5  23
TORSDOF 4
ENDMDL
MODEL 2
REMARK VINA RESULT:      -7.1      1.092      1.597
REMARK  Name = 189166
REMARK  4 active torsions:
REMARK  status: ('A' for Active; 'I' for Inactive)
REMARK    1  A    between atoms: N_3  and  C_17
REMARK    2  A    between atoms: C_5  and  C_23
REMARK    3  A    between atoms: C_23  and  C_25
REMARK    4  A    between atoms: C_25  and  O_26
REMARK                            x       y       z     vdW  Elec       q    Type
REMARK                         _______ _______ _______ _____ _____    ______ ____
ROOT
ATOM      1 CL   UNL     1     -35.412  21.430  -0.468  0.00  0.00    -0.082 Cl
ATOM      2  O   UNL     1     -35.929  22.037   6.183  0.00  0.00    -0.269 OA
ATOM      3  N   UNL     1     -35.934  25.201   4.591  0.00  0.00    -0.239 N 
ATOM      4  N   UNL     1     -36.096  24.255   5.600  0.00  0.00    -0.229 N 
ATOM      5  C   UNL     1     -36.569  24.861   3.313  0.00  0.00    +0.125 C 
ATOM      6  C   UNL     1     -36.093  23.489   2.900  0.00  0.00    +0.003 C 
ATOM      7  C   UNL     1     -35.775  22.541   3.887  0.00  0.00    +0.053 C 
ATOM      8  C   UNL     1     -35.927  22.909   5.319  0.00  0.00    +0.261 C 
ATOM      9  C   UNL     1     -35.981  23.136   1.551  0.00  0.00    +0.009 C 
ATOM     10  C   UNL     1     -35.352  21.259   3.530  0.00  0.00    +0.005 C 
ATOM     11  C   UNL     1     -35.552  21.857   1.194  0.00  0.00    +0.057 C 
ATOM     12  C   UNL     1     -35.239  20.921   2.181  0.00  0.00    +0.012 C 
ATOM     13  H   UNL     1     -36.330  24.542   6.512  0.00  0.00    +0.173 HD
ENDROOT
BRANCH   3  17
ATOM     14  S   UNL     1     -31.304  28.844   4.835  0.00  0.00    +0.023 S 
ATOM     15  N   UNL     1     -32.733  28.527   2.804  0.00  0.00    -0.155 NA
ATOM     16  N   UNL     1     -31.681  29.194   3.246  0.00  0.00    -0.079 NA
ATOM     17  C   UNL     1     -34.820  26.047   4.726  0.00  0.00    +0.049 C 
ATOM     18  C   UNL     1     -34.387  26.845   3.643  0.00  0.00    +0.091 C 
ATOM     19  C   UNL     1     -34.113  26.117   5.940  0.00  0.00    +0.013 C 
ATOM     20  C   UNL     1     -33.268  27.692   3.780  0.00  0.00    +0.092 C 
ATOM     21  C   UNL     1     -33.001  26.948   6.104  0.00  0.00    +0.010 C 
ATOM     22  C   UNL     1     -32.601  27.723   5.008  0.00  0.00    +0.062 C 
ENDBRANCH   3  17
BRANCH   5  23
ATOM     23  C   UNL     1     -38.095  24.899   3.457  0.00  0.00    +0.135 C 
BRANCH  23  25
ATOM     24  O   UNL     1     -39.912  26.396   2.846  0.00  0.00    -0.250 OA
ATOM     25  C   UNL     1     -38.720  26.127   2.860  0.00  0.00    +0.316 C 
BRANCH  25  26
ATOM     26  O   UNL     1     -37.759  26.922   2.324  0.00  0.00    -0.480 OA
ATOM     27  H   UNL     1     -37.988  27.567   1.685  0.00  0.00    +0.295 HD
ENDBRANCH  25  26
ENDBRANCH  23  25
ENDBRANCH   5  23
TORSDOF 4
ENDMDL
MODEL 3
REMARK VINA RESULT:      -7.0      4.085      6.185
REMARK  Name = 189166
REMARK  4 active torsions:
REMARK  status: ('A' for Active; 'I' for Inactive)
REMARK    1  A    between atoms: N_3  and  C_17
REMARK    2  A    between atoms: C_5  and  C_23
REMARK    3  A    between atoms: C_23  and  C_25
REMARK    4  A    between atoms: C_25  and  O_26
REMARK                            x       y       z     vdW  Elec       q    Type
REMARK                         _______ _______ _______ _____ _____    ______ ____
ROOT
ATOM      1 CL   UNL     1     -32.118  26.521   1.422  0.00  0.00    -0.082 Cl
ATOM      2  O   UNL     1     -35.802  23.243   5.956  0.00  0.00    -0.269 OA
ATOM      3  N   UNL     1     -37.141  22.883   2.697  0.00  0.00    -0.239 N 
ATOM      4  N   UNL     1     -36.942  22.638   4.053  0.00  0.00    -0.229 N 
ATOM      5  C   UNL     1     -35.917  22.949   1.891  0.00  0.00    +0.125 C 
ATOM      6  C   UNL     1     -34.986  23.952   2.529  0.00  0.00    +0.003 C 
ATOM      7  C   UNL     1     -35.011  24.130   3.922  0.00  0.00    +0.053 C 
ATOM      8  C   UNL     1     -35.948  23.315   4.739  0.00  0.00    +0.261 C 
ATOM      9  C   UNL     1     -34.084  24.695   1.760  0.00  0.00    +0.009 C 
ATOM     10  C   UNL     1     -34.145  25.037   4.538  0.00  0.00    +0.005 C 
ATOM     11  C   UNL     1     -33.223  25.606   2.374  0.00  0.00    +0.057 C 
ATOM     12  C   UNL     1     -33.254  25.776   3.759  0.00  0.00    +0.012 C 
ATOM     13  H   UNL     1     -37.507  21.984   4.524  0.00  0.00    +0.173 HD
ENDROOT
BRANCH   3  17
ATOM     14  S   UNL     1     -42.113  25.831   1.532  0.00  0.00    +0.023 S 
ATOM     15  N   UNL     1     -40.350  26.628   3.121  0.00  0.00    -0.155 NA
ATOM     16  N   UNL     1     -41.525  26.960   2.614  0.00  0.00    -0.079 NA
ATOM     17  C   UNL     1     -38.346  23.526   2.368  0.00  0.00    +0.049 C 
ATOM     18  C   UNL     1     -38.683  24.768   2.954  0.00  0.00    +0.091 C 
ATOM     19  C   UNL     1     -39.244  22.950   1.450  0.00  0.00    +0.013 C 
ATOM     20  C   UNL     1     -39.893  25.412   2.624  0.00  0.00    +0.092 C 
ATOM     21  C   UNL     1     -40.450  23.566   1.105  0.00  0.00    +0.010 C 
ATOM     22  C   UNL     1     -40.749  24.794   1.707  0.00  0.00    +0.062 C 
ENDBRANCH   3  17
BRANCH   5  23
ATOM     23  C   UNL     1     -35.266  21.563   1.808  0.00  0.00    +0.135 C 
BRANCH  23  25
ATOM     24  O   UNL     1     -36.606  20.189   0.314  0.00  0.00    -0.250 OA
ATOM     25  C   UNL     1     -36.232  20.473   1.442  0.00  0.00    +0.316 C 
BRANCH  25  26
ATOM     26  O   UNL     1     -36.645  19.825   2.561  0.00  0.00    -0.480 OA
ATOM     27  H   UNL     1     -37.030  18.974   2.494  0.00  0.00    +0.295 HD
ENDBRANCH  25  26
ENDBRANCH  23  25
ENDBRANCH   5  23
TORSDOF 4
ENDMDL
MODEL 4
REMARK VINA RESULT:      -7.0      4.139      6.589
REMARK  Name = 189166
REMARK  4 active torsions:
REMARK  status: ('A' for Active; 'I' for Inactive)
REMARK    1  A    between atoms: N_3  and  C_17
REMARK    2  A    between atoms: C_5  and  C_23
REMARK    3  A    between atoms: C_23  and  C_25
REMARK    4  A    between atoms: C_25  and  O_26
REMARK                            x       y       z     vdW  Elec       q    Type
REMARK                         _______ _______ _______ _____ _____    ______ ____
ROOT
ATOM      1 CL   UNL     1     -32.125  26.490   1.461  0.00  0.00    -0.082 Cl
ATOM      2  O   UNL     1     -35.753  23.151   5.995  0.00  0.00    -0.269 OA
ATOM      3  N   UNL     1     -37.160  22.878   2.756  0.00  0.00    -0.239 N 
ATOM      4  N   UNL     1     -36.937  22.600   4.102  0.00  0.00    -0.229 N 
ATOM      5  C   UNL     1     -35.952  22.949   1.928  0.00  0.00    +0.125 C 
ATOM      6  C   UNL     1     -34.998  23.928   2.568  0.00  0.00    +0.003 C 
ATOM      7  C   UNL     1     -34.993  24.075   3.965  0.00  0.00    +0.053 C 
ATOM      8  C   UNL     1     -35.922  23.251   4.783  0.00  0.00    +0.261 C 
ATOM      9  C   UNL     1     -34.103  24.678   1.798  0.00  0.00    +0.009 C 
ATOM     10  C   UNL     1     -34.105  24.959   4.583  0.00  0.00    +0.005 C 
ATOM     11  C   UNL     1     -33.220  25.566   2.415  0.00  0.00    +0.057 C 
ATOM     12  C   UNL     1     -33.222  25.706   3.803  0.00  0.00    +0.012 C 
ATOM     13  H   UNL     1     -37.500  21.942   4.569  0.00  0.00    +0.173 HD
ENDROOT
BRANCH   3  17
ATOM     14  S   UNL     1     -42.292  25.404   1.326  0.00  0.00    +0.023 S 
ATOM     15  N   UNL     1     -41.510  23.208   0.416  0.00  0.00    -0.155 NA
ATOM     16  N   UNL     1     -42.517  24.062   0.358  0.00  0.00    -0.079 NA
ATOM     17  C   UNL     1     -38.364  23.540   2.465  0.00  0.00    +0.049 C 
ATOM     18  C   UNL     1     -39.299  22.976   1.567  0.00  0.00    +0.091 C 
ATOM     19  C   UNL     1     -38.667  24.779   3.060  0.00  0.00    +0.013 C 
ATOM     20  C   UNL     1     -40.506  23.643   1.275  0.00  0.00    +0.092 C 
ATOM     21  C   UNL     1     -39.856  25.462   2.789  0.00  0.00    +0.010 C 
ATOM     22  C   UNL     1     -40.756  24.872   1.893  0.00  0.00    +0.062 C 
ENDBRANCH   3  17
BRANCH   5  23
ATOM     23  C   UNL     1     -35.318  21.558   1.801  0.00  0.00    +0.135 C 
BRANCH  23  25
ATOM     24  O   UNL     1     -36.774  20.239   0.367  0.00  0.00    -0.250 OA
ATOM     25  C   UNL     1     -36.309  20.479   1.472  0.00  0.00    +0.316 C 
BRANCH  25  26
ATOM     26  O   UNL     1     -36.630  19.786   2.594  0.00  0.00    -0.480 OA
ATOM     27  H   UNL     1     -35.984  19.641   3.256  0.00  0.00    +0.295 HD
ENDBRANCH  25  26
ENDBRANCH  23  25
ENDBRANCH   5  23
TORSDOF 4
ENDMDL
MODEL 5
REMARK VINA RESULT:      -6.5      3.628      6.307
REMARK  Name = 189166
REMARK  4 active torsions:
REMARK  status: ('A' for Active; 'I' for Inactive)
REMARK    1  A    between atoms: N_3  and  C_17
REMARK    2  A    between atoms: C_5  and  C_23
REMARK    3  A    between atoms: C_23  and  C_25
REMARK    4  A    between atoms: C_25  and  O_26
REMARK                            x       y       z     vdW  Elec       q    Type
REMARK                         _______ _______ _______ _____ _____    ______ ____
ROOT
ATOM      1 CL   UNL     1     -32.527  23.453  -0.387  0.00  0.00    -0.082 Cl
ATOM      2  O   UNL     1     -35.236  27.296   4.384  0.00  0.00    -0.269 OA
ATOM      3  N   UNL     1     -37.229  24.441   3.736  0.00  0.00    -0.239 N 
ATOM      4  N   UNL     1     -36.756  25.571   4.398  0.00  0.00    -0.229 N 
ATOM      5  C   UNL     1     -36.198  23.474   3.345  0.00  0.00    +0.125 C 
ATOM      6  C   UNL     1     -35.140  24.205   2.554  0.00  0.00    +0.003 C 
ATOM      7  C   UNL     1     -34.872  25.554   2.841  0.00  0.00    +0.053 C 
ATOM      8  C   UNL     1     -35.631  26.227   3.928  0.00  0.00    +0.261 C 
ATOM      9  C   UNL     1     -34.406  23.559   1.554  0.00  0.00    +0.009 C 
ATOM     10  C   UNL     1     -33.884  26.246   2.138  0.00  0.00    +0.005 C 
ATOM     11  C   UNL     1     -33.423  24.253   0.846  0.00  0.00    +0.057 C 
ATOM     12  C   UNL     1     -33.163  25.592   1.138  0.00  0.00    +0.012 C 
ATOM     13  H   UNL     1     -37.220  25.903   5.200  0.00  0.00    +0.173 HD
ENDROOT
BRANCH   3  17
ATOM     14  S   UNL     1     -42.430  25.395   1.128  0.00  0.00    +0.023 S 
ATOM     15  N   UNL     1     -41.183  27.123   2.441  0.00  0.00    -0.155 NA
ATOM     16  N   UNL     1     -42.294  26.939   1.749  0.00  0.00    -0.079 NA
ATOM     17  C   UNL     1     -38.466  24.592   3.088  0.00  0.00    +0.049 C 
ATOM     18  C   UNL     1     -39.156  25.825   3.130  0.00  0.00    +0.091 C 
ATOM     19  C   UNL     1     -39.046  23.521   2.383  0.00  0.00    +0.013 C 
ATOM     20  C   UNL     1     -40.398  25.975   2.481  0.00  0.00    +0.092 C 
ATOM     21  C   UNL     1     -40.276  23.641   1.730  0.00  0.00    +0.010 C 
ATOM     22  C   UNL     1     -40.929  24.878   1.796  0.00  0.00    +0.062 C 
ENDBRANCH   3  17
BRANCH   5  23
ATOM     23  C   UNL     1     -35.600  22.809   4.590  0.00  0.00    +0.135 C 
BRANCH  23  25
ATOM     24  O   UNL     1     -35.392  20.704   3.389  0.00  0.00    -0.250 OA
ATOM     25  C   UNL     1     -35.407  21.327   4.441  0.00  0.00    +0.316 C 
BRANCH  25  26
ATOM     26  O   UNL     1     -35.247  20.755   5.661  0.00  0.00    -0.480 OA
ATOM     27  H   UNL     1     -35.228  21.288   6.430  0.00  0.00    +0.295 HD
ENDBRANCH  25  26
ENDBRANCH  23  25
ENDBRANCH   5  23
TORSDOF 4
ENDMDL
MODEL 6
REMARK VINA RESULT:      -6.3      4.196      6.613
REMARK  Name = 189166
REMARK  4 active torsions:
REMARK  status: ('A' for Active; 'I' for Inactive)
REMARK    1  A    between atoms: N_3  and  C_17
REMARK    2  A    between atoms: C_5  and  C_23
REMARK    3  A    between atoms: C_23  and  C_25
REMARK    4  A    between atoms: C_25  and  O_26
REMARK                            x       y       z     vdW  Elec       q    Type
REMARK                         _______ _______ _______ _____ _____    ______ ____
ROOT
ATOM      1 CL   UNL     1     -35.709  28.475   1.798  0.00  0.00    -0.082 Cl
ATOM      2  O   UNL     1     -39.650  23.106   2.511  0.00  0.00    -0.269 OA
ATOM      3  N   UNL     1     -36.237  22.276   2.968  0.00  0.00    -0.239 N 
ATOM      4  N   UNL     1     -37.622  22.139   3.002  0.00  0.00    -0.229 N 
ATOM      5  C   UNL     1     -35.724  23.532   3.522  0.00  0.00    +0.125 C 
ATOM      6  C   UNL     1     -36.433  24.675   2.838  0.00  0.00    +0.003 C 
ATOM      7  C   UNL     1     -37.757  24.502   2.397  0.00  0.00    +0.053 C 
ATOM      8  C   UNL     1     -38.431  23.198   2.627  0.00  0.00    +0.261 C 
ATOM      9  C   UNL     1     -35.806  25.912   2.651  0.00  0.00    +0.009 C 
ATOM     10  C   UNL     1     -38.442  25.552   1.780  0.00  0.00    +0.005 C 
ATOM     11  C   UNL     1     -36.489  26.958   2.028  0.00  0.00    +0.057 C 
ATOM     12  C   UNL     1     -37.803  26.778   1.594  0.00  0.00    +0.012 C 
ATOM     13  H   UNL     1     -38.027  21.289   3.292  0.00  0.00    +0.173 HD
ENDROOT
BRANCH   3  17
ATOM     14  S   UNL     1     -33.329  18.855  -0.854  0.00  0.00    +0.023 S 
ATOM     15  N   UNL     1     -33.263  18.551   1.630  0.00  0.00    -0.155 NA
ATOM     16  N   UNL     1     -32.793  18.043   0.504  0.00  0.00    -0.079 NA
ATOM     17  C   UNL     1     -35.576  21.505   1.997  0.00  0.00    +0.049 C 
ATOM     18  C   UNL     1     -34.759  20.415   2.377  0.00  0.00    +0.091 C 
ATOM     19  C   UNL     1     -35.710  21.800   0.628  0.00  0.00    +0.013 C 
ATOM     20  C   UNL     1     -34.094  19.644   1.401  0.00  0.00    +0.092 C 
ATOM     21  C   UNL     1     -35.063  21.052  -0.360  0.00  0.00    +0.010 C 
ATOM     22  C   UNL     1     -34.262  19.981   0.055  0.00  0.00    +0.062 C 
ENDBRANCH   3  17
BRANCH   5  23
ATOM     23  C   UNL     1     -35.947  23.569   5.039  0.00  0.00    +0.135 C 
BRANCH  23  25
ATOM     24  O   UNL     1     -34.222  21.982   5.686  0.00  0.00    -0.250 OA
ATOM     25  C   UNL     1     -35.376  22.378   5.754  0.00  0.00    +0.316 C 
BRANCH  25  26
ATOM     26  O   UNL     1     -36.336  21.785   6.508  0.00  0.00    -0.480 OA
ATOM     27  H   UNL     1     -36.143  20.998   6.977  0.00  0.00    +0.295 HD
ENDBRANCH  25  26
ENDBRANCH  23  25
ENDBRANCH   5  23
TORSDOF 4
ENDMDL
MODEL 7
REMARK VINA RESULT:      -6.1      3.040      4.136
REMARK  Name = 189166
REMARK  4 active torsions:
REMARK  status: ('A' for Active; 'I' for Inactive)
REMARK    1  A    between atoms: N_3  and  C_17
REMARK    2  A    between atoms: C_5  and  C_23
REMARK    3  A    between atoms: C_23  and  C_25
REMARK    4  A    between atoms: C_25  and  O_26
REMARK                            x       y       z     vdW  Elec       q    Type
REMARK                         _______ _______ _______ _____ _____    ______ ____
ROOT
ATOM      1 CL   UNL     1     -35.683  23.380  -3.372  0.00  0.00    -0.082 Cl
ATOM      2  O   UNL     1     -34.026  19.224   1.613  0.00  0.00    -0.269 OA
ATOM      3  N   UNL     1     -36.153  21.819   2.746  0.00  0.00    -0.239 N 
ATOM      4  N   UNL     1     -35.458  20.613   2.756  0.00  0.00    -0.229 N 
ATOM      5  C   UNL     1     -36.945  22.069   1.537  0.00  0.00    +0.125 C 
ATOM      6  C   UNL     1     -36.039  21.915   0.339  0.00  0.00    +0.003 C 
ATOM      7  C   UNL     1     -34.969  21.006   0.395  0.00  0.00    +0.053 C 
ATOM      8  C   UNL     1     -34.761  20.207   1.631  0.00  0.00    +0.261 C 
ATOM      9  C   UNL     1     -36.256  22.645  -0.834  0.00  0.00    +0.009 C 
ATOM     10  C   UNL     1     -34.129  20.830  -0.708  0.00  0.00    +0.005 C 
ATOM     11  C   UNL     1     -35.413  22.475  -1.933  0.00  0.00    +0.057 C 
ATOM     12  C   UNL     1     -34.353  21.570  -1.869  0.00  0.00    +0.012 C 
ATOM     13  H   UNL     1     -35.461  20.049   3.563  0.00  0.00    +0.173 HD
ENDROOT
BRANCH   3  17
ATOM     14  S   UNL     1     -33.965  26.240   5.976  0.00  0.00    +0.023 S 
ATOM     15  N   UNL     1     -34.410  26.388   3.517  0.00  0.00    -0.155 NA
ATOM     16  N   UNL     1     -33.958  27.093   4.539  0.00  0.00    -0.079 NA
ATOM     17  C   UNL     1     -35.637  22.825   3.580  0.00  0.00    +0.049 C 
ATOM     18  C   UNL     1     -35.302  24.094   3.056  0.00  0.00    +0.091 C 
ATOM     19  C   UNL     1     -35.440  22.591   4.954  0.00  0.00    +0.013 C 
ATOM     20  C   UNL     1     -34.781  25.102   3.894  0.00  0.00    +0.092 C 
ATOM     21  C   UNL     1     -34.927  23.571   5.808  0.00  0.00    +0.010 C 
ATOM     22  C   UNL     1     -34.606  24.815   5.252  0.00  0.00    +0.062 C 
ENDBRANCH   3  17
BRANCH   5  23
ATOM     23  C   UNL     1     -38.125  21.092   1.469  0.00  0.00    +0.135 C 
BRANCH  23  25
ATOM     24  O   UNL     1     -39.761  22.879   1.258  0.00  0.00    -0.250 OA
ATOM     25  C   UNL     1     -39.460  21.758   1.640  0.00  0.00    +0.316 C 
BRANCH  25  26
ATOM     26  O   UNL     1     -40.313  20.927   2.291  0.00  0.00    -0.480 OA
ATOM     27  H   UNL     1     -40.810  21.242   3.019  0.00  0.00    +0.295 HD
ENDBRANCH  25  26
ENDBRANCH  23  25
ENDBRANCH   5  23
TORSDOF 4
ENDMDL
MODEL 8
REMARK VINA RESULT:      -5.9      5.005      7.392
REMARK  Name = 189166
REMARK  4 active torsions:
REMARK  status: ('A' for Active; 'I' for Inactive)
REMARK    1  A    between atoms: N_3  and  C_17
REMARK    2  A    between atoms: C_5  and  C_23
REMARK    3  A    between atoms: C_23  and  C_25
REMARK    4  A    between atoms: C_25  and  O_26
REMARK                            x       y       z     vdW  Elec       q    Type
REMARK                         _______ _______ _______ _____ _____    ______ ____
ROOT
ATOM      1 CL   UNL     1     -37.828  26.325  -1.686  0.00  0.00    -0.082 Cl
ATOM      2  O   UNL     1     -40.450  21.083   1.556  0.00  0.00    -0.269 OA
ATOM      3  N   UNL     1     -36.963  21.342   2.122  0.00  0.00    -0.239 N 
ATOM      4  N   UNL     1     -38.279  20.922   2.297  0.00  0.00    -0.229 N 
ATOM      5  C   UNL     1     -36.781  22.794   2.034  0.00  0.00    +0.125 C 
ATOM      6  C   UNL     1     -37.702  23.322   0.961  0.00  0.00    +0.003 C 
ATOM      7  C   UNL     1     -38.927  22.676   0.723  0.00  0.00    +0.053 C 
ATOM      8  C   UNL     1     -39.293  21.492   1.544  0.00  0.00    +0.261 C 
ATOM      9  C   UNL     1     -37.370  24.456   0.212  0.00  0.00    +0.009 C 
ATOM     10  C   UNL     1     -39.806  23.157  -0.250  0.00  0.00    +0.005 C 
ATOM     11  C   UNL     1     -38.245  24.932  -0.764  0.00  0.00    +0.057 C 
ATOM     12  C   UNL     1     -39.460  24.285  -0.994  0.00  0.00    +0.012 C 
ATOM     13  H   UNL     1     -38.490  20.221   2.955  0.00  0.00    +0.173 HD
ENDROOT
BRANCH   3  17
ATOM     14  S   UNL     1     -33.577  17.278  -0.483  0.00  0.00    +0.023 S 
ATOM     15  N   UNL     1     -35.949  17.748  -1.128  0.00  0.00    -0.155 NA
ATOM     16  N   UNL     1     -34.918  16.979  -1.433  0.00  0.00    -0.079 NA
ATOM     17  C   UNL     1     -36.096  20.395   1.551  0.00  0.00    +0.049 C 
ATOM     18  C   UNL     1     -36.530  19.571   0.487  0.00  0.00    +0.091 C 
ATOM     19  C   UNL     1     -34.780  20.246   2.025  0.00  0.00    +0.013 C 
ATOM     20  C   UNL     1     -35.659  18.620  -0.084  0.00  0.00    +0.092 C 
ATOM     21  C   UNL     1     -33.896  19.312   1.477  0.00  0.00    +0.010 C 
ATOM     22  C   UNL     1     -34.361  18.513   0.426  0.00  0.00    +0.062 C 
ENDBRANCH   3  17
BRANCH   5  23
ATOM     23  C   UNL     1     -37.079  23.445   3.391  0.00  0.00    +0.135 C 
BRANCH  23  25
ATOM     24  O   UNL     1     -36.144  22.861   5.560  0.00  0.00    -0.250 OA
ATOM     25  C   UNL     1     -35.992  23.232   4.405  0.00  0.00    +0.316 C 
BRANCH  25  26
ATOM     26  O   UNL     1     -34.783  23.514   3.855  0.00  0.00    -0.480 OA
ATOM     27  H   UNL     1     -34.664  24.302   3.363  0.00  0.00    +0.295 HD
ENDBRANCH  25  26
ENDBRANCH  23  25
ENDBRANCH   5  23
TORSDOF 4
ENDMDL
MODEL 9
REMARK VINA RESULT:      -5.9      3.967      6.814
REMARK  Name = 189166
REMARK  4 active torsions:
REMARK  status: ('A' for Active; 'I' for Inactive)
REMARK    1  A    between atoms: N_3  and  C_17
REMARK    2  A    between atoms: C_5  and  C_23
REMARK    3  A    between atoms: C_23  and  C_25
REMARK    4  A    between atoms: C_25  and  O_26
REMARK                            x       y       z     vdW  Elec       q    Type
REMARK                         _______ _______ _______ _____ _____    ______ ____
ROOT
ATOM      1 CL   UNL     1     -34.045  28.772   0.138  0.00  0.00    -0.082 Cl
ATOM      2  O   UNL     1     -39.558  26.246   2.984  0.00  0.00    -0.269 OA
ATOM      3  N   UNL     1     -36.741  24.177   3.558  0.00  0.00    -0.239 N 
ATOM      4  N   UNL     1     -38.027  24.688   3.705  0.00  0.00    -0.229 N 
ATOM      5  C   UNL     1     -35.669  25.177   3.580  0.00  0.00    +0.125 C 
ATOM      6  C   UNL     1     -35.990  26.235   2.552  0.00  0.00    +0.003 C 
ATOM      7  C   UNL     1     -37.332  26.539   2.269  0.00  0.00    +0.053 C 
ATOM      8  C   UNL     1     -38.407  25.818   3.000  0.00  0.00    +0.261 C 
ATOM      9  C   UNL     1     -34.976  26.934   1.889  0.00  0.00    +0.009 C 
ATOM     10  C   UNL     1     -37.655  27.529   1.338  0.00  0.00    +0.005 C 
ATOM     11  C   UNL     1     -35.298  27.918   0.953  0.00  0.00    +0.057 C 
ATOM     12  C   UNL     1     -36.634  28.214   0.679  0.00  0.00    +0.012 C 
ATOM     13  H   UNL     1     -38.667  24.248   4.309  0.00  0.00    +0.173 HD
ENDROOT
BRANCH   3  17
ATOM     14  S   UNL     1     -36.650  19.032   0.680  0.00  0.00    +0.023 S 
ATOM     15  N   UNL     1     -38.333  20.838   0.268  0.00  0.00    -0.155 NA
ATOM     16  N   UNL     1     -37.985  19.626  -0.128  0.00  0.00    -0.079 NA
ATOM     17  C   UNL     1     -36.654  22.931   2.916  0.00  0.00    +0.049 C 
ATOM     18  C   UNL     1     -37.581  22.572   1.910  0.00  0.00    +0.091 C 
ATOM     19  C   UNL     1     -35.644  22.012   3.258  0.00  0.00    +0.013 C 
ATOM     20  C   UNL     1     -37.494  21.320   1.267  0.00  0.00    +0.092 C 
ATOM     21  C   UNL     1     -35.534  20.765   2.637  0.00  0.00    +0.010 C 
ATOM     22  C   UNL     1     -36.471  20.445   1.647  0.00  0.00    +0.062 C 
ENDBRANCH   3  17
BRANCH   5  23
ATOM     23  C   UNL     1     -35.544  25.786   4.982  0.00  0.00    +0.135 C 
BRANCH  23  25
ATOM     24  O   UNL     1     -33.728  26.625   6.366  0.00  0.00    -0.250 OA
ATOM     25  C   UNL     1     -34.123  25.918   5.450  0.00  0.00    +0.316 C 
BRANCH  25  26
ATOM     26  O   UNL     1     -33.313  25.128   4.701  0.00  0.00    -0.480 OA
ATOM     27  H   UNL     1     -33.496  24.214   4.617  0.00  0.00    +0.295 HD
ENDBRANCH  25  26
ENDBRANCH  23  25
ENDBRANCH   5  23
TORSDOF 4
ENDMDL
