MODEL 1
REMARK VINA RESULT:      -6.5      0.000      0.000
REMARK  Name = 51381221
REMARK  1 active torsions:
REMARK  status: ('A' for Active; 'I' for Inactive)
REMARK    1  A    between atoms: N_4  and  C_18
REMARK                            x       y       z     vdW  Elec       q    Type
REMARK                         _______ _______ _______ _____ _____    ______ ____
ROOT
ATOM      1  O   UNL     1     -37.342  24.000   3.569  0.00  0.00    -0.268 OA
ATOM      2  O   UNL     1     -36.233  19.833   1.677  0.00  0.00    -0.268 OA
ATOM      3  O   UNL     1     -40.473  21.613   1.131  0.00  0.00    -0.252 OA
ATOM      4  N   UNL     1     -35.515  22.008   3.130  0.00  0.00    -0.237 NA
ATOM      5  N   UNL     1     -38.370  20.718   1.396  0.00  0.00    -0.234 N 
ATOM      6  N   UNL     1     -38.928  22.810   2.345  0.00  0.00    -0.234 N 
ATOM      7  C   UNL     1     -36.713  21.923   2.653  0.00  0.00    +0.185 C 
ATOM      8  C   UNL     1     -37.067  20.707   1.858  0.00  0.00    +0.275 C 
ATOM      9  C   UNL     1     -37.686  23.031   2.912  0.00  0.00    +0.275 C 
ATOM     10  C   UNL     1     -39.334  21.707   1.592  0.00  0.00    +0.313 C 
ATOM     11  H   UNL     1     -38.650  19.936   0.866  0.00  0.00    +0.159 HD
ATOM     12  H   UNL     1     -39.603  23.512   2.488  0.00  0.00    +0.159 HD
ENDROOT
BRANCH   4  18
ATOM     13  O   UNL     1     -34.499  24.263   1.894  0.00  0.00    -0.271 OA
ATOM     14  O   UNL     1     -35.930  22.352   5.956  0.00  0.00    -0.211 OA
ATOM     15  O   UNL     1     -34.448  26.551   5.804  0.00  0.00    -0.192 OA
ATOM     16  N   UNL     1     -34.481  25.407   3.893  0.00  0.00    -0.198 N 
ATOM     17  N   UNL     1     -35.200  24.411   5.865  0.00  0.00    -0.247 NA
ATOM     18  C   UNL     1     -35.258  23.138   3.843  0.00  0.00    +0.298 C 
ATOM     19  C   UNL     1     -34.714  24.305   3.102  0.00  0.00    +0.276 C 
ATOM     20  C   UNL     1     -35.475  23.239   5.177  0.00  0.00    +0.223 C 
ATOM     21  C   UNL     1     -34.722  25.462   5.263  0.00  0.00    +0.281 C 
ATOM     22  H   UNL     1     -34.119  26.214   3.459  0.00  0.00    +0.169 HD
ENDBRANCH   4  18
TORSDOF 1
ENDMDL
MODEL 2
REMARK VINA RESULT:      -6.4      0.153      1.885
REMARK  Name = 51381221
REMARK  1 active torsions:
REMARK  status: ('A' for Active; 'I' for Inactive)
REMARK    1  A    between atoms: N_4  and  C_18
REMARK                            x       y       z     vdW  Elec       q    Type
REMARK                         _______ _______ _______ _____ _____    ______ ____
ROOT
ATOM      1  O   UNL     1     -37.266  24.122   3.591  0.00  0.00    -0.268 OA
ATOM      2  O   UNL     1     -36.306  19.895   1.751  0.00  0.00    -0.268 OA
ATOM      3  O   UNL     1     -40.527  21.750   1.313  0.00  0.00    -0.252 OA
ATOM      4  N   UNL     1     -35.495  22.084   3.132  0.00  0.00    -0.237 NA
ATOM      5  N   UNL     1     -38.433  20.818   1.524  0.00  0.00    -0.234 N 
ATOM      6  N   UNL     1     -38.917  22.939   2.446  0.00  0.00    -0.234 N 
ATOM      7  C   UNL     1     -36.710  22.014   2.698  0.00  0.00    +0.185 C 
ATOM      8  C   UNL     1     -37.115  20.789   1.942  0.00  0.00    +0.275 C 
ATOM      9  C   UNL     1     -37.652  23.147   2.966  0.00  0.00    +0.275 C 
ATOM     10  C   UNL     1     -39.370  21.830   1.732  0.00  0.00    +0.313 C 
ATOM     11  H   UNL     1     -38.747  20.031   1.021  0.00  0.00    +0.159 HD
ATOM     12  H   UNL     1     -39.572  23.658   2.598  0.00  0.00    +0.159 HD
ENDROOT
BRANCH   4  18
ATOM     13  O   UNL     1     -35.915  22.263   5.859  0.00  0.00    -0.271 OA
ATOM     14  O   UNL     1     -34.397  24.486   1.993  0.00  0.00    -0.211 OA
ATOM     15  O   UNL     1     -34.348  26.512   5.961  0.00  0.00    -0.192 OA
ATOM     16  N   UNL     1     -35.115  24.422   5.887  0.00  0.00    -0.198 N 
ATOM     17  N   UNL     1     -34.379  25.467   3.946  0.00  0.00    -0.247 NA
ATOM     18  C   UNL     1     -35.192  23.223   3.811  0.00  0.00    +0.298 C 
ATOM     19  C   UNL     1     -35.448  23.236   5.274  0.00  0.00    +0.276 C 
ATOM     20  C   UNL     1     -34.675  24.327   3.217  0.00  0.00    +0.223 C 
ATOM     21  C   UNL     1     -34.585  25.530   5.231  0.00  0.00    +0.281 C 
ATOM     22  H   UNL     1     -35.262  24.493   6.858  0.00  0.00    +0.169 HD
ENDBRANCH   4  18
TORSDOF 1
ENDMDL
MODEL 3
REMARK VINA RESULT:      -6.2      2.512      4.163
REMARK  Name = 51381221
REMARK  1 active torsions:
REMARK  status: ('A' for Active; 'I' for Inactive)
REMARK    1  A    between atoms: N_4  and  C_18
REMARK                            x       y       z     vdW  Elec       q    Type
REMARK                         _______ _______ _______ _____ _____    ______ ____
ROOT
ATOM      1  O   UNL     1     -36.793  23.996   1.809  0.00  0.00    -0.268 OA
ATOM      2  O   UNL     1     -35.856  22.630   6.216  0.00  0.00    -0.268 OA
ATOM      3  O   UNL     1     -34.821  19.887   2.631  0.00  0.00    -0.252 OA
ATOM      4  N   UNL     1     -36.839  24.488   4.502  0.00  0.00    -0.237 NA
ATOM      5  N   UNL     1     -35.331  21.241   4.421  0.00  0.00    -0.234 N 
ATOM      6  N   UNL     1     -35.800  21.926   2.208  0.00  0.00    -0.234 N 
ATOM      7  C   UNL     1     -36.355  23.383   4.040  0.00  0.00    +0.185 C 
ATOM      8  C   UNL     1     -35.824  22.386   5.020  0.00  0.00    +0.275 C 
ATOM      9  C   UNL     1     -36.345  23.147   2.562  0.00  0.00    +0.275 C 
ATOM     10  C   UNL     1     -35.285  20.947   3.058  0.00  0.00    +0.313 C 
ATOM     11  H   UNL     1     -34.970  20.554   5.027  0.00  0.00    +0.159 HD
ATOM     12  H   UNL     1     -35.772  21.725   1.244  0.00  0.00    +0.159 HD
ENDROOT
BRANCH   4  18
ATOM     13  O   UNL     1     -35.163  26.353   3.336  0.00  0.00    -0.271 OA
ATOM     14  O   UNL     1     -39.536  24.611   3.512  0.00  0.00    -0.211 OA
ATOM     15  O   UNL     1     -38.523  27.966   0.761  0.00  0.00    -0.192 OA
ATOM     16  N   UNL     1     -36.886  27.157   2.037  0.00  0.00    -0.198 N 
ATOM     17  N   UNL     1     -39.024  26.257   2.168  0.00  0.00    -0.247 NA
ATOM     18  C   UNL     1     -37.304  25.351   3.559  0.00  0.00    +0.298 C 
ATOM     19  C   UNL     1     -36.338  26.321   2.983  0.00  0.00    +0.276 C 
ATOM     20  C   UNL     1     -38.591  25.361   3.132  0.00  0.00    +0.223 C 
ATOM     21  C   UNL     1     -38.218  27.127   1.631  0.00  0.00    +0.281 C 
ATOM     22  H   UNL     1     -36.295  27.824   1.618  0.00  0.00    +0.169 HD
ENDBRANCH   4  18
TORSDOF 1
ENDMDL
MODEL 4
REMARK VINA RESULT:      -6.1      1.369      2.250
REMARK  Name = 51381221
REMARK  1 active torsions:
REMARK  status: ('A' for Active; 'I' for Inactive)
REMARK    1  A    between atoms: N_4  and  C_18
REMARK                            x       y       z     vdW  Elec       q    Type
REMARK                         _______ _______ _______ _____ _____    ______ ____
ROOT
ATOM      1  O   UNL     1     -35.186  22.647   2.646  0.00  0.00    -0.268 OA
ATOM      2  O   UNL     1     -39.858  22.133   2.362  0.00  0.00    -0.268 OA
ATOM      3  O   UNL     1     -37.033  19.296   0.036  0.00  0.00    -0.252 OA
ATOM      4  N   UNL     1     -37.706  23.453   3.353  0.00  0.00    -0.237 NA
ATOM      5  N   UNL     1     -38.447  20.700   1.187  0.00  0.00    -0.234 N 
ATOM      6  N   UNL     1     -36.102  20.956   1.329  0.00  0.00    -0.234 N 
ATOM      7  C   UNL     1     -37.531  22.452   2.555  0.00  0.00    +0.185 C 
ATOM      8  C   UNL     1     -38.746  21.754   2.031  0.00  0.00    +0.275 C 
ATOM      9  C   UNL     1     -36.140  22.038   2.189  0.00  0.00    +0.275 C 
ATOM     10  C   UNL     1     -37.184  20.252   0.799  0.00  0.00    +0.313 C 
ATOM     11  H   UNL     1     -39.215  20.208   0.816  0.00  0.00    +0.159 HD
ATOM     12  H   UNL     1     -35.207  20.647   1.059  0.00  0.00    +0.159 HD
ENDROOT
BRANCH   4  18
ATOM     13  O   UNL     1     -36.569  25.554   1.960  0.00  0.00    -0.271 OA
ATOM     14  O   UNL     1     -36.232  22.728   5.715  0.00  0.00    -0.211 OA
ATOM     15  O   UNL     1     -33.190  25.894   4.958  0.00  0.00    -0.192 OA
ATOM     16  N   UNL     1     -34.860  25.709   3.496  0.00  0.00    -0.198 N 
ATOM     17  N   UNL     1     -34.747  24.286   5.330  0.00  0.00    -0.247 NA
ATOM     18  C   UNL     1     -36.562  24.044   3.793  0.00  0.00    +0.298 C 
ATOM     19  C   UNL     1     -36.018  25.166   2.986  0.00  0.00    +0.276 C 
ATOM     20  C   UNL     1     -35.910  23.656   4.917  0.00  0.00    +0.223 C 
ATOM     21  C   UNL     1     -34.229  25.274   4.658  0.00  0.00    +0.281 C 
ATOM     22  H   UNL     1     -34.450  26.457   3.005  0.00  0.00    +0.169 HD
ENDBRANCH   4  18
TORSDOF 1
ENDMDL
MODEL 5
REMARK VINA RESULT:      -6.1      1.515      2.987
REMARK  Name = 51381221
REMARK  1 active torsions:
REMARK  status: ('A' for Active; 'I' for Inactive)
REMARK    1  A    between atoms: N_4  and  C_18
REMARK                            x       y       z     vdW  Elec       q    Type
REMARK                         _______ _______ _______ _____ _____    ______ ____
ROOT
ATOM      1  O   UNL     1     -34.796  23.667   3.025  0.00  0.00    -0.268 OA
ATOM      2  O   UNL     1     -39.168  22.040   2.388  0.00  0.00    -0.268 OA
ATOM      3  O   UNL     1     -35.635  20.318  -0.062  0.00  0.00    -0.252 OA
ATOM      4  N   UNL     1     -37.459  23.720   3.657  0.00  0.00    -0.237 NA
ATOM      5  N   UNL     1     -37.399  21.165   1.149  0.00  0.00    -0.234 N 
ATOM      6  N   UNL     1     -35.204  21.981   1.468  0.00  0.00    -0.234 N 
ATOM      7  C   UNL     1     -37.009  22.904   2.763  0.00  0.00    +0.185 C 
ATOM      8  C   UNL     1     -37.986  21.996   2.087  0.00  0.00    +0.275 C 
ATOM      9  C   UNL     1     -35.547  22.901   2.442  0.00  0.00    +0.275 C 
ATOM     10  C   UNL     1     -36.051  21.101   0.794  0.00  0.00    +0.313 C 
ATOM     11  H   UNL     1     -38.003  20.548   0.676  0.00  0.00    +0.159 HD
ATOM     12  H   UNL     1     -34.251  21.942   1.222  0.00  0.00    +0.159 HD
ENDROOT
BRANCH   4  18
ATOM     13  O   UNL     1     -36.025  22.859   5.859  0.00  0.00    -0.271 OA
ATOM     14  O   UNL     1     -36.742  26.371   2.801  0.00  0.00    -0.211 OA
ATOM     15  O   UNL     1     -33.714  26.751   6.047  0.00  0.00    -0.192 OA
ATOM     16  N   UNL     1     -34.862  24.846   5.936  0.00  0.00    -0.198 N 
ATOM     17  N   UNL     1     -35.260  26.543   4.399  0.00  0.00    -0.247 NA
ATOM     18  C   UNL     1     -36.520  24.518   4.233  0.00  0.00    +0.298 C 
ATOM     19  C   UNL     1     -35.794  23.979   5.412  0.00  0.00    +0.276 C 
ATOM     20  C   UNL     1     -36.226  25.762   3.783  0.00  0.00    +0.223 C 
ATOM     21  C   UNL     1     -34.596  26.118   5.435  0.00  0.00    +0.281 C 
ATOM     22  H   UNL     1     -34.348  24.546   6.720  0.00  0.00    +0.169 HD
ENDBRANCH   4  18
TORSDOF 1
ENDMDL
MODEL 6
REMARK VINA RESULT:      -6.0      1.313      5.535
REMARK  Name = 51381221
REMARK  1 active torsions:
REMARK  status: ('A' for Active; 'I' for Inactive)
REMARK    1  A    between atoms: N_4  and  C_18
REMARK                            x       y       z     vdW  Elec       q    Type
REMARK                         _______ _______ _______ _____ _____    ______ ____
ROOT
ATOM      1  O   UNL     1     -37.374  23.730   3.988  0.00  0.00    -0.268 OA
ATOM      2  O   UNL     1     -33.436  25.115   1.809  0.00  0.00    -0.268 OA
ATOM      3  O   UNL     1     -34.244  26.325   6.206  0.00  0.00    -0.252 OA
ATOM      4  N   UNL     1     -35.791  23.771   1.754  0.00  0.00    -0.237 NA
ATOM      5  N   UNL     1     -33.831  25.730   4.021  0.00  0.00    -0.234 N 
ATOM      6  N   UNL     1     -35.807  25.036   5.116  0.00  0.00    -0.234 N 
ATOM      7  C   UNL     1     -35.428  24.383   2.832  0.00  0.00    +0.185 C 
ATOM      8  C   UNL     1     -34.122  25.112   2.819  0.00  0.00    +0.275 C 
ATOM      9  C   UNL     1     -36.318  24.340   4.035  0.00  0.00    +0.275 C 
ATOM     10  C   UNL     1     -34.603  25.737   5.183  0.00  0.00    +0.313 C 
ATOM     11  H   UNL     1     -32.980  26.224   4.061  0.00  0.00    +0.159 HD
ATOM     12  H   UNL     1     -36.358  25.036   5.932  0.00  0.00    +0.159 HD
ENDROOT
BRANCH   4  18
ATOM     13  O   UNL     1     -35.935  21.141   2.594  0.00  0.00    -0.271 OA
ATOM     14  O   UNL     1     -38.357  24.898   1.106  0.00  0.00    -0.211 OA
ATOM     15  O   UNL     1     -40.440  21.092   2.119  0.00  0.00    -0.192 OA
ATOM     16  N   UNL     1     -38.225  21.138   2.345  0.00  0.00    -0.198 N 
ATOM     17  N   UNL     1     -39.365  23.024   1.606  0.00  0.00    -0.247 NA
ATOM     18  C   UNL     1     -36.988  23.129   1.832  0.00  0.00    +0.298 C 
ATOM     19  C   UNL     1     -36.977  21.717   2.293  0.00  0.00    +0.276 C 
ATOM     20  C   UNL     1     -38.167  23.715   1.511  0.00  0.00    +0.223 C 
ATOM     21  C   UNL     1     -39.410  21.785   2.005  0.00  0.00    +0.281 C 
ATOM     22  H   UNL     1     -38.284  20.202   2.643  0.00  0.00    +0.169 HD
ENDBRANCH   4  18
TORSDOF 1
ENDMDL
MODEL 7
REMARK VINA RESULT:      -6.0      2.405      3.902
REMARK  Name = 51381221
REMARK  1 active torsions:
REMARK  status: ('A' for Active; 'I' for Inactive)
REMARK    1  A    between atoms: N_4  and  C_18
REMARK                            x       y       z     vdW  Elec       q    Type
REMARK                         _______ _______ _______ _____ _____    ______ ____
ROOT
ATOM      1  O   UNL     1     -35.102  24.573   2.220  0.00  0.00    -0.268 OA
ATOM      2  O   UNL     1     -35.926  22.382   6.306  0.00  0.00    -0.268 OA
ATOM      3  O   UNL     1     -35.172  19.947   2.439  0.00  0.00    -0.252 OA
ATOM      4  N   UNL     1     -35.634  24.686   4.903  0.00  0.00    -0.237 NA
ATOM      5  N   UNL     1     -35.548  21.146   4.367  0.00  0.00    -0.234 N 
ATOM      6  N   UNL     1     -35.134  22.244   2.316  0.00  0.00    -0.234 N 
ATOM      7  C   UNL     1     -35.520  23.549   4.299  0.00  0.00    +0.185 C 
ATOM      8  C   UNL     1     -35.690  22.304   5.110  0.00  0.00    +0.275 C 
ATOM      9  C   UNL     1     -35.229  23.524   2.831  0.00  0.00    +0.275 C 
ATOM     10  C   UNL     1     -35.277  21.039   3.003  0.00  0.00    +0.313 C 
ATOM     11  H   UNL     1     -35.652  20.299   4.858  0.00  0.00    +0.159 HD
ATOM     12  H   UNL     1     -34.944  22.177   1.352  0.00  0.00    +0.159 HD
ENDROOT
BRANCH   4  18
ATOM     13  O   UNL     1     -37.769  25.767   3.519  0.00  0.00    -0.271 OA
ATOM     14  O   UNL     1     -33.166  26.096   4.464  0.00  0.00    -0.211 OA
ATOM     15  O   UNL     1     -35.149  28.999   1.727  0.00  0.00    -0.192 OA
ATOM     16  N   UNL     1     -36.418  27.401   2.619  0.00  0.00    -0.198 N 
ATOM     17  N   UNL     1     -34.153  27.512   3.123  0.00  0.00    -0.247 NA
ATOM     18  C   UNL     1     -35.469  25.778   4.110  0.00  0.00    +0.298 C 
ATOM     19  C   UNL     1     -36.668  26.296   3.401  0.00  0.00    +0.276 C 
ATOM     20  C   UNL     1     -34.277  26.401   3.942  0.00  0.00    +0.223 C 
ATOM     21  C   UNL     1     -35.172  28.006   2.480  0.00  0.00    +0.281 C 
ATOM     22  H   UNL     1     -37.174  27.791   2.124  0.00  0.00    +0.169 HD
ENDBRANCH   4  18
TORSDOF 1
ENDMDL
MODEL 8
REMARK VINA RESULT:      -5.9      2.668      4.069
REMARK  Name = 51381221
REMARK  1 active torsions:
REMARK  status: ('A' for Active; 'I' for Inactive)
REMARK    1  A    between atoms: N_4  and  C_18
REMARK                            x       y       z     vdW  Elec       q    Type
REMARK                         _______ _______ _______ _____ _____    ______ ____
ROOT
ATOM      1  O   UNL     1     -35.228  27.322   4.034  0.00  0.00    -0.268 OA
ATOM      2  O   UNL     1     -35.041  22.636   4.454  0.00  0.00    -0.268 OA
ATOM      3  O   UNL     1     -39.074  24.769   3.660  0.00  0.00    -0.252 OA
ATOM      4  N   UNL     1     -33.778  25.036   4.446  0.00  0.00    -0.237 NA
ATOM      5  N   UNL     1     -37.076  23.698   4.055  0.00  0.00    -0.234 N 
ATOM      6  N   UNL     1     -37.172  26.050   3.843  0.00  0.00    -0.234 N 
ATOM      7  C   UNL     1     -35.055  24.984   4.255  0.00  0.00    +0.185 C 
ATOM      8  C   UNL     1     -35.711  23.640   4.268  0.00  0.00    +0.275 C 
ATOM      9  C   UNL     1     -35.817  26.253   4.033  0.00  0.00    +0.275 C 
ATOM     10  C   UNL     1     -37.857  24.834   3.840  0.00  0.00    +0.313 C 
ATOM     11  H   UNL     1     -37.553  22.836   4.054  0.00  0.00    +0.159 HD
ATOM     12  H   UNL     1     -37.716  26.857   3.694  0.00  0.00    +0.159 HD
ENDROOT
BRANCH   4  18
ATOM     13  O   UNL     1     -32.882  26.150   2.079  0.00  0.00    -0.271 OA
ATOM     14  O   UNL     1     -33.449  26.774   6.714  0.00  0.00    -0.211 OA
ATOM     15  O   UNL     1     -31.644  29.966   4.184  0.00  0.00    -0.192 OA
ATOM     16  N   UNL     1     -32.260  28.081   3.170  0.00  0.00    -0.198 N 
ATOM     17  N   UNL     1     -32.565  28.330   5.460  0.00  0.00    -0.247 NA
ATOM     18  C   UNL     1     -33.244  26.287   4.422  0.00  0.00    +0.298 C 
ATOM     19  C   UNL     1     -32.787  26.811   3.110  0.00  0.00    +0.276 C 
ATOM     20  C   UNL     1     -33.114  27.060   5.529  0.00  0.00    +0.223 C 
ATOM     21  C   UNL     1     -32.149  28.836   4.335  0.00  0.00    +0.281 C 
ATOM     22  H   UNL     1     -31.939  28.484   2.331  0.00  0.00    +0.169 HD
ENDBRANCH   4  18
TORSDOF 1
ENDMDL
MODEL 9
REMARK VINA RESULT:      -5.9      2.583      4.260
REMARK  Name = 51381221
REMARK  1 active torsions:
REMARK  status: ('A' for Active; 'I' for Inactive)
REMARK    1  A    between atoms: N_4  and  C_18
REMARK                            x       y       z     vdW  Elec       q    Type
REMARK                         _______ _______ _______ _____ _____    ______ ____
ROOT
ATOM      1  O   UNL     1     -34.736  25.971   4.954  0.00  0.00    -0.268 OA
ATOM      2  O   UNL     1     -35.312  22.340   2.012  0.00  0.00    -0.268 OA
ATOM      3  O   UNL     1     -35.984  21.811   6.563  0.00  0.00    -0.252 OA
ATOM      4  N   UNL     1     -34.696  24.951   2.414  0.00  0.00    -0.237 NA
ATOM      5  N   UNL     1     -35.653  22.061   4.300  0.00  0.00    -0.234 N 
ATOM      6  N   UNL     1     -35.365  23.883   5.778  0.00  0.00    -0.234 N 
ATOM      7  C   UNL     1     -35.005  24.203   3.421  0.00  0.00    +0.185 C 
ATOM      8  C   UNL     1     -35.337  22.769   3.155  0.00  0.00    +0.275 C 
ATOM      9  C   UNL     1     -35.017  24.794   4.796  0.00  0.00    +0.275 C 
ATOM     10  C   UNL     1     -35.688  22.536   5.611  0.00  0.00    +0.313 C 
ATOM     11  H   UNL     1     -35.879  21.111   4.175  0.00  0.00    +0.159 HD
ATOM     12  H   UNL     1     -35.386  24.225   6.701  0.00  0.00    +0.159 HD
ENDROOT
BRANCH   4  18
ATOM     13  O   UNL     1     -36.685  26.870   2.503  0.00  0.00    -0.271 OA
ATOM     14  O   UNL     1     -32.086  25.992   3.027  0.00  0.00    -0.211 OA
ATOM     15  O   UNL     1     -33.711  30.098   3.624  0.00  0.00    -0.192 OA
ATOM     16  N   UNL     1     -35.155  28.495   3.072  0.00  0.00    -0.198 N 
ATOM     17  N   UNL     1     -32.898  28.001   3.316  0.00  0.00    -0.247 NA
ATOM     18  C   UNL     1     -34.405  26.243   2.724  0.00  0.00    +0.298 C 
ATOM     19  C   UNL     1     -35.532  27.210   2.750  0.00  0.00    +0.276 C 
ATOM     20  C   UNL     1     -33.151  26.675   3.004  0.00  0.00    +0.223 C 
ATOM     21  C   UNL     1     -33.850  28.889   3.353  0.00  0.00    +0.281 C 
ATOM     22  H   UNL     1     -35.859  29.183   3.106  0.00  0.00    +0.169 HD
ENDBRANCH   4  18
TORSDOF 1
ENDMDL
