MODEL 1
REMARK VINA RESULT:      -5.7      0.000      0.000
REMARK  Name = 193371
REMARK  7 active torsions:
REMARK  status: ('A' for Active; 'I' for Inactive)
REMARK    1  A    between atoms: C_1  and  C_12
REMARK    2  A    between atoms: C_4  and  N_9
REMARK    3  A    between atoms: C_6  and  O_10
REMARK    4  A    between atoms: C_12  and  C_13
REMARK    5  A    between atoms: C_13  and  N_14
REMARK    6  A    between atoms: C_13  and  C_19
REMARK    7  A    between atoms: C_19  and  O_20
REMARK                            x       y       z     vdW  Elec       q    Type
REMARK                         _______ _______ _______ _____ _____    ______ ____
ROOT
ATOM      1  C   UNL     1     -34.981  24.302   3.859  0.00  0.00    -0.022 C 
ATOM      2  C   UNL     1     -35.224  23.193   3.066  0.00  0.00    +0.023 C 
ATOM      3  C   UNL     1     -34.915  24.202   5.240  0.00  0.00    -0.001 C 
ATOM      4  C   UNL     1     -35.404  21.948   3.670  0.00  0.00    +0.176 C 
ATOM      5  C   UNL     1     -35.096  22.958   5.844  0.00  0.00    +0.038 C 
ATOM      6  C   UNL     1     -35.340  21.831   5.059  0.00  0.00    +0.156 C 
ENDROOT
BRANCH   4   9
ATOM      7  O   UNL     1     -34.760  19.934   2.750  0.00  0.00    -0.126 OA
ATOM      8  O   UNL     1     -36.754  20.715   2.267  0.00  0.00    -0.126 OA
ATOM      9  N   UNL     1     -35.652  20.810   2.856  0.00  0.00    +0.061 N 
ENDBRANCH   4   9
BRANCH   6  10
ATOM     10  O   UNL     1     -35.514  20.626   5.673  0.00  0.00    -0.504 OA
ATOM     11  H   UNL     1     -36.331  20.423   6.083  0.00  0.00    +0.292 HD
ENDBRANCH   6  10
BRANCH   1  12
ATOM     12  C   UNL     1     -34.786  25.650   3.206  0.00  0.00    +0.015 C 
BRANCH  12  13
ATOM     13  C   UNL     1     -34.586  26.787   4.218  0.00  0.00    +0.040 C 
BRANCH  13  14
ATOM     14  N   UNL     1     -35.263  27.994   3.740  0.00  0.00    +0.389 N 
ATOM     15  H   UNL     1     -35.165  28.060   2.727  0.00  0.00    -0.088 HD
ATOM     16  H   UNL     1     -34.846  28.815   4.177  0.00  0.00    -0.088 HD
ATOM     17  H   UNL     1     -36.253  27.946   3.981  0.00  0.00    -0.088 HD
ENDBRANCH  13  14
BRANCH  13  19
ATOM     18  O   UNL     1     -32.239  26.843   3.558  0.00  0.00    -0.252 OA
ATOM     19  C   UNL     1     -33.115  27.135   4.364  0.00  0.00    +0.297 C 
BRANCH  19  20
ATOM     20  O   UNL     1     -32.931  27.851   5.514  0.00  0.00    -0.446 OA
ATOM     21  C   UNL     1     -32.829  27.077   6.713  0.00  0.00    +0.256 C 
ENDBRANCH  19  20
ENDBRANCH  13  19
ENDBRANCH  12  13
ENDBRANCH   1  12
TORSDOF 7
ENDMDL
MODEL 2
REMARK VINA RESULT:      -5.6      2.943      5.898
REMARK  Name = 193371
REMARK  7 active torsions:
REMARK  status: ('A' for Active; 'I' for Inactive)
REMARK    1  A    between atoms: C_1  and  C_12
REMARK    2  A    between atoms: C_4  and  N_9
REMARK    3  A    between atoms: C_6  and  O_10
REMARK    4  A    between atoms: C_12  and  C_13
REMARK    5  A    between atoms: C_13  and  N_14
REMARK    6  A    between atoms: C_13  and  C_19
REMARK    7  A    between atoms: C_19  and  O_20
REMARK                            x       y       z     vdW  Elec       q    Type
REMARK                         _______ _______ _______ _____ _____    ______ ____
ROOT
ATOM      1  C   UNL     1     -35.717  22.730   4.149  0.00  0.00    -0.022 C 
ATOM      2  C   UNL     1     -36.841  23.343   3.621  0.00  0.00    +0.023 C 
ATOM      3  C   UNL     1     -34.889  23.388   5.045  0.00  0.00    -0.001 C 
ATOM      4  C   UNL     1     -37.148  24.650   4.001  0.00  0.00    +0.176 C 
ATOM      5  C   UNL     1     -35.195  24.696   5.423  0.00  0.00    +0.038 C 
ATOM      6  C   UNL     1     -36.324  25.325   4.902  0.00  0.00    +0.156 C 
ENDROOT
BRANCH   4   9
ATOM      7  O   UNL     1     -39.419  24.727   3.611  0.00  0.00    -0.126 OA
ATOM      8  O   UNL     1     -38.171  26.363   2.846  0.00  0.00    -0.126 OA
ATOM      9  N   UNL     1     -38.302  25.278   3.459  0.00  0.00    +0.061 N 
ENDBRANCH   4   9
BRANCH   6  10
ATOM     10  O   UNL     1     -36.603  26.604   5.287  0.00  0.00    -0.504 OA
ATOM     11  H   UNL     1     -36.735  27.269   4.641  0.00  0.00    +0.292 HD
ENDBRANCH   6  10
BRANCH   1  12
ATOM     12  C   UNL     1     -35.384  21.315   3.739  0.00  0.00    +0.015 C 
BRANCH  12  13
ATOM     13  C   UNL     1     -35.815  20.986   2.303  0.00  0.00    +0.040 C 
BRANCH  13  14
ATOM     14  N   UNL     1     -36.758  19.866   2.319  0.00  0.00    +0.389 N 
ATOM     15  H   UNL     1     -36.259  19.004   2.538  0.00  0.00    -0.088 HD
ATOM     16  H   UNL     1     -37.201  19.780   1.405  0.00  0.00    -0.088 HD
ATOM     17  H   UNL     1     -37.472  20.033   3.028  0.00  0.00    -0.088 HD
ENDBRANCH  13  14
BRANCH  13  19
ATOM     18  O   UNL     1     -34.226  21.126   0.459  0.00  0.00    -0.252 OA
ATOM     19  C   UNL     1     -34.627  20.550   1.463  0.00  0.00    +0.297 C 
BRANCH  19  20
ATOM     20  O   UNL     1     -34.062  19.438   2.022  0.00  0.00    -0.446 OA
ATOM     21  C   UNL     1     -33.154  18.718   1.181  0.00  0.00    +0.256 C 
ENDBRANCH  19  20
ENDBRANCH  13  19
ENDBRANCH  12  13
ENDBRANCH   1  12
TORSDOF 7
ENDMDL
MODEL 3
REMARK VINA RESULT:      -5.5      2.798      5.736
REMARK  Name = 193371
REMARK  7 active torsions:
REMARK  status: ('A' for Active; 'I' for Inactive)
REMARK    1  A    between atoms: C_1  and  C_12
REMARK    2  A    between atoms: C_4  and  N_9
REMARK    3  A    between atoms: C_6  and  O_10
REMARK    4  A    between atoms: C_12  and  C_13
REMARK    5  A    between atoms: C_13  and  N_14
REMARK    6  A    between atoms: C_13  and  C_19
REMARK    7  A    between atoms: C_19  and  O_20
REMARK                            x       y       z     vdW  Elec       q    Type
REMARK                         _______ _______ _______ _____ _____    ______ ____
ROOT
ATOM      1  C   UNL     1     -35.676  22.665   4.190  0.00  0.00    -0.022 C 
ATOM      2  C   UNL     1     -36.781  23.284   3.630  0.00  0.00    +0.023 C 
ATOM      3  C   UNL     1     -34.875  23.316   5.115  0.00  0.00    -0.001 C 
ATOM      4  C   UNL     1     -37.095  24.590   4.006  0.00  0.00    +0.176 C 
ATOM      5  C   UNL     1     -35.188  24.623   5.490  0.00  0.00    +0.038 C 
ATOM      6  C   UNL     1     -36.299  25.259   4.935  0.00  0.00    +0.156 C 
ENDROOT
BRANCH   4   9
ATOM      7  O   UNL     1     -39.366  24.731   3.630  0.00  0.00    -0.126 OA
ATOM      8  O   UNL     1     -38.062  26.257   2.741  0.00  0.00    -0.126 OA
ATOM      9  N   UNL     1     -38.230  25.224   3.431  0.00  0.00    +0.061 N 
ENDBRANCH   4   9
BRANCH   6  10
ATOM     10  O   UNL     1     -36.585  26.537   5.318  0.00  0.00    -0.504 OA
ATOM     11  H   UNL     1     -37.264  26.697   5.942  0.00  0.00    +0.292 HD
ENDBRANCH   6  10
BRANCH   1  12
ATOM     12  C   UNL     1     -35.335  21.250   3.784  0.00  0.00    +0.015 C 
BRANCH  12  13
ATOM     13  C   UNL     1     -35.732  20.926   2.338  0.00  0.00    +0.040 C 
BRANCH  13  14
ATOM     14  N   UNL     1     -36.742  19.865   2.334  0.00  0.00    +0.389 N 
ATOM     15  H   UNL     1     -37.671  20.280   2.397  0.00  0.00    -0.088 HD
ATOM     16  H   UNL     1     -36.590  19.247   3.130  0.00  0.00    -0.088 HD
ATOM     17  H   UNL     1     -36.668  19.329   1.469  0.00  0.00    -0.088 HD
ENDBRANCH  13  14
BRANCH  13  19
ATOM     18  O   UNL     1     -34.086  19.273   1.629  0.00  0.00    -0.252 OA
ATOM     19  C   UNL     1     -34.543  20.406   1.548  0.00  0.00    +0.297 C 
BRANCH  19  20
ATOM     20  O   UNL     1     -34.089  21.390   0.715  0.00  0.00    -0.446 OA
ATOM     21  C   UNL     1     -35.096  22.243   0.162  0.00  0.00    +0.256 C 
ENDBRANCH  19  20
ENDBRANCH  13  19
ENDBRANCH  12  13
ENDBRANCH   1  12
TORSDOF 7
ENDMDL
MODEL 4
REMARK VINA RESULT:      -5.5      1.269      2.054
REMARK  Name = 193371
REMARK  7 active torsions:
REMARK  status: ('A' for Active; 'I' for Inactive)
REMARK    1  A    between atoms: C_1  and  C_12
REMARK    2  A    between atoms: C_4  and  N_9
REMARK    3  A    between atoms: C_6  and  O_10
REMARK    4  A    between atoms: C_12  and  C_13
REMARK    5  A    between atoms: C_13  and  N_14
REMARK    6  A    between atoms: C_13  and  C_19
REMARK    7  A    between atoms: C_19  and  O_20
REMARK                            x       y       z     vdW  Elec       q    Type
REMARK                         _______ _______ _______ _____ _____    ______ ____
ROOT
ATOM      1  C   UNL     1     -35.820  24.425   4.200  0.00  0.00    -0.022 C 
ATOM      2  C   UNL     1     -35.918  23.363   3.317  0.00  0.00    +0.023 C 
ATOM      3  C   UNL     1     -35.511  24.227   5.536  0.00  0.00    -0.001 C 
ATOM      4  C   UNL     1     -35.701  22.066   3.782  0.00  0.00    +0.176 C 
ATOM      5  C   UNL     1     -35.294  22.930   6.002  0.00  0.00    +0.038 C 
ATOM      6  C   UNL     1     -35.389  21.850   5.124  0.00  0.00    +0.156 C 
ENDROOT
BRANCH   4   9
ATOM      7  O   UNL     1     -36.826  20.877   2.157  0.00  0.00    -0.126 OA
ATOM      8  O   UNL     1     -34.864  20.146   2.818  0.00  0.00    -0.126 OA
ATOM      9  N   UNL     1     -35.801  20.976   2.874  0.00  0.00    +0.061 N 
ENDBRANCH   4   9
BRANCH   6  10
ATOM     10  O   UNL     1     -35.172  20.591   5.603  0.00  0.00    -0.504 OA
ATOM     11  H   UNL     1     -35.304  19.849   5.046  0.00  0.00    +0.292 HD
ENDBRANCH   6  10
BRANCH   1  12
ATOM     12  C   UNL     1     -36.055  25.830   3.697  0.00  0.00    +0.015 C 
BRANCH  12  13
ATOM     13  C   UNL     1     -34.853  26.758   3.916  0.00  0.00    +0.040 C 
BRANCH  13  14
ATOM     14  N   UNL     1     -35.191  28.112   3.473  0.00  0.00    +0.389 N 
ATOM     15  H   UNL     1     -34.335  28.638   3.303  0.00  0.00    -0.088 HD
ATOM     16  H   UNL     1     -35.740  28.579   4.195  0.00  0.00    -0.088 HD
ATOM     17  H   UNL     1     -35.735  28.062   2.612  0.00  0.00    -0.088 HD
ENDBRANCH  13  14
BRANCH  13  19
ATOM     18  O   UNL     1     -32.578  25.963   3.546  0.00  0.00    -0.252 OA
ATOM     19  C   UNL     1     -33.660  26.310   3.089  0.00  0.00    +0.297 C 
BRANCH  19  20
ATOM     20  O   UNL     1     -33.997  26.324   1.765  0.00  0.00    -0.446 OA
ATOM     21  C   UNL     1     -33.493  25.232   0.988  0.00  0.00    +0.256 C 
ENDBRANCH  19  20
ENDBRANCH  13  19
ENDBRANCH  12  13
ENDBRANCH   1  12
TORSDOF 7
ENDMDL
MODEL 5
REMARK VINA RESULT:      -5.3      1.272      2.421
REMARK  Name = 193371
REMARK  7 active torsions:
REMARK  status: ('A' for Active; 'I' for Inactive)
REMARK    1  A    between atoms: C_1  and  C_12
REMARK    2  A    between atoms: C_4  and  N_9
REMARK    3  A    between atoms: C_6  and  O_10
REMARK    4  A    between atoms: C_12  and  C_13
REMARK    5  A    between atoms: C_13  and  N_14
REMARK    6  A    between atoms: C_13  and  C_19
REMARK    7  A    between atoms: C_19  and  O_20
REMARK                            x       y       z     vdW  Elec       q    Type
REMARK                         _______ _______ _______ _____ _____    ______ ____
ROOT
ATOM      1  C   UNL     1     -34.745  24.323   2.946  0.00  0.00    -0.022 C 
ATOM      2  C   UNL     1     -34.881  23.705   4.178  0.00  0.00    +0.023 C 
ATOM      3  C   UNL     1     -35.059  23.663   1.769  0.00  0.00    -0.001 C 
ATOM      4  C   UNL     1     -35.346  22.391   4.235  0.00  0.00    +0.176 C 
ATOM      5  C   UNL     1     -35.523  22.349   1.825  0.00  0.00    +0.038 C 
ATOM      6  C   UNL     1     -35.666  21.713   3.058  0.00  0.00    +0.156 C 
ENDROOT
BRANCH   4   9
ATOM      7  O   UNL     1     -35.023  20.602   5.654  0.00  0.00    -0.126 OA
ATOM      8  O   UNL     1     -36.069  22.372   6.424  0.00  0.00    -0.126 OA
ATOM      9  N   UNL     1     -35.486  21.758   5.500  0.00  0.00    +0.061 N 
ENDBRANCH   4   9
BRANCH   6  10
ATOM     10  O   UNL     1     -36.121  20.427   3.088  0.00  0.00    -0.504 OA
ATOM     11  H   UNL     1     -35.915  19.875   3.816  0.00  0.00    +0.292 HD
ENDBRANCH   6  10
BRANCH   1  12
ATOM     12  C   UNL     1     -34.242  25.746   2.884  0.00  0.00    +0.015 C 
BRANCH  12  13
ATOM     13  C   UNL     1     -34.693  26.598   4.078  0.00  0.00    +0.040 C 
BRANCH  13  14
ATOM     14  N   UNL     1     -35.187  27.890   3.600  0.00  0.00    +0.389 N 
ATOM     15  H   UNL     1     -35.952  27.739   2.942  0.00  0.00    -0.088 HD
ATOM     16  H   UNL     1     -34.432  28.393   3.135  0.00  0.00    -0.088 HD
ATOM     17  H   UNL     1     -35.525  28.439   4.391  0.00  0.00    -0.088 HD
ENDBRANCH  13  14
BRANCH  13  19
ATOM     18  O   UNL     1     -33.561  26.780   6.231  0.00  0.00    -0.252 OA
ATOM     19  C   UNL     1     -33.530  26.889   5.011  0.00  0.00    +0.297 C 
BRANCH  19  20
ATOM     20  O   UNL     1     -32.440  27.257   4.273  0.00  0.00    -0.446 OA
ATOM     21  C   UNL     1     -31.720  28.395   4.760  0.00  0.00    +0.256 C 
ENDBRANCH  19  20
ENDBRANCH  13  19
ENDBRANCH  12  13
ENDBRANCH   1  12
TORSDOF 7
ENDMDL
MODEL 6
REMARK VINA RESULT:      -5.2      1.715      2.222
REMARK  Name = 193371
REMARK  7 active torsions:
REMARK  status: ('A' for Active; 'I' for Inactive)
REMARK    1  A    between atoms: C_1  and  C_12
REMARK    2  A    between atoms: C_4  and  N_9
REMARK    3  A    between atoms: C_6  and  O_10
REMARK    4  A    between atoms: C_12  and  C_13
REMARK    5  A    between atoms: C_13  and  N_14
REMARK    6  A    between atoms: C_13  and  C_19
REMARK    7  A    between atoms: C_19  and  O_20
REMARK                            x       y       z     vdW  Elec       q    Type
REMARK                         _______ _______ _______ _____ _____    ______ ____
ROOT
ATOM      1  C   UNL     1     -35.310  24.260   5.066  0.00  0.00    -0.022 C 
ATOM      2  C   UNL     1     -35.705  24.128   3.745  0.00  0.00    +0.023 C 
ATOM      3  C   UNL     1     -35.099  23.153   5.872  0.00  0.00    -0.001 C 
ATOM      4  C   UNL     1     -35.894  22.852   3.214  0.00  0.00    +0.176 C 
ATOM      5  C   UNL     1     -35.289  21.877   5.341  0.00  0.00    +0.038 C 
ATOM      6  C   UNL     1     -35.686  21.727   4.012  0.00  0.00    +0.156 C 
ENDROOT
BRANCH   4   9
ATOM      7  O   UNL     1     -35.569  23.194   0.957  0.00  0.00    -0.126 OA
ATOM      8  O   UNL     1     -37.373  22.124   1.603  0.00  0.00    -0.126 OA
ATOM      9  N   UNL     1     -36.299  22.716   1.858  0.00  0.00    +0.061 N 
ENDBRANCH   4   9
BRANCH   6  10
ATOM     10  O   UNL     1     -35.865  20.468   3.516  0.00  0.00    -0.504 OA
ATOM     11  H   UNL     1     -35.577  19.726   4.009  0.00  0.00    +0.292 HD
ENDBRANCH   6  10
BRANCH   1  12
ATOM     12  C   UNL     1     -35.105  25.642   5.642  0.00  0.00    +0.015 C 
BRANCH  12  13
ATOM     13  C   UNL     1     -33.647  26.116   5.567  0.00  0.00    +0.040 C 
BRANCH  13  14
ATOM     14  N   UNL     1     -33.329  26.912   6.754  0.00  0.00    +0.389 N 
ATOM     15  H   UNL     1     -33.994  26.697   7.496  0.00  0.00    -0.088 HD
ATOM     16  H   UNL     1     -33.384  27.904   6.524  0.00  0.00    -0.088 HD
ATOM     17  H   UNL     1     -32.385  26.688   7.070  0.00  0.00    -0.088 HD
ENDBRANCH  13  14
BRANCH  13  19
ATOM     18  O   UNL     1     -32.361  27.152   3.774  0.00  0.00    -0.252 OA
ATOM     19  C   UNL     1     -33.426  27.014   4.362  0.00  0.00    +0.297 C 
BRANCH  19  20
ATOM     20  O   UNL     1     -34.607  27.613   4.022  0.00  0.00    -0.446 OA
ATOM     21  C   UNL     1     -34.553  28.482   2.886  0.00  0.00    +0.256 C 
ENDBRANCH  19  20
ENDBRANCH  13  19
ENDBRANCH  12  13
ENDBRANCH   1  12
TORSDOF 7
ENDMDL
MODEL 7
REMARK VINA RESULT:      -5.2      2.502      3.210
REMARK  Name = 193371
REMARK  7 active torsions:
REMARK  status: ('A' for Active; 'I' for Inactive)
REMARK    1  A    between atoms: C_1  and  C_12
REMARK    2  A    between atoms: C_4  and  N_9
REMARK    3  A    between atoms: C_6  and  O_10
REMARK    4  A    between atoms: C_12  and  C_13
REMARK    5  A    between atoms: C_13  and  N_14
REMARK    6  A    between atoms: C_13  and  C_19
REMARK    7  A    between atoms: C_19  and  O_20
REMARK                            x       y       z     vdW  Elec       q    Type
REMARK                         _______ _______ _______ _____ _____    ______ ____
ROOT
ATOM      1  C   UNL     1     -35.544  24.459   4.110  0.00  0.00    -0.022 C 
ATOM      2  C   UNL     1     -35.721  23.392   3.246  0.00  0.00    +0.023 C 
ATOM      3  C   UNL     1     -35.286  24.263   5.457  0.00  0.00    -0.001 C 
ATOM      4  C   UNL     1     -35.637  22.091   3.742  0.00  0.00    +0.176 C 
ATOM      5  C   UNL     1     -35.202  22.962   5.954  0.00  0.00    +0.038 C 
ATOM      6  C   UNL     1     -35.377  21.877   5.096  0.00  0.00    +0.156 C 
ENDROOT
BRANCH   4   9
ATOM      7  O   UNL     1     -34.931  20.110   2.794  0.00  0.00    -0.126 OA
ATOM      8  O   UNL     1     -36.860  20.945   2.159  0.00  0.00    -0.126 OA
ATOM      9  N   UNL     1     -35.818  20.995   2.855  0.00  0.00    +0.061 N 
ENDBRANCH   4   9
BRANCH   6  10
ATOM     10  O   UNL     1     -35.290  20.614   5.606  0.00  0.00    -0.504 OA
ATOM     11  H   UNL     1     -35.936  19.974   5.381  0.00  0.00    +0.292 HD
ENDBRANCH   6  10
BRANCH   1  12
ATOM     12  C   UNL     1     -35.635  25.869   3.573  0.00  0.00    +0.015 C 
BRANCH  12  13
ATOM     13  C   UNL     1     -36.120  25.929   2.118  0.00  0.00    +0.040 C 
BRANCH  13  14
ATOM     14  N   UNL     1     -35.006  26.310   1.247  0.00  0.00    +0.389 N 
ATOM     15  H   UNL     1     -35.358  26.872   0.472  0.00  0.00    -0.088 HD
ATOM     16  H   UNL     1     -34.557  25.471   0.882  0.00  0.00    -0.088 HD
ATOM     17  H   UNL     1     -34.328  26.855   1.780  0.00  0.00    -0.088 HD
ENDBRANCH  13  14
BRANCH  13  19
ATOM     18  O   UNL     1     -37.015  28.107   1.484  0.00  0.00    -0.252 OA
ATOM     19  C   UNL     1     -37.197  26.987   1.945  0.00  0.00    +0.297 C 
BRANCH  19  20
ATOM     20  O   UNL     1     -38.398  26.479   2.354  0.00  0.00    -0.446 OA
ATOM     21  C   UNL     1     -38.780  25.238   1.753  0.00  0.00    +0.256 C 
ENDBRANCH  19  20
ENDBRANCH  13  19
ENDBRANCH  12  13
ENDBRANCH   1  12
TORSDOF 7
ENDMDL
MODEL 8
REMARK VINA RESULT:      -5.1      2.214      6.430
REMARK  Name = 193371
REMARK  7 active torsions:
REMARK  status: ('A' for Active; 'I' for Inactive)
REMARK    1  A    between atoms: C_1  and  C_12
REMARK    2  A    between atoms: C_4  and  N_9
REMARK    3  A    between atoms: C_6  and  O_10
REMARK    4  A    between atoms: C_12  and  C_13
REMARK    5  A    between atoms: C_13  and  N_14
REMARK    6  A    between atoms: C_13  and  C_19
REMARK    7  A    between atoms: C_19  and  O_20
REMARK                            x       y       z     vdW  Elec       q    Type
REMARK                         _______ _______ _______ _____ _____    ______ ____
ROOT
ATOM      1  C   UNL     1     -34.371  26.274   4.960  0.00  0.00    -0.022 C 
ATOM      2  C   UNL     1     -33.453  26.804   5.852  0.00  0.00    +0.023 C 
ATOM      3  C   UNL     1     -34.328  26.585   3.610  0.00  0.00    -0.001 C 
ATOM      4  C   UNL     1     -32.463  27.667   5.382  0.00  0.00    +0.176 C 
ATOM      5  C   UNL     1     -33.338  27.449   3.140  0.00  0.00    +0.038 C 
ATOM      6  C   UNL     1     -32.406  27.989   4.026  0.00  0.00    +0.156 C 
ENDROOT
BRANCH   4   9
ATOM      7  O   UNL     1     -30.339  27.791   6.272  0.00  0.00    -0.126 OA
ATOM      8  O   UNL     1     -31.900  29.089   7.106  0.00  0.00    -0.126 OA
ATOM      9  N   UNL     1     -31.522  28.209   6.298  0.00  0.00    +0.061 N 
ENDBRANCH   4   9
BRANCH   6  10
ATOM     10  O   UNL     1     -31.449  28.832   3.542  0.00  0.00    -0.504 OA
ATOM     11  H   UNL     1     -30.546  28.586   3.583  0.00  0.00    +0.292 HD
ENDBRANCH   6  10
BRANCH   1  12
ATOM     12  C   UNL     1     -35.443  25.339   5.469  0.00  0.00    +0.015 C 
BRANCH  12  13
ATOM     13  C   UNL     1     -36.234  24.660   4.342  0.00  0.00    +0.040 C 
BRANCH  13  14
ATOM     14  N   UNL     1     -37.645  25.039   4.436  0.00  0.00    +0.389 N 
ATOM     15  H   UNL     1     -38.086  24.522   5.197  0.00  0.00    -0.088 HD
ATOM     16  H   UNL     1     -38.116  24.821   3.559  0.00  0.00    -0.088 HD
ATOM     17  H   UNL     1     -37.717  26.040   4.621  0.00  0.00    -0.088 HD
ENDBRANCH  13  14
BRANCH  13  19
ATOM     18  O   UNL     1     -36.200  22.361   3.530  0.00  0.00    -0.252 OA
ATOM     19  C   UNL     1     -36.174  23.147   4.469  0.00  0.00    +0.297 C 
BRANCH  19  20
ATOM     20  O   UNL     1     -36.055  22.809   5.788  0.00  0.00    -0.446 OA
ATOM     21  C   UNL     1     -35.221  21.679   6.062  0.00  0.00    +0.256 C 
ENDBRANCH  19  20
ENDBRANCH  13  19
ENDBRANCH  12  13
ENDBRANCH   1  12
TORSDOF 7
ENDMDL
MODEL 9
REMARK VINA RESULT:      -5.0      1.699      2.655
REMARK  Name = 193371
REMARK  7 active torsions:
REMARK  status: ('A' for Active; 'I' for Inactive)
REMARK    1  A    between atoms: C_1  and  C_12
REMARK    2  A    between atoms: C_4  and  N_9
REMARK    3  A    between atoms: C_6  and  O_10
REMARK    4  A    between atoms: C_12  and  C_13
REMARK    5  A    between atoms: C_13  and  N_14
REMARK    6  A    between atoms: C_13  and  C_19
REMARK    7  A    between atoms: C_19  and  O_20
REMARK                            x       y       z     vdW  Elec       q    Type
REMARK                         _______ _______ _______ _____ _____    ______ ____
ROOT
ATOM      1  C   UNL     1     -35.422  25.209   3.954  0.00  0.00    -0.022 C 
ATOM      2  C   UNL     1     -35.284  24.187   4.879  0.00  0.00    +0.023 C 
ATOM      3  C   UNL     1     -36.005  24.988   2.716  0.00  0.00    -0.001 C 
ATOM      4  C   UNL     1     -35.744  22.910   4.558  0.00  0.00    +0.176 C 
ATOM      5  C   UNL     1     -36.464  23.711   2.395  0.00  0.00    +0.038 C 
ATOM      6  C   UNL     1     -36.334  22.672   3.317  0.00  0.00    +0.156 C 
ENDROOT
BRANCH   4   9
ATOM      7  O   UNL     1     -35.043  20.795   5.157  0.00  0.00    -0.126 OA
ATOM      8  O   UNL     1     -36.041  22.034   6.670  0.00  0.00    -0.126 OA
ATOM      9  N   UNL     1     -35.602  21.862   5.509  0.00  0.00    +0.061 N 
ENDBRANCH   4   9
BRANCH   6  10
ATOM     10  O   UNL     1     -36.790  21.431   2.980  0.00  0.00    -0.504 OA
ATOM     11  H   UNL     1     -36.915  21.207   2.079  0.00  0.00    +0.292 HD
ENDBRANCH   6  10
BRANCH   1  12
ATOM     12  C   UNL     1     -34.924  26.593   4.300  0.00  0.00    +0.015 C 
BRANCH  12  13
ATOM     13  C   UNL     1     -33.485  26.600   4.832  0.00  0.00    +0.040 C 
BRANCH  13  14
ATOM     14  N   UNL     1     -33.501  26.754   6.288  0.00  0.00    +0.389 N 
ATOM     15  H   UNL     1     -34.304  26.257   6.673  0.00  0.00    -0.088 HD
ATOM     16  H   UNL     1     -33.567  27.743   6.525  0.00  0.00    -0.088 HD
ATOM     17  H   UNL     1     -32.643  26.366   6.680  0.00  0.00    -0.088 HD
ENDBRANCH  13  14
BRANCH  13  19
ATOM     18  O   UNL     1     -31.483  27.825   4.170  0.00  0.00    -0.252 OA
ATOM     19  C   UNL     1     -32.702  27.776   4.273  0.00  0.00    +0.297 C 
BRANCH  19  20
ATOM     20  O   UNL     1     -33.574  28.752   3.876  0.00  0.00    -0.446 OA
ATOM     21  C   UNL     1     -32.996  30.040   3.645  0.00  0.00    +0.256 C 
ENDBRANCH  19  20
ENDBRANCH  13  19
ENDBRANCH  12  13
ENDBRANCH   1  12
TORSDOF 7
ENDMDL
