MODEL 1
REMARK VINA RESULT:      -5.4      0.000      0.000
REMARK  Name = 197350
REMARK  7 active torsions:
REMARK  status: ('A' for Active; 'I' for Inactive)
REMARK    1  A    between atoms: N_1  and  C_15
REMARK    2  A    between atoms: C_9  and  S_13
REMARK    3  A    between atoms: C_15  and  C_16
REMARK    4  A    between atoms: C_16  and  O_17
REMARK    5  A    between atoms: C_16  and  O_20
REMARK    6  A    between atoms: O_17  and  C_18
REMARK    7  A    between atoms: O_20  and  C_21
REMARK                            x       y       z     vdW  Elec       q    Type
REMARK                         _______ _______ _______ _____ _____    ______ ____
ROOT
ATOM      1  N   UNL     1     -37.218  24.448   3.376  0.00  0.00    -0.182 N 
ATOM      2  N   UNL     1     -38.449  24.952   3.509  0.00  0.00    -0.178 NA
ATOM      3  N   UNL     1     -36.069  22.485   2.555  0.00  0.00    -0.322 NA
ATOM      4  N   UNL     1     -37.642  20.851   1.657  0.00  0.00    -0.324 NA
ATOM      5  C   UNL     1     -37.162  23.223   2.808  0.00  0.00    +0.205 C 
ATOM      6  C   UNL     1     -38.476  22.884   2.538  0.00  0.00    +0.179 C 
ATOM      7  C   UNL     1     -39.219  23.989   2.992  0.00  0.00    +0.108 C 
ATOM      8  C   UNL     1     -38.700  21.648   1.940  0.00  0.00    +0.180 C 
ATOM      9  C   UNL     1     -36.409  21.313   1.977  0.00  0.00    +0.170 C 
ATOM     10  N   UNL     1     -40.004  21.222   1.631  0.00  0.00    -0.335 N 
ATOM     11  H   UNL     1     -40.148  20.344   1.208  0.00  0.00    +0.144 HD
ATOM     12  H   UNL     1     -40.773  21.801   1.838  0.00  0.00    +0.144 HD
ENDROOT
BRANCH   9  13
ATOM     13  S   UNL     1     -35.051  20.221   1.584  0.00  0.00    -0.017 S 
ATOM     14  C   UNL     1     -34.058  21.336   0.571  0.00  0.00    +0.087 C 
ENDBRANCH   9  13
BRANCH   1  15
ATOM     15  C   UNL     1     -36.077  25.236   3.844  0.00  0.00    +0.180 C 
BRANCH  15  16
ATOM     16  C   UNL     1     -35.745  25.022   5.328  0.00  0.00    +0.258 C 
BRANCH  16  17
ATOM     17  O   UNL     1     -35.126  26.185   5.884  0.00  0.00    -0.329 OA
BRANCH  17  18
ATOM     18  C   UNL     1     -33.743  26.284   5.571  0.00  0.00    +0.145 C 
ATOM     19  C   UNL     1     -33.015  26.902   6.746  0.00  0.00    +0.035 C 
ENDBRANCH  17  18
ENDBRANCH  16  17
BRANCH  16  20
ATOM     20  O   UNL     1     -34.899  23.869   5.435  0.00  0.00    -0.329 OA
BRANCH  20  21
ATOM     21  C   UNL     1     -35.476  22.844   6.234  0.00  0.00    +0.145 C 
ATOM     22  C   UNL     1     -34.992  21.499   5.735  0.00  0.00    +0.035 C 
ENDBRANCH  20  21
ENDBRANCH  16  20
ENDBRANCH  15  16
ENDBRANCH   1  15
TORSDOF 7
ENDMDL
MODEL 2
REMARK VINA RESULT:      -5.1      2.167      4.115
REMARK  Name = 197350
REMARK  7 active torsions:
REMARK  status: ('A' for Active; 'I' for Inactive)
REMARK    1  A    between atoms: N_1  and  C_15
REMARK    2  A    between atoms: C_9  and  S_13
REMARK    3  A    between atoms: C_15  and  C_16
REMARK    4  A    between atoms: C_16  and  O_17
REMARK    5  A    between atoms: C_16  and  O_20
REMARK    6  A    between atoms: O_17  and  C_18
REMARK    7  A    between atoms: O_20  and  C_21
REMARK                            x       y       z     vdW  Elec       q    Type
REMARK                         _______ _______ _______ _____ _____    ______ ____
ROOT
ATOM      1  N   UNL     1     -36.303  23.280   3.001  0.00  0.00    -0.182 N 
ATOM      2  N   UNL     1     -35.894  22.055   2.658  0.00  0.00    -0.178 NA
ATOM      3  N   UNL     1     -38.298  24.645   3.071  0.00  0.00    -0.322 NA
ATOM      4  N   UNL     1     -40.240  23.415   2.253  0.00  0.00    -0.324 NA
ATOM      5  C   UNL     1     -37.622  23.514   2.815  0.00  0.00    +0.205 C 
ATOM      6  C   UNL     1     -38.135  22.335   2.304  0.00  0.00    +0.179 C 
ATOM      7  C   UNL     1     -37.022  21.476   2.231  0.00  0.00    +0.108 C 
ATOM      8  C   UNL     1     -39.496  22.307   2.021  0.00  0.00    +0.180 C 
ATOM      9  C   UNL     1     -39.604  24.500   2.758  0.00  0.00    +0.170 C 
ATOM     10  N   UNL     1     -40.101  21.151   1.498  0.00  0.00    -0.335 N 
ATOM     11  H   UNL     1     -41.066  21.146   1.301  0.00  0.00    +0.144 HD
ATOM     12  H   UNL     1     -39.560  20.347   1.326  0.00  0.00    +0.144 HD
ENDROOT
BRANCH   9  13
ATOM     13  S   UNL     1     -40.632  25.932   3.044  0.00  0.00    -0.017 S 
ATOM     14  C   UNL     1     -41.833  25.705   1.715  0.00  0.00    +0.087 C 
ENDBRANCH   9  13
BRANCH   1  15
ATOM     15  C   UNL     1     -35.323  24.231   3.526  0.00  0.00    +0.180 C 
BRANCH  15  16
ATOM     16  C   UNL     1     -35.166  24.176   5.053  0.00  0.00    +0.258 C 
BRANCH  16  17
ATOM     17  O   UNL     1     -36.103  23.262   5.629  0.00  0.00    -0.329 OA
BRANCH  17  18
ATOM     18  C   UNL     1     -35.508  22.364   6.557  0.00  0.00    +0.145 C 
ATOM     19  C   UNL     1     -34.924  21.190   5.801  0.00  0.00    +0.035 C 
ENDBRANCH  17  18
ENDBRANCH  16  17
BRANCH  16  20
ATOM     20  O   UNL     1     -35.335  25.504   5.568  0.00  0.00    -0.329 OA
BRANCH  20  21
ATOM     21  C   UNL     1     -34.274  26.372   5.192  0.00  0.00    +0.145 C 
ATOM     22  C   UNL     1     -33.371  26.593   6.386  0.00  0.00    +0.035 C 
ENDBRANCH  20  21
ENDBRANCH  16  20
ENDBRANCH  15  16
ENDBRANCH   1  15
TORSDOF 7
ENDMDL
MODEL 3
REMARK VINA RESULT:      -5.1      2.547      4.035
REMARK  Name = 197350
REMARK  7 active torsions:
REMARK  status: ('A' for Active; 'I' for Inactive)
REMARK    1  A    between atoms: N_1  and  C_15
REMARK    2  A    between atoms: C_9  and  S_13
REMARK    3  A    between atoms: C_15  and  C_16
REMARK    4  A    between atoms: C_16  and  O_17
REMARK    5  A    between atoms: C_16  and  O_20
REMARK    6  A    between atoms: O_17  and  C_18
REMARK    7  A    between atoms: O_20  and  C_21
REMARK                            x       y       z     vdW  Elec       q    Type
REMARK                         _______ _______ _______ _____ _____    ______ ____
ROOT
ATOM      1  N   UNL     1     -35.412  24.621   4.995  0.00  0.00    -0.182 N 
ATOM      2  N   UNL     1     -34.631  23.543   5.128  0.00  0.00    -0.178 NA
ATOM      3  N   UNL     1     -37.443  25.348   3.904  0.00  0.00    -0.322 NA
ATOM      4  N   UNL     1     -38.438  23.543   2.596  0.00  0.00    -0.324 NA
ATOM      5  C   UNL     1     -36.497  24.444   4.209  0.00  0.00    +0.205 C 
ATOM      6  C   UNL     1     -36.432  23.130   3.783  0.00  0.00    +0.179 C 
ATOM      7  C   UNL     1     -35.261  22.629   4.383  0.00  0.00    +0.108 C 
ATOM      8  C   UNL     1     -37.451  22.685   2.947  0.00  0.00    +0.180 C 
ATOM      9  C   UNL     1     -38.374  24.803   3.090  0.00  0.00    +0.170 C 
ATOM     10  N   UNL     1     -37.463  21.364   2.465  0.00  0.00    -0.335 N 
ATOM     11  H   UNL     1     -38.190  21.063   1.873  0.00  0.00    +0.144 HD
ATOM     12  H   UNL     1     -36.744  20.741   2.718  0.00  0.00    +0.144 HD
ENDROOT
BRANCH   9  13
ATOM     13  S   UNL     1     -39.700  25.893   2.595  0.00  0.00    -0.017 S 
ATOM     14  C   UNL     1     -40.695  24.733   1.635  0.00  0.00    +0.087 C 
ENDBRANCH   9  13
BRANCH   1  15
ATOM     15  C   UNL     1     -35.036  25.855   5.685  0.00  0.00    +0.180 C 
BRANCH  15  16
ATOM     16  C   UNL     1     -33.808  26.552   5.079  0.00  0.00    +0.258 C 
BRANCH  16  17
ATOM     17  O   UNL     1     -32.983  27.111   6.104  0.00  0.00    -0.329 OA
BRANCH  17  18
ATOM     18  C   UNL     1     -32.081  28.097   5.618  0.00  0.00    +0.145 C 
ATOM     19  C   UNL     1     -31.830  29.116   6.709  0.00  0.00    +0.035 C 
ENDBRANCH  17  18
ENDBRANCH  16  17
BRANCH  16  20
ATOM     20  O   UNL     1     -34.270  27.555   4.164  0.00  0.00    -0.329 OA
BRANCH  20  21
ATOM     21  C   UNL     1     -34.261  27.106   2.815  0.00  0.00    +0.145 C 
ATOM     22  C   UNL     1     -33.081  26.180   2.612  0.00  0.00    +0.035 C 
ENDBRANCH  20  21
ENDBRANCH  16  20
ENDBRANCH  15  16
ENDBRANCH   1  15
TORSDOF 7
ENDMDL
MODEL 4
REMARK VINA RESULT:      -5.0      2.684      4.357
REMARK  Name = 197350
REMARK  7 active torsions:
REMARK  status: ('A' for Active; 'I' for Inactive)
REMARK    1  A    between atoms: N_1  and  C_15
REMARK    2  A    between atoms: C_9  and  S_13
REMARK    3  A    between atoms: C_15  and  C_16
REMARK    4  A    between atoms: C_16  and  O_17
REMARK    5  A    between atoms: C_16  and  O_20
REMARK    6  A    between atoms: O_17  and  C_18
REMARK    7  A    between atoms: O_20  and  C_21
REMARK                            x       y       z     vdW  Elec       q    Type
REMARK                         _______ _______ _______ _____ _____    ______ ____
ROOT
ATOM      1  N   UNL     1     -35.211  26.015   3.930  0.00  0.00    -0.182 N 
ATOM      2  N   UNL     1     -35.478  26.402   5.181  0.00  0.00    -0.178 NA
ATOM      3  N   UNL     1     -35.046  24.020   2.573  0.00  0.00    -0.322 NA
ATOM      4  N   UNL     1     -35.517  22.018   3.885  0.00  0.00    -0.324 NA
ATOM      5  C   UNL     1     -35.267  24.680   3.721  0.00  0.00    +0.205 C 
ATOM      6  C   UNL     1     -35.603  24.132   4.946  0.00  0.00    +0.179 C 
ATOM      7  C   UNL     1     -35.719  25.242   5.803  0.00  0.00    +0.108 C 
ATOM      8  C   UNL     1     -35.728  22.748   5.007  0.00  0.00    +0.180 C 
ATOM      9  C   UNL     1     -35.195  22.690   2.754  0.00  0.00    +0.170 C 
ATOM     10  N   UNL     1     -36.065  22.106   6.211  0.00  0.00    -0.335 N 
ATOM     11  H   UNL     1     -36.149  21.125   6.239  0.00  0.00    +0.144 HD
ATOM     12  H   UNL     1     -36.216  22.636   7.027  0.00  0.00    +0.144 HD
ENDROOT
BRANCH   9  13
ATOM     13  S   UNL     1     -34.927  21.677   1.306  0.00  0.00    -0.017 S 
ATOM     14  C   UNL     1     -35.866  20.214   1.790  0.00  0.00    +0.087 C 
ENDBRANCH   9  13
BRANCH   1  15
ATOM     15  C   UNL     1     -34.890  27.032   2.929  0.00  0.00    +0.180 C 
BRANCH  15  16
ATOM     16  C   UNL     1     -33.615  27.829   3.245  0.00  0.00    +0.258 C 
BRANCH  16  17
ATOM     17  O   UNL     1     -32.806  27.137   4.199  0.00  0.00    -0.329 OA
BRANCH  17  18
ATOM     18  C   UNL     1     -32.147  28.009   5.108  0.00  0.00    +0.145 C 
ATOM     19  C   UNL     1     -32.416  27.540   6.523  0.00  0.00    +0.035 C 
ENDBRANCH  17  18
ENDBRANCH  16  17
BRANCH  16  20
ATOM     20  O   UNL     1     -34.004  29.125   3.719  0.00  0.00    -0.329 OA
BRANCH  20  21
ATOM     21  C   UNL     1     -34.215  30.051   2.661  0.00  0.00    +0.145 C 
ATOM     22  C   UNL     1     -35.401  30.927   3.001  0.00  0.00    +0.035 C 
ENDBRANCH  20  21
ENDBRANCH  16  20
ENDBRANCH  15  16
ENDBRANCH   1  15
TORSDOF 7
ENDMDL
MODEL 5
REMARK VINA RESULT:      -5.0      0.993      2.469
REMARK  Name = 197350
REMARK  7 active torsions:
REMARK  status: ('A' for Active; 'I' for Inactive)
REMARK    1  A    between atoms: N_1  and  C_15
REMARK    2  A    between atoms: C_9  and  S_13
REMARK    3  A    between atoms: C_15  and  C_16
REMARK    4  A    between atoms: C_16  and  O_17
REMARK    5  A    between atoms: C_16  and  O_20
REMARK    6  A    between atoms: O_17  and  C_18
REMARK    7  A    between atoms: O_20  and  C_21
REMARK                            x       y       z     vdW  Elec       q    Type
REMARK                         _______ _______ _______ _____ _____    ______ ____
ROOT
ATOM      1  N   UNL     1     -36.947  24.075   3.166  0.00  0.00    -0.182 N 
ATOM      2  N   UNL     1     -38.055  24.717   3.549  0.00  0.00    -0.178 NA
ATOM      3  N   UNL     1     -36.238  22.112   1.944  0.00  0.00    -0.322 NA
ATOM      4  N   UNL     1     -38.153  20.849   1.114  0.00  0.00    -0.324 NA
ATOM      5  C   UNL     1     -37.159  22.947   2.452  0.00  0.00    +0.205 C 
ATOM      6  C   UNL     1     -38.534  22.830   2.352  0.00  0.00    +0.179 C 
ATOM      7  C   UNL     1     -39.029  23.949   3.047  0.00  0.00    +0.108 C 
ATOM      8  C   UNL     1     -39.026  21.733   1.652  0.00  0.00    +0.180 C 
ATOM      9  C   UNL     1     -36.832  21.091   1.290  0.00  0.00    +0.170 C 
ATOM     10  N   UNL     1     -40.410  21.535   1.502  0.00  0.00    -0.335 N 
ATOM     11  H   UNL     1     -40.745  20.753   1.005  0.00  0.00    +0.144 HD
ATOM     12  H   UNL     1     -41.045  22.176   1.896  0.00  0.00    +0.144 HD
ENDROOT
BRANCH   9  13
ATOM     13  S   UNL     1     -35.725  19.893   0.560  0.00  0.00    -0.017 S 
ATOM     14  C   UNL     1     -34.427  19.886   1.814  0.00  0.00    +0.087 C 
ENDBRANCH   9  13
BRANCH   1  15
ATOM     15  C   UNL     1     -35.645  24.628   3.540  0.00  0.00    +0.180 C 
BRANCH  15  16
ATOM     16  C   UNL     1     -34.946  23.854   4.667  0.00  0.00    +0.258 C 
BRANCH  16  17
ATOM     17  O   UNL     1     -35.872  23.517   5.703  0.00  0.00    -0.329 OA
BRANCH  17  18
ATOM     18  C   UNL     1     -35.558  22.293   6.356  0.00  0.00    +0.145 C 
ATOM     19  C   UNL     1     -35.058  21.301   5.328  0.00  0.00    +0.035 C 
ENDBRANCH  17  18
ENDBRANCH  16  17
BRANCH  16  20
ATOM     20  O   UNL     1     -33.867  24.660   5.161  0.00  0.00    -0.329 OA
BRANCH  20  21
ATOM     21  C   UNL     1     -34.318  25.882   5.728  0.00  0.00    +0.145 C 
ATOM     22  C   UNL     1     -33.264  26.946   5.506  0.00  0.00    +0.035 C 
ENDBRANCH  20  21
ENDBRANCH  16  20
ENDBRANCH  15  16
ENDBRANCH   1  15
TORSDOF 7
ENDMDL
MODEL 6
REMARK VINA RESULT:      -5.0      2.801      4.207
REMARK  Name = 197350
REMARK  7 active torsions:
REMARK  status: ('A' for Active; 'I' for Inactive)
REMARK    1  A    between atoms: N_1  and  C_15
REMARK    2  A    between atoms: C_9  and  S_13
REMARK    3  A    between atoms: C_15  and  C_16
REMARK    4  A    between atoms: C_16  and  O_17
REMARK    5  A    between atoms: C_16  and  O_20
REMARK    6  A    between atoms: O_17  and  C_18
REMARK    7  A    between atoms: O_20  and  C_21
REMARK                            x       y       z     vdW  Elec       q    Type
REMARK                         _______ _______ _______ _____ _____    ______ ____
ROOT
ATOM      1  N   UNL     1     -35.043  26.109   4.015  0.00  0.00    -0.182 N 
ATOM      2  N   UNL     1     -35.307  26.444   5.281  0.00  0.00    -0.178 NA
ATOM      3  N   UNL     1     -34.942  24.177   2.563  0.00  0.00    -0.322 NA
ATOM      4  N   UNL     1     -35.507  22.134   3.771  0.00  0.00    -0.324 NA
ATOM      5  C   UNL     1     -35.149  24.789   3.740  0.00  0.00    +0.205 C 
ATOM      6  C   UNL     1     -35.520  24.195   4.934  0.00  0.00    +0.179 C 
ATOM      7  C   UNL     1     -35.601  25.267   5.843  0.00  0.00    +0.108 C 
ATOM      8  C   UNL     1     -35.700  22.816   4.925  0.00  0.00    +0.180 C 
ATOM      9  C   UNL     1     -35.146  22.847   2.677  0.00  0.00    +0.170 C 
ATOM     10  N   UNL     1     -36.075  22.130   6.093  0.00  0.00    -0.335 N 
ATOM     11  H   UNL     1     -36.199  21.153   6.072  0.00  0.00    +0.144 HD
ATOM     12  H   UNL     1     -36.213  22.626   6.932  0.00  0.00    +0.144 HD
ENDROOT
BRANCH   9  13
ATOM     13  S   UNL     1     -34.904  21.897   1.183  0.00  0.00    -0.017 S 
ATOM     14  C   UNL     1     -34.885  20.235   1.888  0.00  0.00    +0.087 C 
ENDBRANCH   9  13
BRANCH   1  15
ATOM     15  C   UNL     1     -34.671  27.160   3.068  0.00  0.00    +0.180 C 
BRANCH  15  16
ATOM     16  C   UNL     1     -33.227  27.657   3.232  0.00  0.00    +0.258 C 
BRANCH  16  17
ATOM     17  O   UNL     1     -32.317  26.557   3.320  0.00  0.00    -0.329 OA
BRANCH  17  18
ATOM     18  C   UNL     1     -31.727  26.221   2.072  0.00  0.00    +0.145 C 
ATOM     19  C   UNL     1     -30.325  26.790   2.020  0.00  0.00    +0.035 C 
ENDBRANCH  17  18
ENDBRANCH  16  17
BRANCH  16  20
ATOM     20  O   UNL     1     -33.170  28.487   4.400  0.00  0.00    -0.329 OA
BRANCH  20  21
ATOM     21  C   UNL     1     -31.936  28.364   5.095  0.00  0.00    +0.145 C 
ATOM     22  C   UNL     1     -32.209  27.874   6.501  0.00  0.00    +0.035 C 
ENDBRANCH  20  21
ENDBRANCH  16  20
ENDBRANCH  15  16
ENDBRANCH   1  15
TORSDOF 7
ENDMDL
MODEL 7
REMARK VINA RESULT:      -4.9      1.336      1.637
REMARK  Name = 197350
REMARK  7 active torsions:
REMARK  status: ('A' for Active; 'I' for Inactive)
REMARK    1  A    between atoms: N_1  and  C_15
REMARK    2  A    between atoms: C_9  and  S_13
REMARK    3  A    between atoms: C_15  and  C_16
REMARK    4  A    between atoms: C_16  and  O_17
REMARK    5  A    between atoms: C_16  and  O_20
REMARK    6  A    between atoms: O_17  and  C_18
REMARK    7  A    between atoms: O_20  and  C_21
REMARK                            x       y       z     vdW  Elec       q    Type
REMARK                         _______ _______ _______ _____ _____    ______ ____
ROOT
ATOM      1  N   UNL     1     -36.527  23.275   2.955  0.00  0.00    -0.182 N 
ATOM      2  N   UNL     1     -37.848  23.395   3.121  0.00  0.00    -0.178 NA
ATOM      3  N   UNL     1     -34.893  21.912   1.808  0.00  0.00    -0.322 NA
ATOM      4  N   UNL     1     -35.969  20.152   0.504  0.00  0.00    -0.324 NA
ATOM      5  C   UNL     1     -36.144  22.261   2.148  0.00  0.00    +0.205 C 
ATOM      6  C   UNL     1     -37.318  21.653   1.741  0.00  0.00    +0.179 C 
ATOM      7  C   UNL     1     -38.331  22.397   2.374  0.00  0.00    +0.108 C 
ATOM      8  C   UNL     1     -37.202  20.561   0.887  0.00  0.00    +0.180 C 
ATOM      9  C   UNL     1     -34.906  20.844   0.981  0.00  0.00    +0.170 C 
ATOM     10  N   UNL     1     -38.343  19.882   0.425  0.00  0.00    -0.335 N 
ATOM     11  H   UNL     1     -38.246  19.110  -0.179  0.00  0.00    +0.144 HD
ATOM     12  H   UNL     1     -39.239  20.177   0.705  0.00  0.00    +0.144 HD
ENDROOT
BRANCH   9  13
ATOM     13  S   UNL     1     -33.304  20.262   0.444  0.00  0.00    -0.017 S 
ATOM     14  C   UNL     1     -33.221  18.719   1.379  0.00  0.00    +0.087 C 
ENDBRANCH   9  13
BRANCH   1  15
ATOM     15  C   UNL     1     -35.641  24.218   3.638  0.00  0.00    +0.180 C 
BRANCH  15  16
ATOM     16  C   UNL     1     -35.915  24.342   5.145  0.00  0.00    +0.258 C 
BRANCH  16  17
ATOM     17  O   UNL     1     -35.835  25.706   5.565  0.00  0.00    -0.329 OA
BRANCH  17  18
ATOM     18  C   UNL     1     -34.703  26.387   5.039  0.00  0.00    +0.145 C 
ATOM     19  C   UNL     1     -33.639  26.475   6.112  0.00  0.00    +0.035 C 
ENDBRANCH  17  18
ENDBRANCH  16  17
BRANCH  16  20
ATOM     20  O   UNL     1     -34.971  23.517   5.840  0.00  0.00    -0.329 OA
BRANCH  20  21
ATOM     21  C   UNL     1     -35.563  22.334   6.361  0.00  0.00    +0.145 C 
ATOM     22  C   UNL     1     -35.100  21.149   5.540  0.00  0.00    +0.035 C 
ENDBRANCH  20  21
ENDBRANCH  16  20
ENDBRANCH  15  16
ENDBRANCH   1  15
TORSDOF 7
ENDMDL
MODEL 8
REMARK VINA RESULT:      -4.9      3.239      5.837
REMARK  Name = 197350
REMARK  7 active torsions:
REMARK  status: ('A' for Active; 'I' for Inactive)
REMARK    1  A    between atoms: N_1  and  C_15
REMARK    2  A    between atoms: C_9  and  S_13
REMARK    3  A    between atoms: C_15  and  C_16
REMARK    4  A    between atoms: C_16  and  O_17
REMARK    5  A    between atoms: C_16  and  O_20
REMARK    6  A    between atoms: O_17  and  C_18
REMARK    7  A    between atoms: O_20  and  C_21
REMARK                            x       y       z     vdW  Elec       q    Type
REMARK                         _______ _______ _______ _____ _____    ______ ____
ROOT
ATOM      1  N   UNL     1     -36.408  23.465   3.992  0.00  0.00    -0.182 N 
ATOM      2  N   UNL     1     -36.044  22.803   5.095  0.00  0.00    -0.178 NA
ATOM      3  N   UNL     1     -36.139  25.612   2.914  0.00  0.00    -0.322 NA
ATOM      4  N   UNL     1     -34.741  27.102   4.249  0.00  0.00    -0.324 NA
ATOM      5  C   UNL     1     -35.933  24.728   3.903  0.00  0.00    +0.205 C 
ATOM      6  C   UNL     1     -35.185  24.920   5.051  0.00  0.00    +0.179 C 
ATOM      7  C   UNL     1     -35.293  23.699   5.743  0.00  0.00    +0.108 C 
ATOM      8  C   UNL     1     -34.576  26.160   5.208  0.00  0.00    +0.180 C 
ATOM      9  C   UNL     1     -35.501  26.774   3.176  0.00  0.00    +0.170 C 
ATOM     10  N   UNL     1     -33.798  26.444   6.344  0.00  0.00    -0.335 N 
ATOM     11  H   UNL     1     -33.373  27.327   6.443  0.00  0.00    +0.144 HD
ATOM     12  H   UNL     1     -33.680  25.760   7.043  0.00  0.00    +0.144 HD
ENDROOT
BRANCH   9  13
ATOM     13  S   UNL     1     -35.687  28.053   1.943  0.00  0.00    -0.017 S 
ATOM     14  C   UNL     1     -34.689  29.349   2.707  0.00  0.00    +0.087 C 
ENDBRANCH   9  13
BRANCH   1  15
ATOM     15  C   UNL     1     -37.260  22.791   3.013  0.00  0.00    +0.180 C 
BRANCH  15  16
ATOM     16  C   UNL     1     -36.489  22.211   1.818  0.00  0.00    +0.258 C 
BRANCH  16  17
ATOM     17  O   UNL     1     -37.125  22.558   0.585  0.00  0.00    -0.329 OA
BRANCH  17  18
ATOM     18  C   UNL     1     -36.202  22.856  -0.455  0.00  0.00    +0.145 C 
ATOM     19  C   UNL     1     -34.963  23.480   0.151  0.00  0.00    +0.035 C 
ENDBRANCH  17  18
ENDBRANCH  16  17
BRANCH  16  20
ATOM     20  O   UNL     1     -36.403  20.790   1.989  0.00  0.00    -0.329 OA
BRANCH  20  21
ATOM     21  C   UNL     1     -35.133  20.377   2.476  0.00  0.00    +0.145 C 
ATOM     22  C   UNL     1     -34.307  19.855   1.320  0.00  0.00    +0.035 C 
ENDBRANCH  20  21
ENDBRANCH  16  20
ENDBRANCH  15  16
ENDBRANCH   1  15
TORSDOF 7
ENDMDL
MODEL 9
REMARK VINA RESULT:      -4.8      3.151      6.107
REMARK  Name = 197350
REMARK  7 active torsions:
REMARK  status: ('A' for Active; 'I' for Inactive)
REMARK    1  A    between atoms: N_1  and  C_15
REMARK    2  A    between atoms: C_9  and  S_13
REMARK    3  A    between atoms: C_15  and  C_16
REMARK    4  A    between atoms: C_16  and  O_17
REMARK    5  A    between atoms: C_16  and  O_20
REMARK    6  A    between atoms: O_17  and  C_18
REMARK    7  A    between atoms: O_20  and  C_21
REMARK                            x       y       z     vdW  Elec       q    Type
REMARK                         _______ _______ _______ _____ _____    ______ ____
ROOT
ATOM      1  N   UNL     1     -36.546  23.652   3.895  0.00  0.00    -0.182 N 
ATOM      2  N   UNL     1     -36.230  22.943   4.983  0.00  0.00    -0.178 NA
ATOM      3  N   UNL     1     -36.144  25.807   2.873  0.00  0.00    -0.322 NA
ATOM      4  N   UNL     1     -34.673  27.179   4.253  0.00  0.00    -0.324 NA
ATOM      5  C   UNL     1     -35.998  24.887   3.841  0.00  0.00    +0.205 C 
ATOM      6  C   UNL     1     -35.249  25.007   4.997  0.00  0.00    +0.179 C 
ATOM      7  C   UNL     1     -35.433  23.778   5.658  0.00  0.00    +0.108 C 
ATOM      8  C   UNL     1     -34.570  26.205   5.190  0.00  0.00    +0.180 C 
ATOM      9  C   UNL     1     -35.442  26.922   3.168  0.00  0.00    +0.170 C 
ATOM     10  N   UNL     1     -33.786  26.414   6.338  0.00  0.00    -0.335 N 
ATOM     11  H   UNL     1     -33.311  27.268   6.461  0.00  0.00    +0.144 HD
ATOM     12  H   UNL     1     -33.713  25.708   7.019  0.00  0.00    +0.144 HD
ENDROOT
BRANCH   9  13
ATOM     13  S   UNL     1     -35.544  28.240   1.966  0.00  0.00    -0.017 S 
ATOM     14  C   UNL     1     -34.383  29.408   2.708  0.00  0.00    +0.087 C 
ENDBRANCH   9  13
BRANCH   1  15
ATOM     15  C   UNL     1     -37.429  23.054   2.893  0.00  0.00    +0.180 C 
BRANCH  15  16
ATOM     16  C   UNL     1     -37.034  21.623   2.497  0.00  0.00    +0.258 C 
BRANCH  16  17
ATOM     17  O   UNL     1     -35.681  21.579   2.034  0.00  0.00    -0.329 OA
BRANCH  17  18
ATOM     18  C   UNL     1     -35.060  20.318   2.248  0.00  0.00    +0.145 C 
ATOM     19  C   UNL     1     -34.063  20.065   1.137  0.00  0.00    +0.035 C 
ENDBRANCH  17  18
ENDBRANCH  16  17
BRANCH  16  20
ATOM     20  O   UNL     1     -37.953  21.166   1.496  0.00  0.00    -0.329 OA
BRANCH  20  21
ATOM     21  C   UNL     1     -39.295  21.534   1.782  0.00  0.00    +0.145 C 
ATOM     22  C   UNL     1     -40.129  21.373   0.529  0.00  0.00    +0.035 C 
ENDBRANCH  20  21
ENDBRANCH  16  20
ENDBRANCH  15  16
ENDBRANCH   1  15
TORSDOF 7
ENDMDL
