MODEL 1
REMARK VINA RESULT:      -6.2      0.000      0.000
REMARK  Name = 5280863
REMARK  5 active torsions:
REMARK  status: ('A' for Active; 'I' for Inactive)
REMARK    1  A    between atoms: C_5  and  C_12
REMARK    2  A    between atoms: C_7  and  O_20
REMARK    3  A    between atoms: C_8  and  O_22
REMARK    4  A    between atoms: C_10  and  O_24
REMARK    5  A    between atoms: C_17  and  O_18
REMARK                            x       y       z     vdW  Elec       q    Type
REMARK                         _______ _______ _______ _____ _____    ______ ____
ROOT
ATOM      1  O   UNL     1     -34.963  23.655   3.445  0.00  0.00    -0.450 OA
ATOM      2  O   UNL     1     -38.990  24.271   3.342  0.00  0.00    -0.283 OA
ATOM      3  C   UNL     1     -37.173  22.854   2.839  0.00  0.00    +0.110 A 
ATOM      4  C   UNL     1     -35.789  22.705   2.902  0.00  0.00    +0.155 A 
ATOM      5  C   UNL     1     -35.532  24.807   3.964  0.00  0.00    +0.182 A 
ATOM      6  C   UNL     1     -37.781  24.081   3.375  0.00  0.00    +0.238 A 
ATOM      7  C   UNL     1     -36.850  25.077   3.957  0.00  0.00    +0.208 A 
ATOM      8  C   UNL     1     -37.965  21.852   2.272  0.00  0.00    +0.143 C 
ATOM      9  C   UNL     1     -35.188  21.551   2.398  0.00  0.00    +0.074 C 
ATOM     10  C   UNL     1     -35.975  20.549   1.833  0.00  0.00    +0.140 C 
ATOM     11  C   UNL     1     -37.361  20.699   1.770  0.00  0.00    +0.073 C 
ENDROOT
BRANCH   5  12
ATOM     12  C   UNL     1     -34.535  25.743   4.514  0.00  0.00    +0.038 C 
ATOM     13  C   UNL     1     -33.871  26.632   3.669  0.00  0.00    +0.006 C 
ATOM     14  C   UNL     1     -34.256  25.739   5.881  0.00  0.00    +0.006 C 
ATOM     15  C   UNL     1     -32.928  27.518   4.191  0.00  0.00    +0.037 C 
ATOM     16  C   UNL     1     -33.313  26.625   6.403  0.00  0.00    +0.037 C 
ATOM     17  C   UNL     1     -32.648  27.514   5.556  0.00  0.00    +0.134 C 
BRANCH  17  18
ATOM     18  O   UNL     1     -31.728  28.379   6.065  0.00  0.00    -0.506 OA
ATOM     19  H   UNL     1     -30.874  28.430   5.685  0.00  0.00    +0.292 HD
ENDBRANCH  17  18
ENDBRANCH   5  12
BRANCH   7  20
ATOM     20  O   UNL     1     -37.381  26.250   4.451  0.00  0.00    -0.501 OA
ATOM     21  H   UNL     1     -37.372  26.416   5.373  0.00  0.00    +0.292 HD
ENDBRANCH   7  20
BRANCH   8  22
ATOM     22  O   UNL     1     -39.321  21.949   2.186  0.00  0.00    -0.505 OA
ATOM     23  H   UNL     1     -39.724  22.177   1.372  0.00  0.00    +0.292 HD
ENDBRANCH   8  22
BRANCH  10  24
ATOM     24  O   UNL     1     -35.391  19.422   1.340  0.00  0.00    -0.505 OA
ATOM     25  H   UNL     1     -35.786  18.965   0.623  0.00  0.00    +0.292 HD
ENDBRANCH  10  24
TORSDOF 5
ENDMDL
MODEL 2
REMARK VINA RESULT:      -5.9      1.495      2.212
REMARK  Name = 5280863
REMARK  5 active torsions:
REMARK  status: ('A' for Active; 'I' for Inactive)
REMARK    1  A    between atoms: C_5  and  C_12
REMARK    2  A    between atoms: C_7  and  O_20
REMARK    3  A    between atoms: C_8  and  O_22
REMARK    4  A    between atoms: C_10  and  O_24
REMARK    5  A    between atoms: C_17  and  O_18
REMARK                            x       y       z     vdW  Elec       q    Type
REMARK                         _______ _______ _______ _____ _____    ______ ____
ROOT
ATOM      1  O   UNL     1     -34.489  24.784   4.287  0.00  0.00    -0.450 OA
ATOM      2  O   UNL     1     -37.424  26.537   2.070  0.00  0.00    -0.283 OA
ATOM      3  C   UNL     1     -36.434  24.546   2.854  0.00  0.00    +0.110 A 
ATOM      4  C   UNL     1     -35.406  24.009   3.626  0.00  0.00    +0.155 A 
ATOM      5  C   UNL     1     -34.597  26.162   4.192  0.00  0.00    +0.182 A 
ATOM      6  C   UNL     1     -36.546  26.008   2.738  0.00  0.00    +0.238 A 
ATOM      7  C   UNL     1     -35.536  26.806   3.474  0.00  0.00    +0.208 A 
ATOM      8  C   UNL     1     -37.339  23.705   2.202  0.00  0.00    +0.143 C 
ATOM      9  C   UNL     1     -35.276  22.624   3.750  0.00  0.00    +0.074 C 
ATOM     10  C   UNL     1     -36.178  21.782   3.101  0.00  0.00    +0.140 C 
ATOM     11  C   UNL     1     -37.208  22.322   2.328  0.00  0.00    +0.073 C 
ENDROOT
BRANCH   5  12
ATOM     12  C   UNL     1     -33.552  26.875   4.947  0.00  0.00    +0.038 C 
ATOM     13  C   UNL     1     -33.438  26.691   6.325  0.00  0.00    +0.006 C 
ATOM     14  C   UNL     1     -32.674  27.732   4.284  0.00  0.00    +0.006 C 
ATOM     15  C   UNL     1     -32.448  27.365   7.040  0.00  0.00    +0.037 C 
ATOM     16  C   UNL     1     -31.683  28.406   4.998  0.00  0.00    +0.037 C 
ATOM     17  C   UNL     1     -31.571  28.222   6.377  0.00  0.00    +0.134 C 
BRANCH  17  18
ATOM     18  O   UNL     1     -30.604  28.880   7.075  0.00  0.00    -0.506 OA
ATOM     19  H   UNL     1     -30.669  28.957   8.006  0.00  0.00    +0.292 HD
ENDBRANCH  17  18
ENDBRANCH   5  12
BRANCH   7  20
ATOM     20  O   UNL     1     -35.596  28.179   3.373  0.00  0.00    -0.501 OA
ATOM     21  H   UNL     1     -36.380  28.593   3.070  0.00  0.00    +0.292 HD
ENDBRANCH   7  20
BRANCH   8  22
ATOM     22  O   UNL     1     -38.361  24.180   1.435  0.00  0.00    -0.505 OA
ATOM     23  H   UNL     1     -39.100  24.589   1.841  0.00  0.00    +0.292 HD
ENDBRANCH   8  22
BRANCH  10  24
ATOM     24  O   UNL     1     -36.055  20.432   3.219  0.00  0.00    -0.505 OA
ATOM     25  H   UNL     1     -36.179  19.883   2.470  0.00  0.00    +0.292 HD
ENDBRANCH  10  24
TORSDOF 5
ENDMDL
MODEL 3
REMARK VINA RESULT:      -5.9      1.460      2.276
REMARK  Name = 5280863
REMARK  5 active torsions:
REMARK  status: ('A' for Active; 'I' for Inactive)
REMARK    1  A    between atoms: C_5  and  C_12
REMARK    2  A    between atoms: C_7  and  O_20
REMARK    3  A    between atoms: C_8  and  O_22
REMARK    4  A    between atoms: C_10  and  O_24
REMARK    5  A    between atoms: C_17  and  O_18
REMARK                            x       y       z     vdW  Elec       q    Type
REMARK                         _______ _______ _______ _____ _____    ______ ____
ROOT
ATOM      1  O   UNL     1     -35.055  22.102   2.545  0.00  0.00    -0.450 OA
ATOM      2  O   UNL     1     -39.054  21.841   1.809  0.00  0.00    -0.283 OA
ATOM      3  C   UNL     1     -36.900  20.941   1.478  0.00  0.00    +0.110 A 
ATOM      4  C   UNL     1     -35.544  21.087   1.766  0.00  0.00    +0.155 A 
ATOM      5  C   UNL     1     -35.949  23.016   3.080  0.00  0.00    +0.182 A 
ATOM      6  C   UNL     1     -37.853  21.915   2.032  0.00  0.00    +0.238 A 
ATOM      7  C   UNL     1     -37.279  22.992   2.873  0.00  0.00    +0.208 A 
ATOM      8  C   UNL     1     -37.341  19.885   0.676  0.00  0.00    +0.143 C 
ATOM      9  C   UNL     1     -34.619  20.177   1.251  0.00  0.00    +0.074 C 
ATOM     10  C   UNL     1     -35.056  19.122   0.450  0.00  0.00    +0.140 C 
ATOM     11  C   UNL     1     -36.414  18.976   0.163  0.00  0.00    +0.073 C 
ENDROOT
BRANCH   5  12
ATOM     12  C   UNL     1     -35.293  24.053   3.896  0.00  0.00    +0.038 C 
ATOM     13  C   UNL     1     -34.431  24.971   3.295  0.00  0.00    +0.006 C 
ATOM     14  C   UNL     1     -35.536  24.119   5.268  0.00  0.00    +0.006 C 
ATOM     15  C   UNL     1     -33.810  25.953   4.067  0.00  0.00    +0.037 C 
ATOM     16  C   UNL     1     -34.916  25.102   6.039  0.00  0.00    +0.037 C 
ATOM     17  C   UNL     1     -34.052  26.019   5.439  0.00  0.00    +0.134 C 
BRANCH  17  18
ATOM     18  O   UNL     1     -33.447  26.978   6.192  0.00  0.00    -0.506 OA
ATOM     19  H   UNL     1     -33.742  27.141   7.066  0.00  0.00    +0.292 HD
ENDBRANCH  17  18
ENDBRANCH   5  12
BRANCH   7  20
ATOM     20  O   UNL     1     -38.138  23.937   3.392  0.00  0.00    -0.501 OA
ATOM     21  H   UNL     1     -38.639  24.482   2.817  0.00  0.00    +0.292 HD
ENDBRANCH   7  20
BRANCH   8  22
ATOM     22  O   UNL     1     -38.654  19.698   0.365  0.00  0.00    -0.505 OA
ATOM     23  H   UNL     1     -39.298  20.310   0.663  0.00  0.00    +0.292 HD
ENDBRANCH   8  22
BRANCH  10  24
ATOM     24  O   UNL     1     -34.157  18.233  -0.054  0.00  0.00    -0.505 OA
ATOM     25  H   UNL     1     -34.282  17.314   0.082  0.00  0.00    +0.292 HD
ENDBRANCH  10  24
TORSDOF 5
ENDMDL
MODEL 4
REMARK VINA RESULT:      -5.9      3.682      6.744
REMARK  Name = 5280863
REMARK  5 active torsions:
REMARK  status: ('A' for Active; 'I' for Inactive)
REMARK    1  A    between atoms: C_5  and  C_12
REMARK    2  A    between atoms: C_7  and  O_20
REMARK    3  A    between atoms: C_8  and  O_22
REMARK    4  A    between atoms: C_10  and  O_24
REMARK    5  A    between atoms: C_17  and  O_18
REMARK                            x       y       z     vdW  Elec       q    Type
REMARK                         _______ _______ _______ _____ _____    ______ ____
ROOT
ATOM      1  O   UNL     1     -34.780  20.898   1.696  0.00  0.00    -0.450 OA
ATOM      2  O   UNL     1     -37.935  19.081  -0.134  0.00  0.00    -0.283 OA
ATOM      3  C   UNL     1     -37.173  20.785   1.307  0.00  0.00    +0.110 A 
ATOM      4  C   UNL     1     -36.053  21.360   1.903  0.00  0.00    +0.155 A 
ATOM      5  C   UNL     1     -34.598  19.818   0.846  0.00  0.00    +0.182 A 
ATOM      6  C   UNL     1     -36.989  19.631   0.414  0.00  0.00    +0.238 A 
ATOM      7  C   UNL     1     -35.594  19.168   0.216  0.00  0.00    +0.208 A 
ATOM      8  C   UNL     1     -38.448  21.300   1.556  0.00  0.00    +0.143 C 
ATOM      9  C   UNL     1     -36.201  22.456   2.756  0.00  0.00    +0.074 C 
ATOM     10  C   UNL     1     -37.472  22.972   3.007  0.00  0.00    +0.140 C 
ATOM     11  C   UNL     1     -38.593  22.396   2.408  0.00  0.00    +0.073 C 
ENDROOT
BRANCH   5  12
ATOM     12  C   UNL     1     -33.185  19.422   0.713  0.00  0.00    +0.038 C 
ATOM     13  C   UNL     1     -32.309  20.206  -0.038  0.00  0.00    +0.006 C 
ATOM     14  C   UNL     1     -32.723  18.264   1.338  0.00  0.00    +0.006 C 
ATOM     15  C   UNL     1     -30.971  19.832  -0.164  0.00  0.00    +0.037 C 
ATOM     16  C   UNL     1     -31.386  17.889   1.212  0.00  0.00    +0.037 C 
ATOM     17  C   UNL     1     -30.510  18.674   0.460  0.00  0.00    +0.134 C 
BRANCH  17  18
ATOM     18  O   UNL     1     -29.204  18.308   0.338  0.00  0.00    -0.506 OA
ATOM     19  H   UNL     1     -28.983  17.477  -0.033  0.00  0.00    +0.292 HD
ENDBRANCH  17  18
ENDBRANCH   5  12
BRANCH   7  20
ATOM     20  O   UNL     1     -35.383  18.075  -0.598  0.00  0.00    -0.501 OA
ATOM     21  H   UNL     1     -34.813  17.386  -0.318  0.00  0.00    +0.292 HD
ENDBRANCH   7  20
BRANCH   8  22
ATOM     22  O   UNL     1     -39.574  20.775   0.998  0.00  0.00    -0.505 OA
ATOM     23  H   UNL     1     -39.892  21.108   0.182  0.00  0.00    +0.292 HD
ENDBRANCH   8  22
BRANCH  10  24
ATOM     24  O   UNL     1     -37.620  24.040   3.838  0.00  0.00    -0.505 OA
ATOM     25  H   UNL     1     -38.438  24.186   4.271  0.00  0.00    +0.292 HD
ENDBRANCH  10  24
TORSDOF 5
ENDMDL
MODEL 5
REMARK VINA RESULT:      -5.9      1.455      2.492
REMARK  Name = 5280863
REMARK  5 active torsions:
REMARK  status: ('A' for Active; 'I' for Inactive)
REMARK    1  A    between atoms: C_5  and  C_12
REMARK    2  A    between atoms: C_7  and  O_20
REMARK    3  A    between atoms: C_8  and  O_22
REMARK    4  A    between atoms: C_10  and  O_24
REMARK    5  A    between atoms: C_17  and  O_18
REMARK                            x       y       z     vdW  Elec       q    Type
REMARK                         _______ _______ _______ _____ _____    ______ ____
ROOT
ATOM      1  O   UNL     1     -35.063  22.109   2.543  0.00  0.00    -0.450 OA
ATOM      2  O   UNL     1     -39.064  21.849   1.813  0.00  0.00    -0.283 OA
ATOM      3  C   UNL     1     -36.910  20.949   1.479  0.00  0.00    +0.110 A 
ATOM      4  C   UNL     1     -35.555  21.094   1.764  0.00  0.00    +0.155 A 
ATOM      5  C   UNL     1     -35.957  23.023   3.079  0.00  0.00    +0.182 A 
ATOM      6  C   UNL     1     -37.862  21.922   2.034  0.00  0.00    +0.238 A 
ATOM      7  C   UNL     1     -37.287  23.000   2.874  0.00  0.00    +0.208 A 
ATOM      8  C   UNL     1     -37.353  19.893   0.677  0.00  0.00    +0.143 C 
ATOM      9  C   UNL     1     -34.631  20.184   1.248  0.00  0.00    +0.074 C 
ATOM     10  C   UNL     1     -35.069  19.130   0.447  0.00  0.00    +0.140 C 
ATOM     11  C   UNL     1     -36.428  18.984   0.163  0.00  0.00    +0.073 C 
ENDROOT
BRANCH   5  12
ATOM     12  C   UNL     1     -35.299  24.060   3.894  0.00  0.00    +0.038 C 
ATOM     13  C   UNL     1     -35.544  24.130   5.265  0.00  0.00    +0.006 C 
ATOM     14  C   UNL     1     -34.431  24.972   3.293  0.00  0.00    +0.006 C 
ATOM     15  C   UNL     1     -34.921  25.111   6.036  0.00  0.00    +0.037 C 
ATOM     16  C   UNL     1     -33.808  25.954   4.064  0.00  0.00    +0.037 C 
ATOM     17  C   UNL     1     -34.054  26.023   5.436  0.00  0.00    +0.134 C 
BRANCH  17  18
ATOM     18  O   UNL     1     -33.445  26.981   6.189  0.00  0.00    -0.506 OA
ATOM     19  H   UNL     1     -33.242  26.811   7.087  0.00  0.00    +0.292 HD
ENDBRANCH  17  18
ENDBRANCH   5  12
BRANCH   7  20
ATOM     20  O   UNL     1     -38.145  23.945   3.395  0.00  0.00    -0.501 OA
ATOM     21  H   UNL     1     -37.802  24.704   3.823  0.00  0.00    +0.292 HD
ENDBRANCH   7  20
BRANCH   8  22
ATOM     22  O   UNL     1     -38.667  19.706   0.368  0.00  0.00    -0.505 OA
ATOM     23  H   UNL     1     -38.997  19.982  -0.464  0.00  0.00    +0.292 HD
ENDBRANCH   8  22
BRANCH  10  24
ATOM     24  O   UNL     1     -34.170  18.240  -0.058  0.00  0.00    -0.505 OA
ATOM     25  H   UNL     1     -33.931  18.281  -0.963  0.00  0.00    +0.292 HD
ENDBRANCH  10  24
TORSDOF 5
ENDMDL
MODEL 6
REMARK VINA RESULT:      -5.8      2.853      6.206
REMARK  Name = 5280863
REMARK  5 active torsions:
REMARK  status: ('A' for Active; 'I' for Inactive)
REMARK    1  A    between atoms: C_5  and  C_12
REMARK    2  A    between atoms: C_7  and  O_20
REMARK    3  A    between atoms: C_8  and  O_22
REMARK    4  A    between atoms: C_10  and  O_24
REMARK    5  A    between atoms: C_17  and  O_18
REMARK                            x       y       z     vdW  Elec       q    Type
REMARK                         _______ _______ _______ _____ _____    ______ ____
ROOT
ATOM      1  O   UNL     1     -35.313  22.212   2.193  0.00  0.00    -0.450 OA
ATOM      2  O   UNL     1     -38.970  20.985   0.881  0.00  0.00    -0.283 OA
ATOM      3  C   UNL     1     -37.715  22.552   2.118  0.00  0.00    +0.110 A 
ATOM      4  C   UNL     1     -36.437  22.917   2.535  0.00  0.00    +0.155 A 
ATOM      5  C   UNL     1     -35.454  21.093   1.387  0.00  0.00    +0.182 A 
ATOM      6  C   UNL     1     -37.873  21.358   1.273  0.00  0.00    +0.238 A 
ATOM      7  C   UNL     1     -36.629  20.629   0.925  0.00  0.00    +0.208 A 
ATOM      8  C   UNL     1     -38.825  23.309   2.499  0.00  0.00    +0.143 C 
ATOM      9  C   UNL     1     -36.261  24.045   3.339  0.00  0.00    +0.074 C 
ATOM     10  C   UNL     1     -37.366  24.803   3.722  0.00  0.00    +0.140 C 
ATOM     11  C   UNL     1     -38.646  24.437   3.302  0.00  0.00    +0.073 C 
ENDROOT
BRANCH   5  12
ATOM     12  C   UNL     1     -34.171  20.429   1.096  0.00  0.00    +0.038 C 
ATOM     13  C   UNL     1     -33.883  19.187   1.664  0.00  0.00    +0.006 C 
ATOM     14  C   UNL     1     -33.245  21.040   0.251  0.00  0.00    +0.006 C 
ATOM     15  C   UNL     1     -32.669  18.558   1.388  0.00  0.00    +0.037 C 
ATOM     16  C   UNL     1     -32.031  20.411  -0.025  0.00  0.00    +0.037 C 
ATOM     17  C   UNL     1     -31.743  19.170   0.544  0.00  0.00    +0.134 C 
BRANCH  17  18
ATOM     18  O   UNL     1     -30.559  18.555   0.274  0.00  0.00    -0.506 OA
ATOM     19  H   UNL     1     -30.540  17.796  -0.274  0.00  0.00    +0.292 HD
ENDBRANCH  17  18
ENDBRANCH   5  12
BRANCH   7  20
ATOM     20  O   UNL     1     -36.739  19.493   0.151  0.00  0.00    -0.501 OA
ATOM     21  H   UNL     1     -37.177  19.530  -0.676  0.00  0.00    +0.292 HD
ENDBRANCH   7  20
BRANCH   8  22
ATOM     22  O   UNL     1     -40.095  22.995   2.119  0.00  0.00    -0.505 OA
ATOM     23  H   UNL     1     -40.606  23.613   1.635  0.00  0.00    +0.292 HD
ENDBRANCH   8  22
BRANCH  10  24
ATOM     24  O   UNL     1     -37.198  25.904   4.506  0.00  0.00    -0.505 OA
ATOM     25  H   UNL     1     -36.532  25.911   5.165  0.00  0.00    +0.292 HD
ENDBRANCH  10  24
TORSDOF 5
ENDMDL
MODEL 7
REMARK VINA RESULT:      -5.8      2.487      7.308
REMARK  Name = 5280863
REMARK  5 active torsions:
REMARK  status: ('A' for Active; 'I' for Inactive)
REMARK    1  A    between atoms: C_5  and  C_12
REMARK    2  A    between atoms: C_7  and  O_20
REMARK    3  A    between atoms: C_8  and  O_22
REMARK    4  A    between atoms: C_10  and  O_24
REMARK    5  A    between atoms: C_17  and  O_18
REMARK                            x       y       z     vdW  Elec       q    Type
REMARK                         _______ _______ _______ _____ _____    ______ ____
ROOT
ATOM      1  O   UNL     1     -37.653  23.199   2.194  0.00  0.00    -0.450 OA
ATOM      2  O   UNL     1     -35.180  20.517   4.009  0.00  0.00    -0.283 OA
ATOM      3  C   UNL     1     -36.073  22.698   3.968  0.00  0.00    +0.110 A 
ATOM      4  C   UNL     1     -36.934  23.568   3.301  0.00  0.00    +0.155 A 
ATOM      5  C   UNL     1     -37.527  21.900   1.726  0.00  0.00    +0.182 A 
ATOM      6  C   UNL     1     -35.925  21.323   3.468  0.00  0.00    +0.238 A 
ATOM      7  C   UNL     1     -36.725  20.967   2.272  0.00  0.00    +0.208 A 
ATOM      8  C   UNL     1     -35.365  23.131   5.092  0.00  0.00    +0.143 C 
ATOM      9  C   UNL     1     -37.091  24.879   3.754  0.00  0.00    +0.074 C 
ATOM     10  C   UNL     1     -36.386  25.314   4.876  0.00  0.00    +0.140 C 
ATOM     11  C   UNL     1     -35.525  24.442   5.544  0.00  0.00    +0.073 C 
ENDROOT
BRANCH   5  12
ATOM     12  C   UNL     1     -38.351  21.636   0.533  0.00  0.00    +0.038 C 
ATOM     13  C   UNL     1     -37.804  21.792  -0.741  0.00  0.00    +0.006 C 
ATOM     14  C   UNL     1     -39.677  21.229   0.678  0.00  0.00    +0.006 C 
ATOM     15  C   UNL     1     -38.584  21.542  -1.870  0.00  0.00    +0.037 C 
ATOM     16  C   UNL     1     -40.457  20.979  -0.451  0.00  0.00    +0.037 C 
ATOM     17  C   UNL     1     -39.910  21.136  -1.725  0.00  0.00    +0.134 C 
BRANCH  17  18
ATOM     18  O   UNL     1     -40.671  20.890  -2.827  0.00  0.00    -0.506 OA
ATOM     19  H   UNL     1     -40.296  20.966  -3.682  0.00  0.00    +0.292 HD
ENDBRANCH  17  18
ENDBRANCH   5  12
BRANCH   7  20
ATOM     20  O   UNL     1     -36.597  19.693   1.761  0.00  0.00    -0.501 OA
ATOM     21  H   UNL     1     -37.360  19.174   1.601  0.00  0.00    +0.292 HD
ENDBRANCH   7  20
BRANCH   8  22
ATOM     22  O   UNL     1     -34.512  22.321   5.779  0.00  0.00    -0.505 OA
ATOM     23  H   UNL     1     -33.588  22.387   5.640  0.00  0.00    +0.292 HD
ENDBRANCH   8  22
BRANCH  10  24
ATOM     24  O   UNL     1     -36.536  26.592   5.320  0.00  0.00    -0.505 OA
ATOM     25  H   UNL     1     -37.048  26.763   6.086  0.00  0.00    +0.292 HD
ENDBRANCH  10  24
TORSDOF 5
ENDMDL
MODEL 8
REMARK VINA RESULT:      -5.7      2.666      6.279
REMARK  Name = 5280863
REMARK  5 active torsions:
REMARK  status: ('A' for Active; 'I' for Inactive)
REMARK    1  A    between atoms: C_5  and  C_12
REMARK    2  A    between atoms: C_7  and  O_20
REMARK    3  A    between atoms: C_8  and  O_22
REMARK    4  A    between atoms: C_10  and  O_24
REMARK    5  A    between atoms: C_17  and  O_18
REMARK                            x       y       z     vdW  Elec       q    Type
REMARK                         _______ _______ _______ _____ _____    ______ ____
ROOT
ATOM      1  O   UNL     1     -34.289  26.355   3.741  0.00  0.00    -0.450 OA
ATOM      2  O   UNL     1     -37.360  27.841   1.512  0.00  0.00    -0.283 OA
ATOM      3  C   UNL     1     -35.220  28.182   2.441  0.00  0.00    +0.110 A 
ATOM      4  C   UNL     1     -34.207  27.617   3.213  0.00  0.00    +0.155 A 
ATOM      5  C   UNL     1     -35.426  25.605   3.485  0.00  0.00    +0.182 A 
ATOM      6  C   UNL     1     -36.435  27.396   2.178  0.00  0.00    +0.238 A 
ATOM      7  C   UNL     1     -36.478  26.035   2.765  0.00  0.00    +0.208 A 
ATOM      8  C   UNL     1     -35.080  29.475   1.930  0.00  0.00    +0.143 C 
ATOM      9  C   UNL     1     -33.044  28.344   3.479  0.00  0.00    +0.074 C 
ATOM     10  C   UNL     1     -32.901  29.634   2.970  0.00  0.00    +0.140 C 
ATOM     11  C   UNL     1     -33.917  30.198   2.196  0.00  0.00    +0.073 C 
ENDROOT
BRANCH   5  12
ATOM     12  C   UNL     1     -35.387  24.271   4.110  0.00  0.00    +0.038 C 
ATOM     13  C   UNL     1     -35.295  23.129   3.314  0.00  0.00    +0.006 C 
ATOM     14  C   UNL     1     -35.442  24.150   5.499  0.00  0.00    +0.006 C 
ATOM     15  C   UNL     1     -35.257  21.867   3.905  0.00  0.00    +0.037 C 
ATOM     16  C   UNL     1     -35.404  22.887   6.091  0.00  0.00    +0.037 C 
ATOM     17  C   UNL     1     -35.312  21.745   5.293  0.00  0.00    +0.134 C 
BRANCH  17  18
ATOM     18  O   UNL     1     -35.275  20.513   5.871  0.00  0.00    -0.506 OA
ATOM     19  H   UNL     1     -36.049  19.986   5.900  0.00  0.00    +0.292 HD
ENDBRANCH  17  18
ENDBRANCH   5  12
BRANCH   7  20
ATOM     20  O   UNL     1     -37.610  25.275   2.557  0.00  0.00    -0.501 OA
ATOM     21  H   UNL     1     -38.450  25.688   2.516  0.00  0.00    +0.292 HD
ENDBRANCH   7  20
BRANCH   8  22
ATOM     22  O   UNL     1     -36.040  30.072   1.171  0.00  0.00    -0.505 OA
ATOM     23  H   UNL     1     -36.353  30.926   1.397  0.00  0.00    +0.292 HD
ENDBRANCH   8  22
BRANCH  10  24
ATOM     24  O   UNL     1     -31.769  30.345   3.227  0.00  0.00    -0.505 OA
ATOM     25  H   UNL     1     -31.601  31.141   2.763  0.00  0.00    +0.292 HD
ENDBRANCH  10  24
TORSDOF 5
ENDMDL
MODEL 9
REMARK VINA RESULT:      -5.7      2.858      8.018
REMARK  Name = 5280863
REMARK  5 active torsions:
REMARK  status: ('A' for Active; 'I' for Inactive)
REMARK    1  A    between atoms: C_5  and  C_12
REMARK    2  A    between atoms: C_7  and  O_20
REMARK    3  A    between atoms: C_8  and  O_22
REMARK    4  A    between atoms: C_10  and  O_24
REMARK    5  A    between atoms: C_17  and  O_18
REMARK                            x       y       z     vdW  Elec       q    Type
REMARK                         _______ _______ _______ _____ _____    ______ ____
ROOT
ATOM      1  O   UNL     1     -33.727  28.164   3.791  0.00  0.00    -0.450 OA
ATOM      2  O   UNL     1     -30.964  29.279   6.570  0.00  0.00    -0.283 OA
ATOM      3  C   UNL     1     -32.103  29.791   4.570  0.00  0.00    +0.110 A 
ATOM      4  C   UNL     1     -33.057  29.352   3.655  0.00  0.00    +0.155 A 
ATOM      5  C   UNL     1     -33.452  27.372   4.894  0.00  0.00    +0.182 A 
ATOM      6  C   UNL     1     -31.796  28.949   5.736  0.00  0.00    +0.238 A 
ATOM      7  C   UNL     1     -32.548  27.676   5.845  0.00  0.00    +0.208 A 
ATOM      8  C   UNL     1     -31.451  31.012   4.379  0.00  0.00    +0.143 C 
ATOM      9  C   UNL     1     -33.365  30.133   2.539  0.00  0.00    +0.074 C 
ATOM     10  C   UNL     1     -32.716  31.351   2.345  0.00  0.00    +0.140 C 
ATOM     11  C   UNL     1     -31.761  31.791   3.263  0.00  0.00    +0.073 C 
ENDROOT
BRANCH   5  12
ATOM     12  C   UNL     1     -34.238  26.126   4.919  0.00  0.00    +0.038 C 
ATOM     13  C   UNL     1     -35.460  26.086   5.590  0.00  0.00    +0.006 C 
ATOM     14  C   UNL     1     -33.761  24.988   4.269  0.00  0.00    +0.006 C 
ATOM     15  C   UNL     1     -36.205  24.906   5.613  0.00  0.00    +0.037 C 
ATOM     16  C   UNL     1     -34.506  23.808   4.291  0.00  0.00    +0.037 C 
ATOM     17  C   UNL     1     -35.728  23.768   4.964  0.00  0.00    +0.134 C 
BRANCH  17  18
ATOM     18  O   UNL     1     -36.455  22.617   4.986  0.00  0.00    -0.506 OA
ATOM     19  H   UNL     1     -37.378  22.644   4.826  0.00  0.00    +0.292 HD
ENDBRANCH  17  18
ENDBRANCH   5  12
BRANCH   7  20
ATOM     20  O   UNL     1     -32.273  26.849   6.913  0.00  0.00    -0.501 OA
ATOM     21  H   UNL     1     -32.881  26.783   7.623  0.00  0.00    +0.292 HD
ENDBRANCH   7  20
BRANCH   8  22
ATOM     22  O   UNL     1     -30.511  31.486   5.243  0.00  0.00    -0.505 OA
ATOM     23  H   UNL     1     -29.808  32.018   4.926  0.00  0.00    +0.292 HD
ENDBRANCH   8  22
BRANCH  10  24
ATOM     24  O   UNL     1     -33.014  32.115   1.258  0.00  0.00    -0.505 OA
ATOM     25  H   UNL     1     -33.894  32.406   1.117  0.00  0.00    +0.292 HD
ENDBRANCH  10  24
TORSDOF 5
ENDMDL
