MODEL 1
REMARK VINA RESULT:      -5.9      0.000      0.000
REMARK  Name = 514186
REMARK  7 active torsions:
REMARK  status: ('A' for Active; 'I' for Inactive)
REMARK    1  A    between atoms: C_1  and  C_12
REMARK    2  A    between atoms: C_6  and  O_7
REMARK    3  A    between atoms: O_7  and  S_8
REMARK    4  A    between atoms: C_12  and  CA_13
REMARK    5  A    between atoms: CA_13  and  N_14
REMARK    6  A    between atoms: CA_13  and  C_19
REMARK    7  A    between atoms: C_19  and  O_20
REMARK                            x       y       z     vdW  Elec       q    Type
REMARK                         _______ _______ _______ _____ _____    ______ ____
ROOT
ATOM      1  C   UNL     1     -35.055  23.756   4.450  0.00  0.00    -0.024 C 
ATOM      2  C   UNL     1     -34.389  24.329   3.379  0.00  0.00    -0.001 C 
ATOM      3  C   UNL     1     -35.294  24.465   5.614  0.00  0.00    -0.001 C 
ATOM      4  C   UNL     1     -33.950  25.650   3.476  0.00  0.00    +0.040 C 
ATOM      5  C   UNL     1     -34.855  25.786   5.712  0.00  0.00    +0.040 C 
ATOM      6  C   UNL     1     -34.183  26.378   4.642  0.00  0.00    +0.176 C 
ENDROOT
BRANCH   6   7
ATOM      7  O   UNL     1     -33.755  27.666   4.736  0.00  0.00    -0.322 OA
BRANCH   7   8
ATOM      8  S   UNL     1     -32.261  27.966   5.353  0.00  0.00    +0.282 S 
ATOM      9  O   UNL     1     -32.314  29.549   5.753  0.00  0.00    -0.012 OA
ATOM     10  O   UNL     1     -32.093  27.202   6.575  0.00  0.00    -0.105 OA
ATOM     11  O   UNL     1     -31.301  27.825   4.273  0.00  0.00    -0.105 OA
ENDBRANCH   7   8
ENDBRANCH   6   7
BRANCH   1  12
ATOM     12  C   UNL     1     -35.530  22.326   4.345  0.00  0.00    +0.015 C 
BRANCH  12  13
ATOM     13  CA  UNL     1     -36.119  21.991   2.966  0.00  0.00    +0.040 C 
BRANCH  13  14
ATOM     14  N   UNL     1     -37.575  22.109   3.006  0.00  0.00    +0.389 N 
ATOM     15  H1  UNL     1     -37.835  23.095   3.007  0.00  0.00    -0.088 HD
ATOM     16  H2  UNL     1     -37.927  21.664   3.853  0.00  0.00    -0.088 HD
ATOM     17  H3  UNL     1     -37.976  21.651   2.188  0.00  0.00    -0.088 HD
ENDBRANCH  13  14
BRANCH  13  19
ATOM     18  OXT UNL     1     -34.707  20.161   2.199  0.00  0.00    -0.253 OA
ATOM     19  C   UNL     1     -35.810  20.565   2.544  0.00  0.00    +0.293 C 
BRANCH  19  20
ATOM     20  O   UNL     1     -36.897  19.755   2.623  0.00  0.00    -0.482 OA
ATOM     21  H   UNL     1     -37.478  19.819   3.357  0.00  0.00    +0.295 HD
ENDBRANCH  19  20
ENDBRANCH  13  19
ENDBRANCH  12  13
ENDBRANCH   1  12
TORSDOF 7
ENDMDL
MODEL 2
REMARK VINA RESULT:      -5.6      1.844      2.700
REMARK  Name = 514186
REMARK  7 active torsions:
REMARK  status: ('A' for Active; 'I' for Inactive)
REMARK    1  A    between atoms: C_1  and  C_12
REMARK    2  A    between atoms: C_6  and  O_7
REMARK    3  A    between atoms: O_7  and  S_8
REMARK    4  A    between atoms: C_12  and  CA_13
REMARK    5  A    between atoms: CA_13  and  N_14
REMARK    6  A    between atoms: CA_13  and  C_19
REMARK    7  A    between atoms: C_19  and  O_20
REMARK                            x       y       z     vdW  Elec       q    Type
REMARK                         _______ _______ _______ _____ _____    ______ ____
ROOT
ATOM      1  C   UNL     1     -35.040  25.190   4.765  0.00  0.00    -0.024 C 
ATOM      2  C   UNL     1     -34.590  25.757   5.947  0.00  0.00    -0.001 C 
ATOM      3  C   UNL     1     -34.454  25.496   3.549  0.00  0.00    -0.001 C 
ATOM      4  C   UNL     1     -33.523  26.655   5.909  0.00  0.00    +0.040 C 
ATOM      5  C   UNL     1     -33.388  26.394   3.511  0.00  0.00    +0.040 C 
ATOM      6  C   UNL     1     -32.922  26.973   4.692  0.00  0.00    +0.176 C 
ENDROOT
BRANCH   6   7
ATOM      7  O   UNL     1     -31.881  27.849   4.656  0.00  0.00    -0.322 OA
BRANCH   7   8
ATOM      8  S   UNL     1     -32.193  29.461   4.746  0.00  0.00    +0.282 S 
ATOM      9  O   UNL     1     -30.907  30.149   4.012  0.00  0.00    -0.012 OA
ATOM     10  O   UNL     1     -33.372  29.758   3.952  0.00  0.00    -0.105 OA
ATOM     11  O   UNL     1     -32.148  29.842   6.145  0.00  0.00    -0.105 OA
ENDBRANCH   7   8
ENDBRANCH   6   7
BRANCH   1  12
ATOM     12  C   UNL     1     -36.195  24.217   4.806  0.00  0.00    +0.015 C 
BRANCH  12  13
ATOM     13  CA  UNL     1     -35.794  22.794   4.388  0.00  0.00    +0.040 C 
BRANCH  13  14
ATOM     14  N   UNL     1     -36.862  22.192   3.592  0.00  0.00    +0.389 N 
ATOM     15  H1  UNL     1     -36.499  21.377   3.098  0.00  0.00    -0.088 HD
ATOM     16  H2  UNL     1     -37.205  22.874   2.915  0.00  0.00    -0.088 HD
ATOM     17  H3  UNL     1     -37.625  21.908   4.205  0.00  0.00    -0.088 HD
ENDBRANCH  13  14
BRANCH  13  19
ATOM     18  OXT UNL     1     -35.834  22.186   6.746  0.00  0.00    -0.253 OA
ATOM     19  C   UNL     1     -35.581  21.886   5.586  0.00  0.00    +0.293 C 
BRANCH  19  20
ATOM     20  O   UNL     1     -35.101  20.666   5.231  0.00  0.00    -0.482 OA
ATOM     21  H   UNL     1     -35.695  19.968   5.031  0.00  0.00    +0.295 HD
ENDBRANCH  19  20
ENDBRANCH  13  19
ENDBRANCH  12  13
ENDBRANCH   1  12
TORSDOF 7
ENDMDL
MODEL 3
REMARK VINA RESULT:      -5.6      1.850      2.341
REMARK  Name = 514186
REMARK  7 active torsions:
REMARK  status: ('A' for Active; 'I' for Inactive)
REMARK    1  A    between atoms: C_1  and  C_12
REMARK    2  A    between atoms: C_6  and  O_7
REMARK    3  A    between atoms: O_7  and  S_8
REMARK    4  A    between atoms: C_12  and  CA_13
REMARK    5  A    between atoms: CA_13  and  N_14
REMARK    6  A    between atoms: CA_13  and  C_19
REMARK    7  A    between atoms: C_19  and  O_20
REMARK                            x       y       z     vdW  Elec       q    Type
REMARK                         _______ _______ _______ _____ _____    ______ ____
ROOT
ATOM      1  C   UNL     1     -35.005  25.210   4.785  0.00  0.00    -0.024 C 
ATOM      2  C   UNL     1     -34.407  25.472   3.563  0.00  0.00    -0.001 C 
ATOM      3  C   UNL     1     -34.559  25.807   5.950  0.00  0.00    -0.001 C 
ATOM      4  C   UNL     1     -33.331  26.359   3.507  0.00  0.00    +0.040 C 
ATOM      5  C   UNL     1     -33.483  26.693   5.895  0.00  0.00    +0.040 C 
ATOM      6  C   UNL     1     -32.870  26.969   4.673  0.00  0.00    +0.176 C 
ENDROOT
BRANCH   6   7
ATOM      7  O   UNL     1     -31.820  27.834   4.618  0.00  0.00    -0.322 OA
BRANCH   7   8
ATOM      8  S   UNL     1     -32.120  29.451   4.615  0.00  0.00    +0.282 S 
ATOM      9  O   UNL     1     -33.581  29.575   3.895  0.00  0.00    -0.012 OA
ATOM     10  O   UNL     1     -32.258  29.908   5.985  0.00  0.00    -0.105 OA
ATOM     11  O   UNL     1     -31.150  30.078   3.736  0.00  0.00    -0.105 OA
ENDBRANCH   7   8
ENDBRANCH   6   7
BRANCH   1  12
ATOM     12  C   UNL     1     -36.170  24.249   4.845  0.00  0.00    +0.015 C 
BRANCH  12  13
ATOM     13  CA  UNL     1     -35.793  22.823   4.417  0.00  0.00    +0.040 C 
BRANCH  13  14
ATOM     14  N   UNL     1     -36.876  22.240   3.627  0.00  0.00    +0.389 N 
ATOM     15  H1  UNL     1     -37.531  21.766   4.246  0.00  0.00    -0.088 HD
ATOM     16  H2  UNL     1     -36.488  21.569   2.964  0.00  0.00    -0.088 HD
ATOM     17  H3  UNL     1     -37.361  22.979   3.118  0.00  0.00    -0.088 HD
ENDBRANCH  13  14
BRANCH  13  19
ATOM     18  OXT UNL     1     -35.844  22.195   6.768  0.00  0.00    -0.253 OA
ATOM     19  C   UNL     1     -35.582  21.906   5.608  0.00  0.00    +0.293 C 
BRANCH  19  20
ATOM     20  O   UNL     1     -35.092  20.692   5.246  0.00  0.00    -0.482 OA
ATOM     21  H   UNL     1     -34.720  20.571   4.394  0.00  0.00    +0.295 HD
ENDBRANCH  19  20
ENDBRANCH  13  19
ENDBRANCH  12  13
ENDBRANCH   1  12
TORSDOF 7
ENDMDL
MODEL 4
REMARK VINA RESULT:      -5.3      1.249      1.361
REMARK  Name = 514186
REMARK  7 active torsions:
REMARK  status: ('A' for Active; 'I' for Inactive)
REMARK    1  A    between atoms: C_1  and  C_12
REMARK    2  A    between atoms: C_6  and  O_7
REMARK    3  A    between atoms: O_7  and  S_8
REMARK    4  A    between atoms: C_12  and  CA_13
REMARK    5  A    between atoms: CA_13  and  N_14
REMARK    6  A    between atoms: CA_13  and  C_19
REMARK    7  A    between atoms: C_19  and  O_20
REMARK                            x       y       z     vdW  Elec       q    Type
REMARK                         _______ _______ _______ _____ _____    ______ ____
ROOT
ATOM      1  C   UNL     1     -35.405  22.821   3.914  0.00  0.00    -0.024 C 
ATOM      2  C   UNL     1     -35.524  23.757   2.900  0.00  0.00    -0.001 C 
ATOM      3  C   UNL     1     -35.069  23.192   5.204  0.00  0.00    -0.001 C 
ATOM      4  C   UNL     1     -35.300  25.104   3.186  0.00  0.00    +0.040 C 
ATOM      5  C   UNL     1     -34.844  24.539   5.490  0.00  0.00    +0.040 C 
ATOM      6  C   UNL     1     -34.961  25.495   4.480  0.00  0.00    +0.176 C 
ENDROOT
BRANCH   6   7
ATOM      7  O   UNL     1     -34.743  26.809   4.758  0.00  0.00    -0.322 OA
BRANCH   7   8
ATOM      8  S   UNL     1     -33.201  27.378   4.760  0.00  0.00    +0.282 S 
ATOM      9  O   UNL     1     -33.320  28.832   4.027  0.00  0.00    -0.012 OA
ATOM     10  O   UNL     1     -32.782  27.603   6.131  0.00  0.00    -0.105 OA
ATOM     11  O   UNL     1     -32.413  26.520   3.894  0.00  0.00    -0.105 OA
ENDBRANCH   7   8
ENDBRANCH   6   7
BRANCH   1  12
ATOM     12  C   UNL     1     -35.647  21.362   3.604  0.00  0.00    +0.015 C 
BRANCH  12  13
ATOM     13  CA  UNL     1     -36.329  21.144   2.245  0.00  0.00    +0.040 C 
BRANCH  13  14
ATOM     14  N   UNL     1     -37.760  20.915   2.439  0.00  0.00    +0.389 N 
ATOM     15  H1  UNL     1     -38.274  21.284   1.640  0.00  0.00    -0.088 HD
ATOM     16  H2  UNL     1     -38.066  21.390   3.289  0.00  0.00    -0.088 HD
ATOM     17  H3  UNL     1     -37.936  19.914   2.526  0.00  0.00    -0.088 HD
ENDBRANCH  13  14
BRANCH  13  19
ATOM     18  OXT UNL     1     -34.610  19.739   1.245  0.00  0.00    -0.253 OA
ATOM     19  C   UNL     1     -35.788  19.922   1.524  0.00  0.00    +0.293 C 
BRANCH  19  20
ATOM     20  O   UNL     1     -36.759  19.014   1.243  0.00  0.00    -0.482 OA
ATOM     21  H   UNL     1     -37.651  19.199   1.463  0.00  0.00    +0.295 HD
ENDBRANCH  19  20
ENDBRANCH  13  19
ENDBRANCH  12  13
ENDBRANCH   1  12
TORSDOF 7
ENDMDL
MODEL 5
REMARK VINA RESULT:      -5.3      3.020      3.732
REMARK  Name = 514186
REMARK  7 active torsions:
REMARK  status: ('A' for Active; 'I' for Inactive)
REMARK    1  A    between atoms: C_1  and  C_12
REMARK    2  A    between atoms: C_6  and  O_7
REMARK    3  A    between atoms: O_7  and  S_8
REMARK    4  A    between atoms: C_12  and  CA_13
REMARK    5  A    between atoms: CA_13  and  N_14
REMARK    6  A    between atoms: CA_13  and  C_19
REMARK    7  A    between atoms: C_19  and  O_20
REMARK                            x       y       z     vdW  Elec       q    Type
REMARK                         _______ _______ _______ _____ _____    ______ ____
ROOT
ATOM      1  C   UNL     1     -33.685  26.316   5.352  0.00  0.00    -0.024 C 
ATOM      2  C   UNL     1     -33.247  26.998   4.228  0.00  0.00    -0.001 C 
ATOM      3  C   UNL     1     -33.241  26.653   6.619  0.00  0.00    -0.001 C 
ATOM      4  C   UNL     1     -32.339  28.047   4.377  0.00  0.00    +0.040 C 
ATOM      5  C   UNL     1     -32.333  27.701   6.769  0.00  0.00    +0.040 C 
ATOM      6  C   UNL     1     -31.883  28.398   5.647  0.00  0.00    +0.176 C 
ENDROOT
BRANCH   6   7
ATOM      7  O   UNL     1     -30.997  29.422   5.792  0.00  0.00    -0.322 OA
BRANCH   7   8
ATOM      8  S   UNL     1     -29.425  29.074   6.122  0.00  0.00    +0.282 S 
ATOM      9  O   UNL     1     -28.589  30.065   5.128  0.00  0.00    -0.012 OA
ATOM     10  O   UNL     1     -29.132  29.463   7.489  0.00  0.00    -0.105 OA
ATOM     11  O   UNL     1     -29.173  27.712   5.686  0.00  0.00    -0.105 OA
ENDBRANCH   7   8
ENDBRANCH   6   7
BRANCH   1  12
ATOM     12  C   UNL     1     -34.668  25.180   5.190  0.00  0.00    +0.015 C 
BRANCH  12  13
ATOM     13  CA  UNL     1     -35.998  25.625   4.564  0.00  0.00    +0.040 C 
BRANCH  13  14
ATOM     14  N   UNL     1     -36.676  26.565   5.454  0.00  0.00    +0.389 N 
ATOM     15  H1  UNL     1     -36.163  26.630   6.333  0.00  0.00    -0.088 HD
ATOM     16  H2  UNL     1     -37.624  26.235   5.637  0.00  0.00    -0.088 HD
ATOM     17  H3  UNL     1     -36.714  27.484   5.013  0.00  0.00    -0.088 HD
ENDBRANCH  13  14
BRANCH  13  19
ATOM     18  OXT UNL     1     -36.630  23.278   4.405  0.00  0.00    -0.253 OA
ATOM     19  C   UNL     1     -36.949  24.459   4.356  0.00  0.00    +0.293 C 
BRANCH  19  20
ATOM     20  O   UNL     1     -38.227  24.866   4.140  0.00  0.00    -0.482 OA
ATOM     21  H   UNL     1     -38.430  25.781   4.113  0.00  0.00    +0.295 HD
ENDBRANCH  19  20
ENDBRANCH  13  19
ENDBRANCH  12  13
ENDBRANCH   1  12
TORSDOF 7
ENDMDL
MODEL 6
REMARK VINA RESULT:      -5.3      1.816      2.863
REMARK  Name = 514186
REMARK  7 active torsions:
REMARK  status: ('A' for Active; 'I' for Inactive)
REMARK    1  A    between atoms: C_1  and  C_12
REMARK    2  A    between atoms: C_6  and  O_7
REMARK    3  A    between atoms: O_7  and  S_8
REMARK    4  A    between atoms: C_12  and  CA_13
REMARK    5  A    between atoms: CA_13  and  N_14
REMARK    6  A    between atoms: CA_13  and  C_19
REMARK    7  A    between atoms: C_19  and  O_20
REMARK                            x       y       z     vdW  Elec       q    Type
REMARK                         _______ _______ _______ _____ _____    ______ ____
ROOT
ATOM      1  C   UNL     1     -35.624  21.914   3.563  0.00  0.00    -0.024 C 
ATOM      2  C   UNL     1     -35.307  21.882   4.911  0.00  0.00    -0.001 C 
ATOM      3  C   UNL     1     -35.829  23.110   2.898  0.00  0.00    -0.001 C 
ATOM      4  C   UNL     1     -35.192  23.082   5.614  0.00  0.00    +0.040 C 
ATOM      5  C   UNL     1     -35.714  24.311   3.600  0.00  0.00    +0.040 C 
ATOM      6  C   UNL     1     -35.395  24.296   4.958  0.00  0.00    +0.176 C 
ENDROOT
BRANCH   6   7
ATOM      7  O   UNL     1     -35.281  25.466   5.644  0.00  0.00    -0.322 OA
BRANCH   7   8
ATOM      8  S   UNL     1     -34.074  26.508   5.247  0.00  0.00    +0.282 S 
ATOM      9  O   UNL     1     -33.050  25.598   4.357  0.00  0.00    -0.012 OA
ATOM     10  O   UNL     1     -34.611  27.546   4.387  0.00  0.00    -0.105 OA
ATOM     11  O   UNL     1     -33.381  26.868   6.470  0.00  0.00    -0.105 OA
ENDBRANCH   7   8
ENDBRANCH   6   7
BRANCH   1  12
ATOM     12  C   UNL     1     -35.749  20.615   2.803  0.00  0.00    +0.015 C 
BRANCH  12  13
ATOM     13  CA  UNL     1     -36.753  20.695   1.643  0.00  0.00    +0.040 C 
BRANCH  13  14
ATOM     14  N   UNL     1     -38.116  20.723   2.169  0.00  0.00    +0.389 N 
ATOM     15  H1  UNL     1     -38.780  20.715   1.394  0.00  0.00    -0.088 HD
ATOM     16  H2  UNL     1     -38.249  21.570   2.721  0.00  0.00    -0.088 HD
ATOM     17  H3  UNL     1     -38.271  19.904   2.758  0.00  0.00    -0.088 HD
ENDBRANCH  13  14
BRANCH  13  19
ATOM     18  OXT UNL     1     -37.527  19.153  -0.076  0.00  0.00    -0.253 OA
ATOM     19  C   UNL     1     -36.665  19.487   0.727  0.00  0.00    +0.293 C 
BRANCH  19  20
ATOM     20  O   UNL     1     -35.492  18.816   0.866  0.00  0.00    -0.482 OA
ATOM     21  H   UNL     1     -35.012  18.872   1.670  0.00  0.00    +0.295 HD
ENDBRANCH  19  20
ENDBRANCH  13  19
ENDBRANCH  12  13
ENDBRANCH   1  12
TORSDOF 7
ENDMDL
MODEL 7
REMARK VINA RESULT:      -5.3      1.292      1.922
REMARK  Name = 514186
REMARK  7 active torsions:
REMARK  status: ('A' for Active; 'I' for Inactive)
REMARK    1  A    between atoms: C_1  and  C_12
REMARK    2  A    between atoms: C_6  and  O_7
REMARK    3  A    between atoms: O_7  and  S_8
REMARK    4  A    between atoms: C_12  and  CA_13
REMARK    5  A    between atoms: CA_13  and  N_14
REMARK    6  A    between atoms: CA_13  and  C_19
REMARK    7  A    between atoms: C_19  and  O_20
REMARK                            x       y       z     vdW  Elec       q    Type
REMARK                         _______ _______ _______ _____ _____    ______ ____
ROOT
ATOM      1  C   UNL     1     -35.406  22.796   3.817  0.00  0.00    -0.024 C 
ATOM      2  C   UNL     1     -35.078  23.154   5.114  0.00  0.00    -0.001 C 
ATOM      3  C   UNL     1     -35.516  23.742   2.813  0.00  0.00    -0.001 C 
ATOM      4  C   UNL     1     -34.852  24.498   5.414  0.00  0.00    +0.040 C 
ATOM      5  C   UNL     1     -35.291  25.085   3.112  0.00  0.00    +0.040 C 
ATOM      6  C   UNL     1     -34.958  25.463   4.414  0.00  0.00    +0.176 C 
ENDROOT
BRANCH   6   7
ATOM      7  O   UNL     1     -34.738  26.774   4.707  0.00  0.00    -0.322 OA
BRANCH   7   8
ATOM      8  S   UNL     1     -33.222  27.385   4.531  0.00  0.00    +0.282 S 
ATOM      9  O   UNL     1     -32.638  27.426   6.056  0.00  0.00    -0.012 OA
ATOM     10  O   UNL     1     -32.419  26.444   3.772  0.00  0.00    -0.105 OA
ATOM     11  O   UNL     1     -33.349  28.758   4.079  0.00  0.00    -0.105 OA
ENDBRANCH   7   8
ENDBRANCH   6   7
BRANCH   1  12
ATOM     12  C   UNL     1     -35.650  21.341   3.492  0.00  0.00    +0.015 C 
BRANCH  12  13
ATOM     13  CA  UNL     1     -36.366  21.140   2.148  0.00  0.00    +0.040 C 
BRANCH  13  14
ATOM     14  N   UNL     1     -37.781  20.856   2.377  0.00  0.00    +0.389 N 
ATOM     15  H1  UNL     1     -37.898  19.869   2.602  0.00  0.00    -0.088 HD
ATOM     16  H2  UNL     1     -38.312  21.078   1.534  0.00  0.00    -0.088 HD
ATOM     17  H3  UNL     1     -38.121  21.425   3.153  0.00  0.00    -0.088 HD
ENDBRANCH  13  14
BRANCH  13  19
ATOM     18  OXT UNL     1     -34.664  19.888   0.936  0.00  0.00    -0.253 OA
ATOM     19  C   UNL     1     -35.805  19.959   1.374  0.00  0.00    +0.293 C 
BRANCH  19  20
ATOM     20  O   UNL     1     -36.707  18.952   1.242  0.00  0.00    -0.482 OA
ATOM     21  H   UNL     1     -37.161  18.832   0.430  0.00  0.00    +0.295 HD
ENDBRANCH  19  20
ENDBRANCH  13  19
ENDBRANCH  12  13
ENDBRANCH   1  12
TORSDOF 7
ENDMDL
MODEL 8
REMARK VINA RESULT:      -5.2      1.728      2.213
REMARK  Name = 514186
REMARK  7 active torsions:
REMARK  status: ('A' for Active; 'I' for Inactive)
REMARK    1  A    between atoms: C_1  and  C_12
REMARK    2  A    between atoms: C_6  and  O_7
REMARK    3  A    between atoms: O_7  and  S_8
REMARK    4  A    between atoms: C_12  and  CA_13
REMARK    5  A    between atoms: CA_13  and  N_14
REMARK    6  A    between atoms: CA_13  and  C_19
REMARK    7  A    between atoms: C_19  and  O_20
REMARK                            x       y       z     vdW  Elec       q    Type
REMARK                         _______ _______ _______ _____ _____    ______ ____
ROOT
ATOM      1  C   UNL     1     -35.518  24.590   3.449  0.00  0.00    -0.024 C 
ATOM      2  C   UNL     1     -34.235  24.620   2.926  0.00  0.00    -0.001 C 
ATOM      3  C   UNL     1     -36.062  25.689   4.089  0.00  0.00    -0.001 C 
ATOM      4  C   UNL     1     -33.477  25.784   3.046  0.00  0.00    +0.040 C 
ATOM      5  C   UNL     1     -35.304  26.854   4.211  0.00  0.00    +0.040 C 
ATOM      6  C   UNL     1     -34.011  26.901   3.688  0.00  0.00    +0.176 C 
ENDROOT
BRANCH   6   7
ATOM      7  O   UNL     1     -33.270  28.036   3.806  0.00  0.00    -0.322 OA
BRANCH   7   8
ATOM      8  S   UNL     1     -32.182  28.154   5.032  0.00  0.00    +0.282 S 
ATOM      9  O   UNL     1     -32.639  26.983   6.074  0.00  0.00    -0.012 OA
ATOM     10  O   UNL     1     -30.864  27.813   4.529  0.00  0.00    -0.105 OA
ATOM     11  O   UNL     1     -32.397  29.429   5.692  0.00  0.00    -0.105 OA
ENDBRANCH   7   8
ENDBRANCH   6   7
BRANCH   1  12
ATOM     12  C   UNL     1     -36.339  23.329   3.318  0.00  0.00    +0.015 C 
BRANCH  12  13
ATOM     13  CA  UNL     1     -35.567  22.065   3.727  0.00  0.00    +0.040 C 
BRANCH  13  14
ATOM     14  N   UNL     1     -36.181  20.889   3.116  0.00  0.00    +0.389 N 
ATOM     15  H1  UNL     1     -35.759  20.720   2.203  0.00  0.00    -0.088 HD
ATOM     16  H2  UNL     1     -37.182  21.050   3.003  0.00  0.00    -0.088 HD
ATOM     17  H3  UNL     1     -36.032  20.077   3.715  0.00  0.00    -0.088 HD
ENDBRANCH  13  14
BRANCH  13  19
ATOM     18  OXT UNL     1     -36.033  22.638   6.047  0.00  0.00    -0.253 OA
ATOM     19  C   UNL     1     -35.594  21.840   5.229  0.00  0.00    +0.293 C 
BRANCH  19  20
ATOM     20  O   UNL     1     -35.104  20.623   5.578  0.00  0.00    -0.482 OA
ATOM     21  H   UNL     1     -35.562  20.094   6.202  0.00  0.00    +0.295 HD
ENDBRANCH  19  20
ENDBRANCH  13  19
ENDBRANCH  12  13
ENDBRANCH   1  12
TORSDOF 7
ENDMDL
MODEL 9
REMARK VINA RESULT:      -5.2      1.998      2.560
REMARK  Name = 514186
REMARK  7 active torsions:
REMARK  status: ('A' for Active; 'I' for Inactive)
REMARK    1  A    between atoms: C_1  and  C_12
REMARK    2  A    between atoms: C_6  and  O_7
REMARK    3  A    between atoms: O_7  and  S_8
REMARK    4  A    between atoms: C_12  and  CA_13
REMARK    5  A    between atoms: CA_13  and  N_14
REMARK    6  A    between atoms: CA_13  and  C_19
REMARK    7  A    between atoms: C_19  and  O_20
REMARK                            x       y       z     vdW  Elec       q    Type
REMARK                         _______ _______ _______ _____ _____    ______ ____
ROOT
ATOM      1  C   UNL     1     -35.001  25.460   4.960  0.00  0.00    -0.024 C 
ATOM      2  C   UNL     1     -34.993  25.990   3.681  0.00  0.00    -0.001 C 
ATOM      3  C   UNL     1     -34.126  25.908   5.933  0.00  0.00    -0.001 C 
ATOM      4  C   UNL     1     -34.082  27.000   3.367  0.00  0.00    +0.040 C 
ATOM      5  C   UNL     1     -33.214  26.916   5.620  0.00  0.00    +0.040 C 
ATOM      6  C   UNL     1     -33.194  27.463   4.337  0.00  0.00    +0.176 C 
ENDROOT
BRANCH   6   7
ATOM      7  O   UNL     1     -32.306  28.447   4.030  0.00  0.00    -0.322 OA
BRANCH   7   8
ATOM      8  S   UNL     1     -30.737  28.045   3.748  0.00  0.00    +0.282 S 
ATOM      9  O   UNL     1     -30.174  29.281   2.840  0.00  0.00    -0.012 OA
ATOM     10  O   UNL     1     -30.015  28.052   5.007  0.00  0.00    -0.105 OA
ATOM     11  O   UNL     1     -30.729  26.857   2.914  0.00  0.00    -0.105 OA
ENDBRANCH   7   8
ENDBRANCH   6   7
BRANCH   1  12
ATOM     12  C   UNL     1     -35.988  24.367   5.300  0.00  0.00    +0.015 C 
BRANCH  12  13
ATOM     13  CA  UNL     1     -35.608  23.008   4.692  0.00  0.00    +0.040 C 
BRANCH  13  14
ATOM     14  N   UNL     1     -36.721  22.493   3.897  0.00  0.00    +0.389 N 
ATOM     15  H1  UNL     1     -37.547  22.402   4.487  0.00  0.00    -0.088 HD
ATOM     16  H2  UNL     1     -36.472  21.579   3.518  0.00  0.00    -0.088 HD
ATOM     17  H3  UNL     1     -36.918  23.136   3.131  0.00  0.00    -0.088 HD
ENDBRANCH  13  14
BRANCH  13  19
ATOM     18  OXT UNL     1     -35.239  22.197   6.958  0.00  0.00    -0.253 OA
ATOM     19  C   UNL     1     -35.317  21.966   5.758  0.00  0.00    +0.293 C 
BRANCH  19  20
ATOM     20  O   UNL     1     -35.182  20.719   5.239  0.00  0.00    -0.482 OA
ATOM     21  H   UNL     1     -34.746  20.596   4.419  0.00  0.00    +0.295 HD
ENDBRANCH  19  20
ENDBRANCH  13  19
ENDBRANCH  12  13
ENDBRANCH   1  12
TORSDOF 7
ENDMDL
