MODEL 1
REMARK VINA RESULT:      -7.2      0.000      0.000
REMARK  Name = 195866
REMARK  8 active torsions:
REMARK  status: ('A' for Active; 'I' for Inactive)
REMARK    1  A    between atoms: C_7  and  C_23
REMARK    2  A    between atoms: C_20  and  O_21
REMARK    3  A    between atoms: C_23  and  C_25
REMARK    4  A    between atoms: C_25  and  C_26
REMARK    5  A    between atoms: C_26  and  C_29
REMARK    6  A    between atoms: N_28  and  C_31
REMARK    7  A    between atoms: C_31  and  C_32
REMARK    8  A    between atoms: C_32  and  S_33
REMARK                            x       y       z     vdW  Elec       q    Type
REMARK                         _______ _______ _______ _____ _____    ______ ____
ROOT
ATOM      1  O   UNL     1     -39.534  20.792   0.323  0.00  0.00    -0.296 OA
ATOM      2  C   UNL     1     -35.835  21.773   2.432  0.00  0.00    +0.000 C 
ATOM      3  C   UNL     1     -37.218  21.461   1.811  0.00  0.00    +0.007 C 
ATOM      4  C   UNL     1     -36.271  19.538   0.480  0.00  0.00    +0.007 C 
ATOM      5  C   UNL     1     -37.105  20.856   0.410  0.00  0.00    +0.058 C 
ATOM      6  C   UNL     1     -36.130  18.849  -0.934  0.00  0.00    +0.001 C 
ATOM      7  C   UNL     1     -36.296  22.408   3.766  0.00  0.00    +0.000 C 
ATOM      8  C   UNL     1     -35.075  20.450   2.580  0.00  0.00    +0.000 C 
ATOM      9  C   UNL     1     -34.926  19.730   1.230  0.00  0.00    +0.000 C 
ATOM     10  C   UNL     1     -37.981  22.772   1.999  0.00  0.00    +0.000 C 
ATOM     11  C   UNL     1     -37.556  18.600  -1.539  0.00  0.00    +0.010 C 
ATOM     12  C   UNL     1     -37.471  23.319   3.347  0.00  0.00    +0.000 C 
ATOM     13  C   UNL     1     -38.460  20.520  -0.207  0.00  0.00    +0.150 C 
ATOM     14  C   UNL     1     -35.385  17.484  -0.858  0.00  0.00    +0.003 C 
ATOM     15  C   UNL     1     -38.413  19.871  -1.571  0.00  0.00    +0.065 C 
ATOM     16  C   UNL     1     -34.982  22.772   1.608  0.00  0.00    +0.000 C 
ATOM     17  C   UNL     1     -38.323  17.474  -0.812  0.00  0.00    +0.030 C 
ATOM     18  C   UNL     1     -35.308  19.734  -1.906  0.00  0.00    +0.000 C 
ATOM     19  C   UNL     1     -36.154  16.402  -0.110  0.00  0.00    +0.029 C 
ATOM     20  C   UNL     1     -37.526  16.177  -0.734  0.00  0.00    +0.111 C 
ENDROOT
BRANCH  20  21
ATOM     21  O   UNL     1     -38.259  15.239   0.046  0.00  0.00    -0.384 OA
ATOM     22  H   UNL     1     -38.230  15.502   0.979  0.00  0.00    +0.210 HD
ENDBRANCH  20  21
BRANCH   7  23
ATOM     23  C   UNL     1     -35.237  23.142   4.575  0.00  0.00    +0.000 C 
ATOM     24  C   UNL     1     -34.981  22.406   5.895  0.00  0.00    +0.000 C 
BRANCH  23  25
ATOM     25  C   UNL     1     -35.622  24.605   4.873  0.00  0.00    +0.010 C 
BRANCH  25  26
ATOM     26  C   UNL     1     -34.477  25.424   5.469  0.00  0.00    +0.085 C 
BRANCH  26  29
ATOM     27  O   UNL     1     -32.974  25.525   3.574  0.00  0.00    -0.275 OA
ATOM     28  N   UNL     1     -33.768  27.505   4.496  0.00  0.00    -0.303 N 
ATOM     29  C   UNL     1     -33.650  26.125   4.405  0.00  0.00    +0.223 C 
ATOM     30  H   UNL     1     -34.340  27.880   5.203  0.00  0.00    +0.149 HD
BRANCH  28  31
ATOM     31  C   UNL     1     -33.094  28.415   3.599  0.00  0.00    +0.115 C 
BRANCH  31  32
ATOM     32  C   UNL     1     -32.480  29.593   4.333  0.00  0.00    +0.179 C 
BRANCH  32  33
ATOM     33  S   UNL     1     -31.440  29.086   5.666  0.00  0.00    +0.024 S 
ATOM     34  O   UNL     1     -30.670  27.877   4.886  0.00  0.00    -0.069 OA
ATOM     35  O   UNL     1     -32.264  28.515   6.715  0.00  0.00    -0.069 OA
ATOM     36  O   UNL     1     -30.486  30.145   5.941  0.00  0.00    -0.069 OA
ENDBRANCH  32  33
ENDBRANCH  31  32
ENDBRANCH  28  31
ENDBRANCH  26  29
ENDBRANCH  25  26
ENDBRANCH  23  25
ENDBRANCH   7  23
TORSDOF 8
ENDMDL
MODEL 2
REMARK VINA RESULT:      -6.9      2.559      3.484
REMARK  Name = 195866
REMARK  8 active torsions:
REMARK  status: ('A' for Active; 'I' for Inactive)
REMARK    1  A    between atoms: C_7  and  C_23
REMARK    2  A    between atoms: C_20  and  O_21
REMARK    3  A    between atoms: C_23  and  C_25
REMARK    4  A    between atoms: C_25  and  C_26
REMARK    5  A    between atoms: C_26  and  C_29
REMARK    6  A    between atoms: N_28  and  C_31
REMARK    7  A    between atoms: C_31  and  C_32
REMARK    8  A    between atoms: C_32  and  S_33
REMARK                            x       y       z     vdW  Elec       q    Type
REMARK                         _______ _______ _______ _____ _____    ______ ____
ROOT
ATOM      1  O   UNL     1     -39.394  20.908   0.319  0.00  0.00    -0.296 OA
ATOM      2  C   UNL     1     -35.778  21.824   2.593  0.00  0.00    +0.000 C 
ATOM      3  C   UNL     1     -37.136  21.532   1.912  0.00  0.00    +0.007 C 
ATOM      4  C   UNL     1     -36.142  19.641   0.568  0.00  0.00    +0.007 C 
ATOM      5  C   UNL     1     -36.971  20.963   0.500  0.00  0.00    +0.058 C 
ATOM      6  C   UNL     1     -35.948  18.989  -0.857  0.00  0.00    +0.001 C 
ATOM      7  C   UNL     1     -36.289  22.425   3.924  0.00  0.00    +0.000 C 
ATOM      8  C   UNL     1     -35.027  20.496   2.736  0.00  0.00    +0.000 C 
ATOM      9  C   UNL     1     -34.827  19.811   1.373  0.00  0.00    +0.000 C 
ATOM     10  C   UNL     1     -37.903  22.840   2.104  0.00  0.00    +0.000 C 
ATOM     11  C   UNL     1     -37.350  18.759  -1.522  0.00  0.00    +0.010 C 
ATOM     12  C   UNL     1     -37.445  23.351   3.484  0.00  0.00    +0.000 C 
ATOM     13  C   UNL     1     -38.301  20.647  -0.177  0.00  0.00    +0.150 C 
ATOM     14  C   UNL     1     -35.209  17.620  -0.788  0.00  0.00    +0.003 C 
ATOM     15  C   UNL     1     -38.203  20.033  -1.554  0.00  0.00    +0.065 C 
ATOM     16  C   UNL     1     -34.892  22.841   1.828  0.00  0.00    +0.000 C 
ATOM     17  C   UNL     1     -38.147  17.618  -0.855  0.00  0.00    +0.030 C 
ATOM     18  C   UNL     1     -35.088  19.896  -1.773  0.00  0.00    +0.000 C 
ATOM     19  C   UNL     1     -36.008  16.521  -0.098  0.00  0.00    +0.029 C 
ATOM     20  C   UNL     1     -37.355  16.317  -0.780  0.00  0.00    +0.111 C 
ENDROOT
BRANCH  20  21
ATOM     21  O   UNL     1     -38.119  15.361  -0.054  0.00  0.00    -0.384 OA
ATOM     22  H   UNL     1     -38.474  15.773   0.749  0.00  0.00    +0.210 HD
ENDBRANCH  20  21
BRANCH   7  23
ATOM     23  C   UNL     1     -35.260  23.136   4.792  0.00  0.00    +0.000 C 
ATOM     24  C   UNL     1     -34.841  22.231   5.955  0.00  0.00    +0.000 C 
BRANCH  23  25
ATOM     25  C   UNL     1     -35.775  24.478   5.349  0.00  0.00    +0.010 C 
BRANCH  25  26
ATOM     26  C   UNL     1     -34.766  25.619   5.210  0.00  0.00    +0.085 C 
BRANCH  26  29
ATOM     27  O   UNL     1     -33.677  26.074   3.097  0.00  0.00    -0.275 OA
ATOM     28  N   UNL     1     -35.889  26.720   3.392  0.00  0.00    -0.303 N 
ATOM     29  C   UNL     1     -34.687  26.153   3.790  0.00  0.00    +0.223 C 
ATOM     30  H   UNL     1     -36.637  26.729   4.031  0.00  0.00    +0.149 HD
BRANCH  28  31
ATOM     31  C   UNL     1     -36.095  27.297   2.083  0.00  0.00    +0.115 C 
BRANCH  31  32
ATOM     32  C   UNL     1     -36.777  26.333   1.132  0.00  0.00    +0.179 C 
BRANCH  32  33
ATOM     33  S   UNL     1     -38.511  26.638   0.995  0.00  0.00    +0.024 S 
ATOM     34  O   UNL     1     -38.878  26.486   2.577  0.00  0.00    -0.069 OA
ATOM     35  O   UNL     1     -39.125  25.545   0.265  0.00  0.00    -0.069 OA
ATOM     36  O   UNL     1     -38.711  28.021   0.602  0.00  0.00    -0.069 OA
ENDBRANCH  32  33
ENDBRANCH  31  32
ENDBRANCH  28  31
ENDBRANCH  26  29
ENDBRANCH  25  26
ENDBRANCH  23  25
ENDBRANCH   7  23
TORSDOF 8
ENDMDL
MODEL 3
REMARK VINA RESULT:      -6.5      6.432      8.598
REMARK  Name = 195866
REMARK  8 active torsions:
REMARK  status: ('A' for Active; 'I' for Inactive)
REMARK    1  A    between atoms: C_7  and  C_23
REMARK    2  A    between atoms: C_20  and  O_21
REMARK    3  A    between atoms: C_23  and  C_25
REMARK    4  A    between atoms: C_25  and  C_26
REMARK    5  A    between atoms: C_26  and  C_29
REMARK    6  A    between atoms: N_28  and  C_31
REMARK    7  A    between atoms: C_31  and  C_32
REMARK    8  A    between atoms: C_32  and  S_33
REMARK                            x       y       z     vdW  Elec       q    Type
REMARK                         _______ _______ _______ _____ _____    ______ ____
ROOT
ATOM      1  O   UNL     1     -38.413  21.340   1.192  0.00  0.00    -0.296 OA
ATOM      2  C   UNL     1     -39.615  25.401   2.267  0.00  0.00    +0.000 C 
ATOM      3  C   UNL     1     -39.333  23.923   1.903  0.00  0.00    +0.007 C 
ATOM      4  C   UNL     1     -37.090  23.988   3.058  0.00  0.00    +0.007 C 
ATOM      5  C   UNL     1     -37.838  23.639   1.732  0.00  0.00    +0.058 C 
ATOM      6  C   UNL     1     -35.540  23.700   2.957  0.00  0.00    +0.001 C 
ATOM      7  C   UNL     1     -41.161  25.360   2.300  0.00  0.00    +0.000 C 
ATOM      8  C   UNL     1     -38.952  25.688   3.618  0.00  0.00    +0.000 C 
ATOM      9  C   UNL     1     -37.440  25.407   3.577  0.00  0.00    +0.000 C 
ATOM     10  C   UNL     1     -40.279  23.673   0.729  0.00  0.00    +0.000 C 
ATOM     11  C   UNL     1     -35.312  22.205   2.540  0.00  0.00    +0.010 C 
ATOM     12  C   UNL     1     -41.529  24.511   1.062  0.00  0.00    +0.000 C 
ATOM     13  C   UNL     1     -37.542  22.180   1.397  0.00  0.00    +0.150 C 
ATOM     14  C   UNL     1     -34.802  23.950   4.304  0.00  0.00    +0.003 C 
ATOM     15  C   UNL     1     -36.078  21.825   1.267  0.00  0.00    +0.065 C 
ATOM     16  C   UNL     1     -39.108  26.419   1.213  0.00  0.00    +0.000 C 
ATOM     17  C   UNL     1     -35.655  21.211   3.670  0.00  0.00    +0.030 C 
ATOM     18  C   UNL     1     -34.867  24.632   1.917  0.00  0.00    +0.000 C 
ATOM     19  C   UNL     1     -35.183  22.972   5.409  0.00  0.00    +0.029 C 
ATOM     20  C   UNL     1     -34.933  21.534   4.973  0.00  0.00    +0.111 C 
ENDROOT
BRANCH  20  21
ATOM     21  O   UNL     1     -35.394  20.641   5.981  0.00  0.00    -0.384 OA
ATOM     22  H   UNL     1     -34.745  20.603   6.701  0.00  0.00    +0.210 HD
ENDBRANCH  20  21
BRANCH   7  23
ATOM     23  C   UNL     1     -41.879  26.702   2.331  0.00  0.00    +0.000 C 
ATOM     24  C   UNL     1     -41.844  27.282   3.749  0.00  0.00    +0.000 C 
BRANCH  23  25
ATOM     25  C   UNL     1     -43.342  26.607   1.854  0.00  0.00    +0.010 C 
BRANCH  25  26
ATOM     26  C   UNL     1     -44.318  26.226   2.968  0.00  0.00    +0.085 C 
BRANCH  26  29
ATOM     27  O   UNL     1     -46.507  27.126   2.460  0.00  0.00    -0.275 OA
ATOM     28  N   UNL     1     -45.174  28.207   4.026  0.00  0.00    -0.303 N 
ATOM     29  C   UNL     1     -45.463  27.216   3.099  0.00  0.00    +0.223 C 
ATOM     30  H   UNL     1     -44.302  28.182   4.482  0.00  0.00    +0.149 HD
BRANCH  28  31
ATOM     31  C   UNL     1     -46.092  29.273   4.353  0.00  0.00    +0.115 C 
BRANCH  31  32
ATOM     32  C   UNL     1     -45.693  30.006   5.620  0.00  0.00    +0.179 C 
BRANCH  32  33
ATOM     33  S   UNL     1     -44.144  30.838   5.455  0.00  0.00    +0.024 S 
ATOM     34  O   UNL     1     -44.178  31.029   3.835  0.00  0.00    -0.069 OA
ATOM     35  O   UNL     1     -43.076  29.915   5.794  0.00  0.00    -0.069 OA
ATOM     36  O   UNL     1     -44.247  32.143   6.081  0.00  0.00    -0.069 OA
ENDBRANCH  32  33
ENDBRANCH  31  32
ENDBRANCH  28  31
ENDBRANCH  26  29
ENDBRANCH  25  26
ENDBRANCH  23  25
ENDBRANCH   7  23
TORSDOF 8
ENDMDL
MODEL 4
REMARK VINA RESULT:      -6.5      4.277      7.264
REMARK  Name = 195866
REMARK  8 active torsions:
REMARK  status: ('A' for Active; 'I' for Inactive)
REMARK    1  A    between atoms: C_7  and  C_23
REMARK    2  A    between atoms: C_20  and  O_21
REMARK    3  A    between atoms: C_23  and  C_25
REMARK    4  A    between atoms: C_25  and  C_26
REMARK    5  A    between atoms: C_26  and  C_29
REMARK    6  A    between atoms: N_28  and  C_31
REMARK    7  A    between atoms: C_31  and  C_32
REMARK    8  A    between atoms: C_32  and  S_33
REMARK                            x       y       z     vdW  Elec       q    Type
REMARK                         _______ _______ _______ _____ _____    ______ ____
ROOT
ATOM      1  O   UNL     1     -33.988  26.615   6.218  0.00  0.00    -0.296 OA
ATOM      2  C   UNL     1     -32.425  26.939   2.151  0.00  0.00    +0.000 C 
ATOM      3  C   UNL     1     -32.840  26.857   3.640  0.00  0.00    +0.007 C 
ATOM      4  C   UNL     1     -34.441  24.964   3.166  0.00  0.00    +0.007 C 
ATOM      5  C   UNL     1     -34.282  26.375   3.818  0.00  0.00    +0.058 C 
ATOM      6  C   UNL     1     -35.906  24.397   3.330  0.00  0.00    +0.001 C 
ATOM      7  C   UNL     1     -30.993  27.499   2.321  0.00  0.00    +0.000 C 
ATOM      8  C   UNL     1     -32.496  25.526   1.563  0.00  0.00    +0.000 C 
ATOM      9  C   UNL     1     -33.901  24.921   1.713  0.00  0.00    +0.000 C 
ATOM     10  C   UNL     1     -32.439  28.228   4.183  0.00  0.00    +0.000 C 
ATOM     11  C   UNL     1     -36.294  24.380   4.850  0.00  0.00    +0.010 C 
ATOM     12  C   UNL     1     -31.153  28.582   3.412  0.00  0.00    +0.000 C 
ATOM     13  C   UNL     1     -34.699  26.265   5.281  0.00  0.00    +0.150 C 
ATOM     14  C   UNL     1     -36.048  22.950   2.773  0.00  0.00    +0.003 C 
ATOM     15  C   UNL     1     -36.098  25.744   5.523  0.00  0.00    +0.065 C 
ATOM     16  C   UNL     1     -33.299  27.899   1.303  0.00  0.00    +0.000 C 
ATOM     17  C   UNL     1     -35.539  23.294   5.646  0.00  0.00    +0.030 C 
ATOM     18  C   UNL     1     -36.929  25.261   2.549  0.00  0.00    +0.000 C 
ATOM     19  C   UNL     1     -35.268  21.905   3.561  0.00  0.00    +0.029 C 
ATOM     20  C   UNL     1     -35.682  21.908   5.027  0.00  0.00    +0.111 C 
ENDROOT
BRANCH  20  21
ATOM     21  O   UNL     1     -34.867  20.998   5.756  0.00  0.00    -0.384 OA
ATOM     22  H   UNL     1     -35.275  20.816   6.618  0.00  0.00    +0.210 HD
ENDBRANCH  20  21
BRANCH   7  23
ATOM     23  C   UNL     1     -30.310  28.022   1.065  0.00  0.00    +0.000 C 
ATOM     24  C   UNL     1     -29.160  27.091   0.667  0.00  0.00    +0.000 C 
BRANCH  23  25
ATOM     25  C   UNL     1     -29.771  29.457   1.232  0.00  0.00    +0.010 C 
BRANCH  25  26
ATOM     26  C   UNL     1     -28.285  29.508   1.588  0.00  0.00    +0.085 C 
BRANCH  26  29
ATOM     27  O   UNL     1     -28.287  31.349   3.159  0.00  0.00    -0.275 OA
ATOM     28  N   UNL     1     -27.501  29.274   3.849  0.00  0.00    -0.303 N 
ATOM     29  C   UNL     1     -28.034  30.169   2.933  0.00  0.00    +0.223 C 
ATOM     30  H   UNL     1     -27.339  28.348   3.558  0.00  0.00    +0.149 HD
BRANCH  28  31
ATOM     31  C   UNL     1     -27.175  29.636   5.209  0.00  0.00    +0.115 C 
BRANCH  31  32
ATOM     32  C   UNL     1     -26.938  28.421   6.085  0.00  0.00    +0.179 C 
BRANCH  32  33
ATOM     33  S   UNL     1     -28.202  27.203   5.901  0.00  0.00    +0.024 S 
ATOM     34  O   UNL     1     -27.662  26.163   7.036  0.00  0.00    -0.069 OA
ATOM     35  O   UNL     1     -28.070  26.581   4.596  0.00  0.00    -0.069 OA
ATOM     36  O   UNL     1     -29.462  27.768   6.348  0.00  0.00    -0.069 OA
ENDBRANCH  32  33
ENDBRANCH  31  32
ENDBRANCH  28  31
ENDBRANCH  26  29
ENDBRANCH  25  26
ENDBRANCH  23  25
ENDBRANCH   7  23
TORSDOF 8
ENDMDL
MODEL 5
REMARK VINA RESULT:      -6.5      4.415      7.449
REMARK  Name = 195866
REMARK  8 active torsions:
REMARK  status: ('A' for Active; 'I' for Inactive)
REMARK    1  A    between atoms: C_7  and  C_23
REMARK    2  A    between atoms: C_20  and  O_21
REMARK    3  A    between atoms: C_23  and  C_25
REMARK    4  A    between atoms: C_25  and  C_26
REMARK    5  A    between atoms: C_26  and  C_29
REMARK    6  A    between atoms: N_28  and  C_31
REMARK    7  A    between atoms: C_31  and  C_32
REMARK    8  A    between atoms: C_32  and  S_33
REMARK                            x       y       z     vdW  Elec       q    Type
REMARK                         _______ _______ _______ _____ _____    ______ ____
ROOT
ATOM      1  O   UNL     1     -33.759  26.516   6.298  0.00  0.00    -0.296 OA
ATOM      2  C   UNL     1     -32.526  27.004   2.135  0.00  0.00    +0.000 C 
ATOM      3  C   UNL     1     -32.820  26.859   3.647  0.00  0.00    +0.007 C 
ATOM      4  C   UNL     1     -34.496  25.021   3.222  0.00  0.00    +0.007 C 
ATOM      5  C   UNL     1     -34.254  26.396   3.921  0.00  0.00    +0.058 C 
ATOM      6  C   UNL     1     -35.955  24.474   3.479  0.00  0.00    +0.001 C 
ATOM      7  C   UNL     1     -31.073  27.529   2.212  0.00  0.00    +0.000 C 
ATOM      8  C   UNL     1     -32.676  25.622   1.490  0.00  0.00    +0.000 C 
ATOM      9  C   UNL     1     -34.078  25.037   1.728  0.00  0.00    +0.000 C 
ATOM     10  C   UNL     1     -32.346  28.195   4.218  0.00  0.00    +0.000 C 
ATOM     11  C   UNL     1     -36.218  24.392   5.024  0.00  0.00    +0.010 C 
ATOM     12  C   UNL     1     -31.120  28.562   3.360  0.00  0.00    +0.000 C 
ATOM     13  C   UNL     1     -34.552  26.224   5.407  0.00  0.00    +0.150 C 
ATOM     14  C   UNL     1     -36.174  23.058   2.870  0.00  0.00    +0.003 C 
ATOM     15  C   UNL     1     -35.937  25.718   5.740  0.00  0.00    +0.065 C 
ATOM     16  C   UNL     1     -33.445  28.019   1.406  0.00  0.00    +0.000 C 
ATOM     17  C   UNL     1     -35.425  23.256   5.704  0.00  0.00    +0.030 C 
ATOM     18  C   UNL     1     -37.019  25.393   2.826  0.00  0.00    +0.000 C 
ATOM     19  C   UNL     1     -35.356  21.962   3.543  0.00  0.00    +0.029 C 
ATOM     20  C   UNL     1     -35.650  21.903   5.037  0.00  0.00    +0.111 C 
ENDROOT
BRANCH  20  21
ATOM     21  O   UNL     1     -34.798  20.945   5.654  0.00  0.00    -0.384 OA
ATOM     22  H   UNL     1     -35.333  20.320   6.168  0.00  0.00    +0.210 HD
ENDBRANCH  20  21
BRANCH   7  23
ATOM     23  C   UNL     1     -30.483  28.098   0.928  0.00  0.00    +0.000 C 
ATOM     24  C   UNL     1     -29.247  27.291   0.516  0.00  0.00    +0.000 C 
BRANCH  23  25
ATOM     25  C   UNL     1     -30.102  29.586   1.056  0.00  0.00    +0.010 C 
BRANCH  25  26
ATOM     26  C   UNL     1     -31.099  30.527   0.380  0.00  0.00    +0.085 C 
BRANCH  26  29
ATOM     27  O   UNL     1     -31.031  31.987   2.309  0.00  0.00    -0.275 OA
ATOM     28  N   UNL     1     -32.925  31.979   0.962  0.00  0.00    -0.303 N 
ATOM     29  C   UNL     1     -31.653  31.569   1.337  0.00  0.00    +0.223 C 
ATOM     30  H   UNL     1     -33.330  31.577   0.161  0.00  0.00    +0.149 HD
BRANCH  28  31
ATOM     31  C   UNL     1     -33.681  32.970   1.693  0.00  0.00    +0.115 C 
BRANCH  31  32
ATOM     32  C   UNL     1     -35.152  32.954   1.325  0.00  0.00    +0.179 C 
BRANCH  32  33
ATOM     33  S   UNL     1     -35.939  31.437   1.771  0.00  0.00    +0.024 S 
ATOM     34  O   UNL     1     -35.614  30.618   0.399  0.00  0.00    -0.069 OA
ATOM     35  O   UNL     1     -37.371  31.658   1.856  0.00  0.00    -0.069 OA
ATOM     36  O   UNL     1     -35.199  30.832   2.863  0.00  0.00    -0.069 OA
ENDBRANCH  32  33
ENDBRANCH  31  32
ENDBRANCH  28  31
ENDBRANCH  26  29
ENDBRANCH  25  26
ENDBRANCH  23  25
ENDBRANCH   7  23
TORSDOF 8
ENDMDL
MODEL 6
REMARK VINA RESULT:      -6.4      1.411      1.722
REMARK  Name = 195866
REMARK  8 active torsions:
REMARK  status: ('A' for Active; 'I' for Inactive)
REMARK    1  A    between atoms: C_7  and  C_23
REMARK    2  A    between atoms: C_20  and  O_21
REMARK    3  A    between atoms: C_23  and  C_25
REMARK    4  A    between atoms: C_25  and  C_26
REMARK    5  A    between atoms: C_26  and  C_29
REMARK    6  A    between atoms: N_28  and  C_31
REMARK    7  A    between atoms: C_31  and  C_32
REMARK    8  A    between atoms: C_32  and  S_33
REMARK                            x       y       z     vdW  Elec       q    Type
REMARK                         _______ _______ _______ _____ _____    ______ ____
ROOT
ATOM      1  O   UNL     1     -39.473  20.699   0.358  0.00  0.00    -0.296 OA
ATOM      2  C   UNL     1     -35.758  21.684   2.437  0.00  0.00    +0.000 C 
ATOM      3  C   UNL     1     -37.146  21.371   1.828  0.00  0.00    +0.007 C 
ATOM      4  C   UNL     1     -36.204  19.456   0.480  0.00  0.00    +0.007 C 
ATOM      5  C   UNL     1     -37.044  20.771   0.422  0.00  0.00    +0.058 C 
ATOM      6  C   UNL     1     -36.074  18.773  -0.939  0.00  0.00    +0.001 C 
ATOM      7  C   UNL     1     -36.210  22.312   3.777  0.00  0.00    +0.000 C 
ATOM      8  C   UNL     1     -34.993  20.364   2.573  0.00  0.00    +0.000 C 
ATOM      9  C   UNL     1     -34.854  19.650   1.218  0.00  0.00    +0.000 C 
ATOM     10  C   UNL     1     -37.912  22.678   2.028  0.00  0.00    +0.000 C 
ATOM     11  C   UNL     1     -37.504  18.521  -1.531  0.00  0.00    +0.010 C 
ATOM     12  C   UNL     1     -37.392  23.221   3.373  0.00  0.00    +0.000 C 
ATOM     13  C   UNL     1     -38.403  20.433  -0.183  0.00  0.00    +0.150 C 
ATOM     14  C   UNL     1     -35.324  17.411  -0.875  0.00  0.00    +0.003 C 
ATOM     15  C   UNL     1     -38.366  19.790  -1.551  0.00  0.00    +0.065 C 
ATOM     16  C   UNL     1     -34.916  22.690   1.609  0.00  0.00    +0.000 C 
ATOM     17  C   UNL     1     -38.261  17.390  -0.802  0.00  0.00    +0.030 C 
ATOM     18  C   UNL     1     -35.264  19.665  -1.914  0.00  0.00    +0.000 C 
ATOM     19  C   UNL     1     -36.082  16.323  -0.124  0.00  0.00    +0.029 C 
ATOM     20  C   UNL     1     -37.458  16.096  -0.737  0.00  0.00    +0.111 C 
ENDROOT
BRANCH  20  21
ATOM     21  O   UNL     1     -38.180  15.152   0.045  0.00  0.00    -0.384 OA
ATOM     22  H   UNL     1     -38.162  14.287  -0.393  0.00  0.00    +0.210 HD
ENDBRANCH  20  21
BRANCH   7  23
ATOM     23  C   UNL     1     -35.145  23.048   4.580  0.00  0.00    +0.000 C 
ATOM     24  C   UNL     1     -34.871  22.304   5.892  0.00  0.00    +0.000 C 
BRANCH  23  25
ATOM     25  C   UNL     1     -35.536  24.506   4.891  0.00  0.00    +0.010 C 
BRANCH  25  26
ATOM     26  C   UNL     1     -34.352  25.369   5.330  0.00  0.00    +0.085 C 
BRANCH  26  29
ATOM     27  O   UNL     1     -35.230  27.267   4.110  0.00  0.00    -0.275 OA
ATOM     28  N   UNL     1     -32.930  27.052   4.368  0.00  0.00    -0.303 N 
ATOM     29  C   UNL     1     -34.251  26.660   4.535  0.00  0.00    +0.223 C 
ATOM     30  H   UNL     1     -32.222  26.488   4.752  0.00  0.00    +0.149 HD
BRANCH  28  31
ATOM     31  C   UNL     1     -32.547  28.250   3.657  0.00  0.00    +0.115 C 
BRANCH  31  32
ATOM     32  C   UNL     1     -32.205  27.971   2.206  0.00  0.00    +0.179 C 
BRANCH  32  33
ATOM     33  S   UNL     1     -30.637  27.181   2.025  0.00  0.00    +0.024 S 
ATOM     34  O   UNL     1     -31.182  25.760   1.439  0.00  0.00    -0.069 OA
ATOM     35  O   UNL     1     -30.069  26.957   3.341  0.00  0.00    -0.069 OA
ATOM     36  O   UNL     1     -29.891  27.860   0.982  0.00  0.00    -0.069 OA
ENDBRANCH  32  33
ENDBRANCH  31  32
ENDBRANCH  28  31
ENDBRANCH  26  29
ENDBRANCH  25  26
ENDBRANCH  23  25
ENDBRANCH   7  23
TORSDOF 8
ENDMDL
MODEL 7
REMARK VINA RESULT:      -6.4      4.224     10.099
REMARK  Name = 195866
REMARK  8 active torsions:
REMARK  status: ('A' for Active; 'I' for Inactive)
REMARK    1  A    between atoms: C_7  and  C_23
REMARK    2  A    between atoms: C_20  and  O_21
REMARK    3  A    between atoms: C_23  and  C_25
REMARK    4  A    between atoms: C_25  and  C_26
REMARK    5  A    between atoms: C_26  and  C_29
REMARK    6  A    between atoms: N_28  and  C_31
REMARK    7  A    between atoms: C_31  and  C_32
REMARK    8  A    between atoms: C_32  and  S_33
REMARK                            x       y       z     vdW  Elec       q    Type
REMARK                         _______ _______ _______ _____ _____    ______ ____
ROOT
ATOM      1  O   UNL     1     -34.013  25.086   0.257  0.00  0.00    -0.296 OA
ATOM      2  C   UNL     1     -34.973  20.982   1.407  0.00  0.00    +0.000 C 
ATOM      3  C   UNL     1     -34.511  22.380   0.933  0.00  0.00    +0.007 C 
ATOM      4  C   UNL     1     -35.373  23.463   3.043  0.00  0.00    +0.007 C 
ATOM      5  C   UNL     1     -35.394  23.504   1.482  0.00  0.00    +0.058 C 
ATOM      6  C   UNL     1     -36.252  24.612   3.678  0.00  0.00    +0.001 C 
ATOM      7  C   UNL     1     -33.946  20.108   0.648  0.00  0.00    +0.000 C 
ATOM      8  C   UNL     1     -34.850  20.936   2.934  0.00  0.00    +0.000 C 
ATOM      9  C   UNL     1     -35.677  22.048   3.601  0.00  0.00    +0.000 C 
ATOM     10  C   UNL     1     -34.382  22.204  -0.579  0.00  0.00    +0.000 C 
ATOM     11  C   UNL     1     -35.774  26.001   3.129  0.00  0.00    +0.010 C 
ATOM     12  C   UNL     1     -33.883  20.757  -0.753  0.00  0.00    +0.000 C 
ATOM     13  C   UNL     1     -34.936  24.892   1.044  0.00  0.00    +0.150 C 
ATOM     14  C   UNL     1     -36.158  24.641   5.232  0.00  0.00    +0.003 C 
ATOM     15  C   UNL     1     -35.738  26.048   1.597  0.00  0.00    +0.065 C 
ATOM     16  C   UNL     1     -36.423  20.621   0.993  0.00  0.00    +0.000 C 
ATOM     17  C   UNL     1     -34.402  26.426   3.695  0.00  0.00    +0.030 C 
ATOM     18  C   UNL     1     -37.753  24.416   3.342  0.00  0.00    +0.000 C 
ATOM     19  C   UNL     1     -34.784  25.035   5.761  0.00  0.00    +0.029 C 
ATOM     20  C   UNL     1     -34.361  26.395   5.218  0.00  0.00    +0.111 C 
ENDROOT
BRANCH  20  21
ATOM     21  O   UNL     1     -33.035  26.688   5.644  0.00  0.00    -0.384 OA
ATOM     22  H   UNL     1     -32.433  25.998   5.324  0.00  0.00    +0.210 HD
ENDBRANCH  20  21
BRANCH   7  23
ATOM     23  C   UNL     1     -34.229  18.613   0.596  0.00  0.00    +0.000 C 
ATOM     24  C   UNL     1     -32.982  17.829   1.020  0.00  0.00    +0.000 C 
BRANCH  23  25
ATOM     25  C   UNL     1     -34.679  18.140  -0.801  0.00  0.00    +0.010 C 
BRANCH  25  26
ATOM     26  C   UNL     1     -34.222  16.720  -1.136  0.00  0.00    +0.085 C 
BRANCH  26  29
ATOM     27  O   UNL     1     -35.571  14.978  -0.136  0.00  0.00    -0.275 OA
ATOM     28  N   UNL     1     -36.123  15.762  -2.253  0.00  0.00    -0.303 N 
ATOM     29  C   UNL     1     -35.363  15.718  -1.093  0.00  0.00    +0.223 C 
ATOM     30  H   UNL     1     -35.864  16.397  -2.959  0.00  0.00    +0.149 HD
BRANCH  28  31
ATOM     31  C   UNL     1     -37.276  14.920  -2.472  0.00  0.00    +0.115 C 
BRANCH  31  32
ATOM     32  C   UNL     1     -38.568  15.714  -2.509  0.00  0.00    +0.179 C 
BRANCH  32  33
ATOM     33  S   UNL     1     -39.231  15.993  -0.896  0.00  0.00    +0.024 S 
ATOM     34  O   UNL     1     -38.301  17.275  -0.504  0.00  0.00    -0.069 OA
ATOM     35  O   UNL     1     -38.873  14.876  -0.041  0.00  0.00    -0.069 OA
ATOM     36  O   UNL     1     -40.606  16.438  -1.029  0.00  0.00    -0.069 OA
ENDBRANCH  32  33
ENDBRANCH  31  32
ENDBRANCH  28  31
ENDBRANCH  26  29
ENDBRANCH  25  26
ENDBRANCH  23  25
ENDBRANCH   7  23
TORSDOF 8
ENDMDL
MODEL 8
REMARK VINA RESULT:      -6.4      3.567     10.435
REMARK  Name = 195866
REMARK  8 active torsions:
REMARK  status: ('A' for Active; 'I' for Inactive)
REMARK    1  A    between atoms: C_7  and  C_23
REMARK    2  A    between atoms: C_20  and  O_21
REMARK    3  A    between atoms: C_23  and  C_25
REMARK    4  A    between atoms: C_25  and  C_26
REMARK    5  A    between atoms: C_26  and  C_29
REMARK    6  A    between atoms: N_28  and  C_31
REMARK    7  A    between atoms: C_31  and  C_32
REMARK    8  A    between atoms: C_32  and  S_33
REMARK                            x       y       z     vdW  Elec       q    Type
REMARK                         _______ _______ _______ _____ _____    ______ ____
ROOT
ATOM      1  O   UNL     1     -31.132  27.237   1.634  0.00  0.00    -0.296 OA
ATOM      2  C   UNL     1     -34.119  25.820   4.490  0.00  0.00    +0.000 C 
ATOM      3  C   UNL     1     -33.048  26.179   3.433  0.00  0.00    +0.007 C 
ATOM      4  C   UNL     1     -32.051  27.946   4.935  0.00  0.00    +0.007 C 
ATOM      5  C   UNL     1     -32.620  27.647   3.511  0.00  0.00    +0.058 C 
ATOM      6  C   UNL     1     -31.573  29.444   5.079  0.00  0.00    +0.001 C 
ATOM      7  C   UNL     1     -34.364  24.341   4.106  0.00  0.00    +0.000 C 
ATOM      8  C   UNL     1     -33.502  26.029   5.878  0.00  0.00    +0.000 C 
ATOM      9  C   UNL     1     -33.004  27.472   6.063  0.00  0.00    +0.000 C 
ATOM     10  C   UNL     1     -33.655  25.647   2.136  0.00  0.00    +0.000 C 
ATOM     11  C   UNL     1     -30.526  29.770   3.957  0.00  0.00    +0.010 C 
ATOM     12  C   UNL     1     -34.402  24.369   2.562  0.00  0.00    +0.000 C 
ATOM     13  C   UNL     1     -31.546  28.012   2.491  0.00  0.00    +0.150 C 
ATOM     14  C   UNL     1     -30.912  29.726   6.461  0.00  0.00    +0.003 C 
ATOM     15  C   UNL     1     -31.045  29.437   2.553  0.00  0.00    +0.065 C 
ATOM     16  C   UNL     1     -35.426  26.647   4.374  0.00  0.00    +0.000 C 
ATOM     17  C   UNL     1     -29.168  29.074   4.188  0.00  0.00    +0.030 C 
ATOM     18  C   UNL     1     -32.768  30.425   4.966  0.00  0.00    +0.000 C 
ATOM     19  C   UNL     1     -29.588  29.002   6.672  0.00  0.00    +0.029 C 
ATOM     20  C   UNL     1     -28.594  29.355   5.572  0.00  0.00    +0.111 C 
ENDROOT
BRANCH  20  21
ATOM     21  O   UNL     1     -27.407  28.587   5.737  0.00  0.00    -0.384 OA
ATOM     22  H   UNL     1     -26.975  28.470   4.876  0.00  0.00    +0.210 HD
ENDBRANCH  20  21
BRANCH   7  23
ATOM     23  C   UNL     1     -35.586  23.670   4.717  0.00  0.00    +0.000 C 
ATOM     24  C   UNL     1     -35.188  22.913   5.989  0.00  0.00    +0.000 C 
BRANCH  23  25
ATOM     25  C   UNL     1     -36.283  22.700   3.742  0.00  0.00    +0.010 C 
BRANCH  25  26
ATOM     26  C   UNL     1     -35.599  21.335   3.653  0.00  0.00    +0.085 C 
BRANCH  26  29
ATOM     27  O   UNL     1     -35.126  19.921   1.747  0.00  0.00    -0.275 OA
ATOM     28  N   UNL     1     -37.265  20.790   2.008  0.00  0.00    -0.303 N 
ATOM     29  C   UNL     1     -35.939  20.599   2.368  0.00  0.00    +0.223 C 
ATOM     30  H   UNL     1     -37.829  21.356   2.581  0.00  0.00    +0.149 HD
BRANCH  28  31
ATOM     31  C   UNL     1     -37.856  20.195   0.831  0.00  0.00    +0.115 C 
BRANCH  31  32
ATOM     32  C   UNL     1     -38.673  21.194   0.033  0.00  0.00    +0.179 C 
BRANCH  32  33
ATOM     33  S   UNL     1     -39.935  21.957   1.003  0.00  0.00    +0.024 S 
ATOM     34  O   UNL     1     -39.082  23.269   1.465  0.00  0.00    -0.069 OA
ATOM     35  O   UNL     1     -40.194  21.134   2.169  0.00  0.00    -0.069 OA
ATOM     36  O   UNL     1     -41.006  22.384   0.121  0.00  0.00    -0.069 OA
ENDBRANCH  32  33
ENDBRANCH  31  32
ENDBRANCH  28  31
ENDBRANCH  26  29
ENDBRANCH  25  26
ENDBRANCH  23  25
ENDBRANCH   7  23
TORSDOF 8
ENDMDL
MODEL 9
REMARK VINA RESULT:      -6.2      3.466      4.967
REMARK  Name = 195866
REMARK  8 active torsions:
REMARK  status: ('A' for Active; 'I' for Inactive)
REMARK    1  A    between atoms: C_7  and  C_23
REMARK    2  A    between atoms: C_20  and  O_21
REMARK    3  A    between atoms: C_23  and  C_25
REMARK    4  A    between atoms: C_25  and  C_26
REMARK    5  A    between atoms: C_26  and  C_29
REMARK    6  A    between atoms: N_28  and  C_31
REMARK    7  A    between atoms: C_31  and  C_32
REMARK    8  A    between atoms: C_32  and  S_33
REMARK                            x       y       z     vdW  Elec       q    Type
REMARK                         _______ _______ _______ _____ _____    ______ ____
ROOT
ATOM      1  O   UNL     1     -34.836  17.154  -2.883  0.00  0.00    -0.296 OA
ATOM      2  C   UNL     1     -33.690  19.555   0.583  0.00  0.00    +0.000 C 
ATOM      3  C   UNL     1     -34.238  18.724  -0.601  0.00  0.00    +0.007 C 
ATOM      4  C   UNL     1     -32.262  17.156  -0.512  0.00  0.00    +0.007 C 
ATOM      5  C   UNL     1     -33.122  18.082  -1.430  0.00  0.00    +0.058 C 
ATOM      6  C   UNL     1     -31.099  16.446  -1.310  0.00  0.00    +0.001 C 
ATOM      7  C   UNL     1     -35.025  20.095   1.149  0.00  0.00    +0.000 C 
ATOM      8  C   UNL     1     -32.934  18.605   1.518  0.00  0.00    +0.000 C 
ATOM      9  C   UNL     1     -31.799  17.874   0.782  0.00  0.00    +0.000 C 
ATOM     10  C   UNL     1     -35.210  19.690  -1.278  0.00  0.00    +0.000 C 
ATOM     11  C   UNL     1     -31.702  15.658  -2.525  0.00  0.00    +0.010 C 
ATOM     12  C   UNL     1     -35.821  20.493  -0.114  0.00  0.00    +0.000 C 
ATOM     13  C   UNL     1     -33.647  17.238  -2.587  0.00  0.00    +0.150 C 
ATOM     14  C   UNL     1     -30.298  15.445  -0.426  0.00  0.00    +0.003 C 
ATOM     15  C   UNL     1     -32.593  16.536  -3.412  0.00  0.00    +0.065 C 
ATOM     16  C   UNL     1     -32.756  20.719   0.160  0.00  0.00    +0.000 C 
ATOM     17  C   UNL     1     -32.482  14.399  -2.090  0.00  0.00    +0.030 C 
ATOM     18  C   UNL     1     -30.068  17.480  -1.831  0.00  0.00    +0.000 C 
ATOM     19  C   UNL     1     -31.103  14.227   0.012  0.00  0.00    +0.029 C 
ATOM     20  C   UNL     1     -31.659  13.480  -1.194  0.00  0.00    +0.111 C 
ENDROOT
BRANCH  20  21
ATOM     21  O   UNL     1     -32.490  12.412  -0.752  0.00  0.00    -0.384 OA
ATOM     22  H   UNL     1     -32.934  12.010  -1.516  0.00  0.00    +0.210 HD
ENDBRANCH  20  21
BRANCH   7  23
ATOM     23  C   UNL     1     -34.929  21.223   2.168  0.00  0.00    +0.000 C 
ATOM     24  C   UNL     1     -35.238  20.689   3.571  0.00  0.00    +0.000 C 
BRANCH  23  25
ATOM     25  C   UNL     1     -35.876  22.397   1.848  0.00  0.00    +0.010 C 
BRANCH  25  26
ATOM     26  C   UNL     1     -36.989  22.575   2.880  0.00  0.00    +0.085 C 
BRANCH  26  29
ATOM     27  O   UNL     1     -38.241  24.431   3.802  0.00  0.00    -0.275 OA
ATOM     28  N   UNL     1     -36.181  24.838   2.808  0.00  0.00    -0.303 N 
ATOM     29  C   UNL     1     -37.233  24.035   3.223  0.00  0.00    +0.223 C 
ATOM     30  H   UNL     1     -35.419  24.414   2.352  0.00  0.00    +0.149 HD
BRANCH  28  31
ATOM     31  C   UNL     1     -36.149  26.268   3.016  0.00  0.00    +0.115 C 
BRANCH  31  32
ATOM     32  C   UNL     1     -34.827  26.734   3.596  0.00  0.00    +0.179 C 
BRANCH  32  33
ATOM     33  S   UNL     1     -34.503  26.029   5.182  0.00  0.00    +0.024 S 
ATOM     34  O   UNL     1     -33.734  24.687   4.664  0.00  0.00    -0.069 OA
ATOM     35  O   UNL     1     -35.762  25.641   5.790  0.00  0.00    -0.069 OA
ATOM     36  O   UNL     1     -33.550  26.872   5.880  0.00  0.00    -0.069 OA
ENDBRANCH  32  33
ENDBRANCH  31  32
ENDBRANCH  28  31
ENDBRANCH  26  29
ENDBRANCH  25  26
ENDBRANCH  23  25
ENDBRANCH   7  23
TORSDOF 8
ENDMDL
