MODEL 1
REMARK VINA RESULT:      -7.3      0.000      0.000
REMARK  Name = 189780
REMARK  9 active torsions:
REMARK  status: ('A' for Active; 'I' for Inactive)
REMARK    1  A    between atoms: C_4  and  O_16
REMARK    2  A    between atoms: C_4  and  C_30
REMARK    3  A    between atoms: C_10  and  C_19
REMARK    4  A    between atoms: CA_12  and  C_23
REMARK    5  A    between atoms: CA_14  and  C_27
REMARK    6  A    between atoms: C_19  and  O_20
REMARK    7  A    between atoms: C_23  and  O_24
REMARK    8  A    between atoms: C_27  and  O_28
REMARK    9  A    between atoms: C_30  and  C_32
REMARK                            x       y       z     vdW  Elec       q    Type
REMARK                         _______ _______ _______ _____ _____    ______ ____
ROOT
ATOM      1  O   UNL     1     -34.758  20.696   3.816  0.00  0.00    -0.288 OA
ATOM      2  N   UNL     1     -36.983  24.660   4.014  0.00  0.00    -0.310 N 
ATOM      3  N   UNL     1     -38.711  21.099   1.064  0.00  0.00    -0.400 NA
ATOM      4  C   UNL     1     -36.543  20.865   2.188  0.00  0.00    +0.193 C 
ATOM      5  C   UNL     1     -37.814  21.667   1.911  0.00  0.00    +0.128 C 
ATOM      6  C   UNL     1     -38.020  22.935   2.477  0.00  0.00    +0.115 C 
ATOM      7  C   UNL     1     -37.013  23.439   3.391  0.00  0.00    +0.039 C 
ATOM      8  C   UNL     1     -35.905  22.730   3.813  0.00  0.00    +0.049 C 
ATOM      9  C   UNL     1     -35.655  21.385   3.334  0.00  0.00    +0.204 C 
ATOM     10  C   UNL     1     -39.184  23.630   2.151  0.00  0.00    +0.067 C 
ATOM     11  C   UNL     1     -35.192  23.544   4.726  0.00  0.00    +0.025 C 
ATOM     12  CA  UNL     1     -35.880  24.734   4.828  0.00  0.00    +0.125 C 
ATOM     13  C   UNL     1     -40.107  23.058   1.282  0.00  0.00    +0.042 C 
ATOM     14  CA  UNL     1     -39.827  21.804   0.773  0.00  0.00    +0.206 C 
ATOM     15  H   UNL     1     -37.651  25.374   3.897  0.00  0.00    +0.152 HD
ENDROOT
BRANCH   4  16
ATOM     16  O   UNL     1     -36.893  19.534   2.565  0.00  0.00    -0.373 OA
ATOM     17  H   UNL     1     -36.559  19.352   3.457  0.00  0.00    +0.211 HD
ENDBRANCH   4  16
BRANCH  10  19
ATOM     18  O   UNL     1     -39.422  26.008   2.050  0.00  0.00    -0.245 OA
ATOM     19  C   UNL     1     -39.550  24.945   2.662  0.00  0.00    +0.335 C 
BRANCH  19  20
ATOM     20  O   UNL     1     -40.064  24.886   3.920  0.00  0.00    -0.477 OA
ATOM     21  H   UNL     1     -40.503  24.112   4.211  0.00  0.00    +0.295 HD
ENDBRANCH  19  20
ENDBRANCH  10  19
BRANCH  12  23
ATOM     22  OXT UNL     1     -34.432  26.160   6.090  0.00  0.00    -0.244 OA
ATOM     23  C   UNL     1     -35.555  25.877   5.622  0.00  0.00    +0.352 C 
BRANCH  23  24
ATOM     24  O   UNL     1     -36.626  26.703   5.853  0.00  0.00    -0.476 OA
ATOM     25  H   UNL     1     -36.513  27.487   6.353  0.00  0.00    +0.295 HD
ENDBRANCH  23  24
ENDBRANCH  12  23
BRANCH  14  27
ATOM     26  OXT UNL     1     -40.579  20.071  -0.695  0.00  0.00    -0.242 OA
ATOM     27  C   UNL     1     -40.759  21.157  -0.134  0.00  0.00    +0.368 C 
BRANCH  27  28
ATOM     28  O   UNL     1     -41.897  21.884  -0.318  0.00  0.00    -0.475 OA
ATOM     29  H   UNL     1     -42.303  21.914  -1.162  0.00  0.00    +0.295 HD
ENDBRANCH  27  28
ENDBRANCH  14  27
BRANCH   4  30
ATOM     30  C   UNL     1     -35.688  20.785   0.921  0.00  0.00    +0.105 C 
BRANCH  30  32
ATOM     31  O   UNL     1     -36.071  18.558   0.065  0.00  0.00    -0.296 OA
ATOM     32  C   UNL     1     -35.299  19.363   0.583  0.00  0.00    +0.154 C 
ATOM     33  C   UNL     1     -33.884  18.974   0.925  0.00  0.00    +0.072 C 
ENDBRANCH  30  32
ENDBRANCH   4  30
TORSDOF 9
ENDMDL
MODEL 2
REMARK VINA RESULT:      -6.7      3.018      6.096
REMARK  Name = 189780
REMARK  9 active torsions:
REMARK  status: ('A' for Active; 'I' for Inactive)
REMARK    1  A    between atoms: C_4  and  O_16
REMARK    2  A    between atoms: C_4  and  C_30
REMARK    3  A    between atoms: C_10  and  C_19
REMARK    4  A    between atoms: CA_12  and  C_23
REMARK    5  A    between atoms: CA_14  and  C_27
REMARK    6  A    between atoms: C_19  and  O_20
REMARK    7  A    between atoms: C_23  and  O_24
REMARK    8  A    between atoms: C_27  and  O_28
REMARK    9  A    between atoms: C_30  and  C_32
REMARK                            x       y       z     vdW  Elec       q    Type
REMARK                         _______ _______ _______ _____ _____    ______ ____
ROOT
ATOM      1  O   UNL     1     -38.166  26.279   0.480  0.00  0.00    -0.288 OA
ATOM      2  N   UNL     1     -35.021  28.001   3.283  0.00  0.00    -0.310 N 
ATOM      3  N   UNL     1     -36.505  23.338   3.939  0.00  0.00    -0.400 NA
ATOM      4  C   UNL     1     -37.631  24.806   2.327  0.00  0.00    +0.193 C 
ATOM      5  C   UNL     1     -36.539  24.571   3.370  0.00  0.00    +0.128 C 
ATOM      6  C   UNL     1     -35.646  25.589   3.740  0.00  0.00    +0.115 C 
ATOM      7  C   UNL     1     -35.749  26.862   3.051  0.00  0.00    +0.039 C 
ATOM      8  C   UNL     1     -36.605  27.122   1.999  0.00  0.00    +0.049 C 
ATOM      9  C   UNL     1     -37.510  26.103   1.506  0.00  0.00    +0.204 C 
ATOM     10  C   UNL     1     -34.699  25.319   4.727  0.00  0.00    +0.067 C 
ATOM     11  C   UNL     1     -36.380  28.454   1.577  0.00  0.00    +0.025 C 
ATOM     12  CA  UNL     1     -35.397  28.975   2.392  0.00  0.00    +0.125 C 
ATOM     13  C   UNL     1     -34.659  24.062   5.317  0.00  0.00    +0.042 C 
ATOM     14  CA  UNL     1     -35.572  23.116   4.891  0.00  0.00    +0.206 C 
ATOM     15  H   UNL     1     -34.334  28.104   3.980  0.00  0.00    +0.152 HD
ENDROOT
BRANCH   4  16
ATOM     16  O   UNL     1     -37.603  23.753   1.364  0.00  0.00    -0.373 OA
ATOM     17  H   UNL     1     -38.509  23.463   1.176  0.00  0.00    +0.211 HD
ENDBRANCH   4  16
BRANCH  10  19
ATOM     18  O   UNL     1     -33.698  26.791   6.325  0.00  0.00    -0.245 OA
ATOM     19  C   UNL     1     -33.698  26.262   5.212  0.00  0.00    +0.335 C 
BRANCH  19  20
ATOM     20  O   UNL     1     -32.730  26.508   4.288  0.00  0.00    -0.477 OA
ATOM     21  H   UNL     1     -32.921  26.427   3.375  0.00  0.00    +0.295 HD
ENDBRANCH  19  20
ENDBRANCH  10  19
BRANCH  12  23
ATOM     22  OXT UNL     1     -34.416  30.893   1.353  0.00  0.00    -0.244 OA
ATOM     23  C   UNL     1     -34.829  30.286   2.363  0.00  0.00    +0.352 C 
BRANCH  23  24
ATOM     24  O   UNL     1     -34.761  30.878   3.598  0.00  0.00    -0.476 OA
ATOM     25  H   UNL     1     -33.936  31.172   3.931  0.00  0.00    +0.295 HD
ENDBRANCH  23  24
ENDBRANCH  12  23
BRANCH  14  27
ATOM     26  OXT UNL     1     -35.035  20.786   4.975  0.00  0.00    -0.242 OA
ATOM     27  C   UNL     1     -35.571  21.784   5.470  0.00  0.00    +0.368 C 
BRANCH  27  28
ATOM     28  O   UNL     1     -36.238  21.729   6.656  0.00  0.00    -0.475 OA
ATOM     29  H   UNL     1     -37.113  21.396   6.687  0.00  0.00    +0.295 HD
ENDBRANCH  27  28
ENDBRANCH  14  27
BRANCH   4  30
ATOM     30  C   UNL     1     -39.007  24.792   2.997  0.00  0.00    +0.105 C 
BRANCH  30  32
ATOM     31  O   UNL     1     -39.951  22.663   2.353  0.00  0.00    -0.296 OA
ATOM     32  C   UNL     1     -39.984  23.890   2.277  0.00  0.00    +0.154 C 
ATOM     33  C   UNL     1     -41.024  24.589   1.441  0.00  0.00    +0.072 C 
ENDBRANCH  30  32
ENDBRANCH   4  30
TORSDOF 9
ENDMDL
MODEL 3
REMARK VINA RESULT:      -6.0      1.491      7.150
REMARK  Name = 189780
REMARK  9 active torsions:
REMARK  status: ('A' for Active; 'I' for Inactive)
REMARK    1  A    between atoms: C_4  and  O_16
REMARK    2  A    between atoms: C_4  and  C_30
REMARK    3  A    between atoms: C_10  and  C_19
REMARK    4  A    between atoms: CA_12  and  C_23
REMARK    5  A    between atoms: CA_14  and  C_27
REMARK    6  A    between atoms: C_19  and  O_20
REMARK    7  A    between atoms: C_23  and  O_24
REMARK    8  A    between atoms: C_27  and  O_28
REMARK    9  A    between atoms: C_30  and  C_32
REMARK                            x       y       z     vdW  Elec       q    Type
REMARK                         _______ _______ _______ _____ _____    ______ ____
ROOT
ATOM      1  O   UNL     1     -41.317  23.459   1.092  0.00  0.00    -0.288 OA
ATOM      2  N   UNL     1     -37.635  20.787   1.042  0.00  0.00    -0.310 N 
ATOM      3  N   UNL     1     -37.569  24.888   3.790  0.00  0.00    -0.400 NA
ATOM      4  C   UNL     1     -39.425  24.428   2.253  0.00  0.00    +0.193 C 
ATOM      5  C   UNL     1     -38.096  24.020   2.887  0.00  0.00    +0.128 C 
ATOM      6  C   UNL     1     -37.445  22.831   2.525  0.00  0.00    +0.115 C 
ATOM      7  C   UNL     1     -38.106  21.961   1.571  0.00  0.00    +0.039 C 
ATOM      8  C   UNL     1     -39.368  22.173   1.054  0.00  0.00    +0.049 C 
ATOM      9  C   UNL     1     -40.141  23.340   1.431  0.00  0.00    +0.204 C 
ATOM     10  C   UNL     1     -36.215  22.539   3.114  0.00  0.00    +0.067 C 
ATOM     11  C   UNL     1     -39.673  21.090   0.195  0.00  0.00    +0.025 C 
ATOM     12  CA  UNL     1     -38.580  20.249   0.204  0.00  0.00    +0.125 C 
ATOM     13  C   UNL     1     -35.666  23.421   4.037  0.00  0.00    +0.042 C 
ATOM     14  CA  UNL     1     -36.376  24.568   4.339  0.00  0.00    +0.206 C 
ATOM     15  H   UNL     1     -36.755  20.389   1.234  0.00  0.00    +0.152 HD
ENDROOT
BRANCH   4  16
ATOM     16  O   UNL     1     -40.351  24.790   3.277  0.00  0.00    -0.373 OA
ATOM     17  H   UNL     1     -39.865  25.086   4.062  0.00  0.00    +0.211 HD
ENDBRANCH   4  16
BRANCH  10  19
ATOM     18  O   UNL     1     -34.850  21.084   1.793  0.00  0.00    -0.245 OA
ATOM     19  C   UNL     1     -35.421  21.343   2.855  0.00  0.00    +0.335 C 
BRANCH  19  20
ATOM     20  O   UNL     1     -35.368  20.515   3.933  0.00  0.00    -0.477 OA
ATOM     21  H   UNL     1     -34.731  20.659   4.604  0.00  0.00    +0.295 HD
ENDBRANCH  19  20
ENDBRANCH  10  19
BRANCH  12  23
ATOM     22  OXT UNL     1     -37.318  18.451  -0.741  0.00  0.00    -0.244 OA
ATOM     23  C   UNL     1     -38.403  19.023  -0.508  0.00  0.00    +0.352 C 
BRANCH  23  24
ATOM     24  O   UNL     1     -39.580  18.474  -0.950  0.00  0.00    -0.476 OA
ATOM     25  H   UNL     1     -40.299  19.030  -1.178  0.00  0.00    +0.295 HD
ENDBRANCH  23  24
ENDBRANCH  12  23
BRANCH  14  27
ATOM     26  OXT UNL     1     -34.766  25.431   5.884  0.00  0.00    -0.242 OA
ATOM     27  C   UNL     1     -35.852  25.522   5.301  0.00  0.00    +0.368 C 
BRANCH  27  28
ATOM     28  O   UNL     1     -36.698  26.569   5.511  0.00  0.00    -0.475 OA
ATOM     29  H   UNL     1     -37.136  26.970   4.787  0.00  0.00    +0.295 HD
ENDBRANCH  27  28
ENDBRANCH  14  27
BRANCH   4  30
ATOM     30  C   UNL     1     -39.222  25.649   1.352  0.00  0.00    +0.105 C 
BRANCH  30  32
ATOM     31  O   UNL     1     -40.796  27.192   2.344  0.00  0.00    -0.296 OA
ATOM     32  C   UNL     1     -40.425  26.566   1.352  0.00  0.00    +0.154 C 
ATOM     33  C   UNL     1     -41.166  26.673   0.044  0.00  0.00    +0.072 C 
ENDBRANCH  30  32
ENDBRANCH   4  30
TORSDOF 9
ENDMDL
MODEL 4
REMARK VINA RESULT:      -5.9      2.996      7.426
REMARK  Name = 189780
REMARK  9 active torsions:
REMARK  status: ('A' for Active; 'I' for Inactive)
REMARK    1  A    between atoms: C_4  and  O_16
REMARK    2  A    between atoms: C_4  and  C_30
REMARK    3  A    between atoms: C_10  and  C_19
REMARK    4  A    between atoms: CA_12  and  C_23
REMARK    5  A    between atoms: CA_14  and  C_27
REMARK    6  A    between atoms: C_19  and  O_20
REMARK    7  A    between atoms: C_23  and  O_24
REMARK    8  A    between atoms: C_27  and  O_28
REMARK    9  A    between atoms: C_30  and  C_32
REMARK                            x       y       z     vdW  Elec       q    Type
REMARK                         _______ _______ _______ _____ _____    ______ ____
ROOT
ATOM      1  O   UNL     1     -38.243  26.663   0.463  0.00  0.00    -0.288 OA
ATOM      2  N   UNL     1     -37.527  22.809   2.774  0.00  0.00    -0.310 N 
ATOM      3  N   UNL     1     -34.676  26.726   3.724  0.00  0.00    -0.400 NA
ATOM      4  C   UNL     1     -36.260  26.743   1.851  0.00  0.00    +0.193 C 
ATOM      5  C   UNL     1     -35.630  26.034   3.049  0.00  0.00    +0.128 C 
ATOM      6  C   UNL     1     -35.998  24.728   3.405  0.00  0.00    +0.115 C 
ATOM      7  C   UNL     1     -37.048  24.087   2.636  0.00  0.00    +0.039 C 
ATOM      8  C   UNL     1     -37.773  24.697   1.631  0.00  0.00    +0.049 C 
ATOM      9  C   UNL     1     -37.507  26.069   1.249  0.00  0.00    +0.204 C 
ATOM     10  C   UNL     1     -35.355  24.125   4.486  0.00  0.00    +0.067 C 
ATOM     11  C   UNL     1     -38.724  23.763   1.156  0.00  0.00    +0.025 C 
ATOM     12  CA  UNL     1     -38.546  22.602   1.878  0.00  0.00    +0.125 C 
ATOM     13  C   UNL     1     -34.375  24.824   5.181  0.00  0.00    +0.042 C 
ATOM     14  CA  UNL     1     -34.077  26.108   4.766  0.00  0.00    +0.206 C 
ATOM     15  H   UNL     1     -37.192  22.143   3.417  0.00  0.00    +0.152 HD
ENDROOT
BRANCH   4  16
ATOM     16  O   UNL     1     -36.694  28.046   2.242  0.00  0.00    -0.373 OA
ATOM     17  H   UNL     1     -36.361  28.701   1.609  0.00  0.00    +0.211 HD
ENDBRANCH   4  16
BRANCH  10  19
ATOM     18  O   UNL     1     -36.162  22.523   6.068  0.00  0.00    -0.245 OA
ATOM     19  C   UNL     1     -35.630  22.784   4.987  0.00  0.00    +0.335 C 
BRANCH  19  20
ATOM     20  O   UNL     1     -35.232  21.816   4.118  0.00  0.00    -0.477 OA
ATOM     21  H   UNL     1     -34.695  22.036   3.384  0.00  0.00    +0.295 HD
ENDBRANCH  19  20
ENDBRANCH  10  19
BRANCH  12  23
ATOM     22  OXT UNL     1     -40.402  21.131   2.219  0.00  0.00    -0.244 OA
ATOM     23  C   UNL     1     -39.264  21.372   1.764  0.00  0.00    +0.352 C 
BRANCH  23  24
ATOM     24  O   UNL     1     -38.579  20.404   1.074  0.00  0.00    -0.476 OA
ATOM     25  H   UNL     1     -38.458  20.486   0.148  0.00  0.00    +0.295 HD
ENDBRANCH  23  24
ENDBRANCH  12  23
BRANCH  14  27
ATOM     26  OXT UNL     1     -32.108  27.457   4.927  0.00  0.00    -0.242 OA
ATOM     27  C   UNL     1     -33.065  26.886   5.460  0.00  0.00    +0.368 C 
BRANCH  27  28
ATOM     28  O   UNL     1     -33.275  26.933   6.805  0.00  0.00    -0.475 OA
ATOM     29  H   UNL     1     -33.714  26.226   7.237  0.00  0.00    +0.295 HD
ENDBRANCH  27  28
ENDBRANCH  14  27
BRANCH   4  30
ATOM     30  C   UNL     1     -35.224  26.909   0.737  0.00  0.00    +0.105 C 
BRANCH  30  32
ATOM     31  O   UNL     1     -34.530  29.212   0.971  0.00  0.00    -0.296 OA
ATOM     32  C   UNL     1     -35.086  28.349   0.294  0.00  0.00    +0.154 C 
ATOM     33  C   UNL     1     -35.681  28.679  -1.050  0.00  0.00    +0.072 C 
ENDBRANCH  30  32
ENDBRANCH   4  30
TORSDOF 9
ENDMDL
MODEL 5
REMARK VINA RESULT:      -5.8      3.391      6.000
REMARK  Name = 189780
REMARK  9 active torsions:
REMARK  status: ('A' for Active; 'I' for Inactive)
REMARK    1  A    between atoms: C_4  and  O_16
REMARK    2  A    between atoms: C_4  and  C_30
REMARK    3  A    between atoms: C_10  and  C_19
REMARK    4  A    between atoms: CA_12  and  C_23
REMARK    5  A    between atoms: CA_14  and  C_27
REMARK    6  A    between atoms: C_19  and  O_20
REMARK    7  A    between atoms: C_23  and  O_24
REMARK    8  A    between atoms: C_27  and  O_28
REMARK    9  A    between atoms: C_30  and  C_32
REMARK                            x       y       z     vdW  Elec       q    Type
REMARK                         _______ _______ _______ _____ _____    ______ ____
ROOT
ATOM      1  O   UNL     1     -32.710  25.933   3.241  0.00  0.00    -0.288 OA
ATOM      2  N   UNL     1     -36.526  23.685   4.286  0.00  0.00    -0.310 N 
ATOM      3  N   UNL     1     -36.779  27.482   1.140  0.00  0.00    -0.400 NA
ATOM      4  C   UNL     1     -34.703  26.980   2.348  0.00  0.00    +0.193 C 
ATOM      5  C   UNL     1     -36.161  26.656   2.024  0.00  0.00    +0.128 C 
ATOM      6  C   UNL     1     -36.828  25.584   2.636  0.00  0.00    +0.115 C 
ATOM      7  C   UNL     1     -36.070  24.745   3.546  0.00  0.00    +0.039 C 
ATOM      8  C   UNL     1     -34.717  24.872   3.791  0.00  0.00    +0.049 C 
ATOM      9  C   UNL     1     -33.936  25.907   3.143  0.00  0.00    +0.204 C 
ATOM     10  C   UNL     1     -38.170  25.368   2.324  0.00  0.00    +0.067 C 
ATOM     11  C   UNL     1     -34.344  23.851   4.698  0.00  0.00    +0.025 C 
ATOM     12  CA  UNL     1     -35.485  23.135   4.990  0.00  0.00    +0.125 C 
ATOM     13  C   UNL     1     -38.812  26.210   1.423  0.00  0.00    +0.042 C 
ATOM     14  CA  UNL     1     -38.079  27.239   0.863  0.00  0.00    +0.206 C 
ATOM     15  H   UNL     1     -37.458  23.367   4.308  0.00  0.00    +0.152 HD
ENDROOT
BRANCH   4  16
ATOM     16  O   UNL     1     -33.969  27.139   1.135  0.00  0.00    -0.373 OA
ATOM     17  H   UNL     1     -34.537  26.914   0.381  0.00  0.00    +0.211 HD
ENDBRANCH   4  16
BRANCH  10  19
ATOM     18  O   UNL     1     -39.046  23.145   2.423  0.00  0.00    -0.245 OA
ATOM     19  C   UNL     1     -38.997  24.295   2.863  0.00  0.00    +0.335 C 
BRANCH  19  20
ATOM     20  O   UNL     1     -39.732  24.697   3.935  0.00  0.00    -0.477 OA
ATOM     21  H   UNL     1     -39.318  24.828   4.765  0.00  0.00    +0.295 HD
ENDBRANCH  19  20
ENDBRANCH  10  19
BRANCH  12  23
ATOM     22  OXT UNL     1     -36.203  21.995   6.967  0.00  0.00    -0.244 OA
ATOM     23  C   UNL     1     -35.623  22.010   5.860  0.00  0.00    +0.352 C 
BRANCH  23  24
ATOM     24  O   UNL     1     -35.042  20.868   5.372  0.00  0.00    -0.476 OA
ATOM     25  H   UNL     1     -35.512  20.325   4.770  0.00  0.00    +0.295 HD
ENDBRANCH  23  24
ENDBRANCH  12  23
BRANCH  14  27
ATOM     26  OXT UNL     1     -39.528  27.827  -0.948  0.00  0.00    -0.242 OA
ATOM     27  C   UNL     1     -38.698  28.145  -0.089  0.00  0.00    +0.368 C 
BRANCH  27  28
ATOM     28  O   UNL     1     -38.266  29.429   0.055  0.00  0.00    -0.475 OA
ATOM     29  H   UNL     1     -38.475  30.070  -0.595  0.00  0.00    +0.295 HD
ENDBRANCH  27  28
ENDBRANCH  14  27
BRANCH   4  30
ATOM     30  C   UNL     1     -34.620  28.298   3.123  0.00  0.00    +0.105 C 
BRANCH  30  32
ATOM     31  O   UNL     1     -32.647  29.343   2.197  0.00  0.00    -0.296 OA
ATOM     32  C   UNL     1     -33.867  29.363   2.358  0.00  0.00    +0.154 C 
ATOM     33  C   UNL     1     -34.707  30.478   1.791  0.00  0.00    +0.072 C 
ENDBRANCH  30  32
ENDBRANCH   4  30
TORSDOF 9
ENDMDL
MODEL 6
REMARK VINA RESULT:      -5.7      3.696      5.458
REMARK  Name = 189780
REMARK  9 active torsions:
REMARK  status: ('A' for Active; 'I' for Inactive)
REMARK    1  A    between atoms: C_4  and  O_16
REMARK    2  A    between atoms: C_4  and  C_30
REMARK    3  A    between atoms: C_10  and  C_19
REMARK    4  A    between atoms: CA_12  and  C_23
REMARK    5  A    between atoms: CA_14  and  C_27
REMARK    6  A    between atoms: C_19  and  O_20
REMARK    7  A    between atoms: C_23  and  O_24
REMARK    8  A    between atoms: C_27  and  O_28
REMARK    9  A    between atoms: C_30  and  C_32
REMARK                            x       y       z     vdW  Elec       q    Type
REMARK                         _______ _______ _______ _____ _____    ______ ____
ROOT
ATOM      1  O   UNL     1     -33.404  26.512  -0.692  0.00  0.00    -0.288 OA
ATOM      2  N   UNL     1     -34.641  27.932   3.450  0.00  0.00    -0.310 N 
ATOM      3  N   UNL     1     -34.931  23.118   2.393  0.00  0.00    -0.400 NA
ATOM      4  C   UNL     1     -34.408  24.764   0.650  0.00  0.00    +0.193 C 
ATOM      5  C   UNL     1     -34.723  24.430   2.108  0.00  0.00    +0.128 C 
ATOM      6  C   UNL     1     -34.823  25.432   3.085  0.00  0.00    +0.115 C 
ATOM      7  C   UNL     1     -34.554  26.800   2.682  0.00  0.00    +0.039 C 
ATOM      8  C   UNL     1     -34.125  27.181   1.426  0.00  0.00    +0.049 C 
ATOM      9  C   UNL     1     -33.925  26.200   0.378  0.00  0.00    +0.204 C 
ATOM     10  C   UNL     1     -35.152  25.062   4.389  0.00  0.00    +0.067 C 
ATOM     11  C   UNL     1     -33.937  28.584   1.440  0.00  0.00    +0.025 C 
ATOM     12  CA  UNL     1     -34.269  29.022   2.704  0.00  0.00    +0.125 C 
ATOM     13  C   UNL     1     -35.370  23.723   4.690  0.00  0.00    +0.042 C 
ATOM     14  CA  UNL     1     -35.247  22.800   3.668  0.00  0.00    +0.206 C 
ATOM     15  H   UNL     1     -34.926  27.959   4.392  0.00  0.00    +0.152 HD
ENDROOT
BRANCH   4  16
ATOM     16  O   UNL     1     -33.353  23.922   0.185  0.00  0.00    -0.373 OA
ATOM     17  H   UNL     1     -33.440  23.044   0.587  0.00  0.00    +0.211 HD
ENDBRANCH   4  16
BRANCH  10  19
ATOM     18  O   UNL     1     -34.370  26.297   6.282  0.00  0.00    -0.245 OA
ATOM     19  C   UNL     1     -35.282  25.977   5.516  0.00  0.00    +0.335 C 
BRANCH  19  20
ATOM     20  O   UNL     1     -36.546  26.464   5.644  0.00  0.00    -0.477 OA
ATOM     21  H   UNL     1     -36.738  27.343   5.386  0.00  0.00    +0.295 HD
ENDBRANCH  19  20
ENDBRANCH  10  19
BRANCH  12  23
ATOM     22  OXT UNL     1     -33.268  31.135   3.213  0.00  0.00    -0.244 OA
ATOM     23  C   UNL     1     -34.247  30.359   3.209  0.00  0.00    +0.352 C 
BRANCH  23  24
ATOM     24  O   UNL     1     -35.451  30.767   3.724  0.00  0.00    -0.476 OA
ATOM     25  H   UNL     1     -36.250  30.484   3.326  0.00  0.00    +0.295 HD
ENDBRANCH  23  24
ENDBRANCH  12  23
BRANCH  14  27
ATOM     26  OXT UNL     1     -35.609  20.512   3.068  0.00  0.00    -0.242 OA
ATOM     27  C   UNL     1     -35.458  21.387   3.928  0.00  0.00    +0.368 C 
BRANCH  27  28
ATOM     28  O   UNL     1     -35.474  21.098   5.260  0.00  0.00    -0.475 OA
ATOM     29  H   UNL     1     -34.668  21.020   5.732  0.00  0.00    +0.295 HD
ENDBRANCH  27  28
ENDBRANCH  14  27
BRANCH   4  30
ATOM     30  C   UNL     1     -35.638  24.501  -0.224  0.00  0.00    +0.105 C 
BRANCH  30  32
ATOM     31  O   UNL     1     -34.688  23.565  -2.239  0.00  0.00    -0.296 OA
ATOM     32  C   UNL     1     -35.391  23.410  -1.242  0.00  0.00    +0.154 C 
ATOM     33  C   UNL     1     -36.071  22.094  -0.967  0.00  0.00    +0.072 C 
ENDBRANCH  30  32
ENDBRANCH   4  30
TORSDOF 9
ENDMDL
MODEL 7
REMARK VINA RESULT:      -5.6      2.014      5.404
REMARK  Name = 189780
REMARK  9 active torsions:
REMARK  status: ('A' for Active; 'I' for Inactive)
REMARK    1  A    between atoms: C_4  and  O_16
REMARK    2  A    between atoms: C_4  and  C_30
REMARK    3  A    between atoms: C_10  and  C_19
REMARK    4  A    between atoms: CA_12  and  C_23
REMARK    5  A    between atoms: CA_14  and  C_27
REMARK    6  A    between atoms: C_19  and  O_20
REMARK    7  A    between atoms: C_23  and  O_24
REMARK    8  A    between atoms: C_27  and  O_28
REMARK    9  A    between atoms: C_30  and  C_32
REMARK                            x       y       z     vdW  Elec       q    Type
REMARK                         _______ _______ _______ _____ _____    ______ ____
ROOT
ATOM      1  O   UNL     1     -33.964  24.606   1.985  0.00  0.00    -0.288 OA
ATOM      2  N   UNL     1     -37.038  21.305   1.389  0.00  0.00    -0.310 N 
ATOM      3  N   UNL     1     -38.597  25.819   2.641  0.00  0.00    -0.400 NA
ATOM      4  C   UNL     1     -36.206  25.271   2.616  0.00  0.00    +0.193 C 
ATOM      5  C   UNL     1     -37.662  24.864   2.396  0.00  0.00    +0.128 C 
ATOM      6  C   UNL     1     -38.009  23.564   1.998  0.00  0.00    +0.115 C 
ATOM      7  C   UNL     1     -36.932  22.627   1.736  0.00  0.00    +0.039 C 
ATOM      8  C   UNL     1     -35.588  22.942   1.768  0.00  0.00    +0.049 C 
ATOM      9  C   UNL     1     -35.145  24.282   2.099  0.00  0.00    +0.204 C 
ATOM     10  C   UNL     1     -39.359  23.248   1.855  0.00  0.00    +0.067 C 
ATOM     11  C   UNL     1     -34.862  21.778   1.419  0.00  0.00    +0.025 C 
ATOM     12  CA  UNL     1     -35.786  20.779   1.194  0.00  0.00    +0.125 C 
ATOM     13  C   UNL     1     -40.323  24.218   2.105  0.00  0.00    +0.042 C 
ATOM     14  CA  UNL     1     -39.895  25.474   2.490  0.00  0.00    +0.206 C 
ATOM     15  H   UNL     1     -37.883  20.809   1.293  0.00  0.00    +0.152 HD
ENDROOT
BRANCH   4  16
ATOM     16  O   UNL     1     -35.943  26.492   1.925  0.00  0.00    -0.373 OA
ATOM     17  H   UNL     1     -36.294  26.435   1.022  0.00  0.00    +0.211 HD
ENDBRANCH   4  16
BRANCH  10  19
ATOM     18  O   UNL     1     -40.128  21.624   0.276  0.00  0.00    -0.245 OA
ATOM     19  C   UNL     1     -39.880  21.952   1.438  0.00  0.00    +0.335 C 
BRANCH  19  20
ATOM     20  O   UNL     1     -40.072  21.110   2.489  0.00  0.00    -0.477 OA
ATOM     21  H   UNL     1     -40.486  20.280   2.356  0.00  0.00    +0.295 HD
ENDBRANCH  19  20
ENDBRANCH  10  19
BRANCH  12  23
ATOM     22  OXT UNL     1     -34.464  18.945   0.413  0.00  0.00    -0.244 OA
ATOM     23  C   UNL     1     -35.545  19.421   0.821  0.00  0.00    +0.352 C 
BRANCH  23  24
ATOM     24  O   UNL     1     -36.648  18.617   0.948  0.00  0.00    -0.476 OA
ATOM     25  H   UNL     1     -36.592  17.818   1.434  0.00  0.00    +0.295 HD
ENDBRANCH  23  24
ENDBRANCH  12  23
BRANCH  14  27
ATOM     26  OXT UNL     1     -41.495  27.153   1.904  0.00  0.00    -0.242 OA
ATOM     27  C   UNL     1     -40.859  26.527   2.758  0.00  0.00    +0.368 C 
BRANCH  27  28
ATOM     28  O   UNL     1     -41.008  26.770   4.091  0.00  0.00    -0.475 OA
ATOM     29  H   UNL     1     -41.829  27.077   4.422  0.00  0.00    +0.295 HD
ENDBRANCH  27  28
ENDBRANCH  14  27
BRANCH   4  30
ATOM     30  C   UNL     1     -35.948  25.511   4.106  0.00  0.00    +0.105 C 
BRANCH  30  32
ATOM     31  O   UNL     1     -36.540  23.381   5.082  0.00  0.00    -0.296 OA
ATOM     32  C   UNL     1     -35.675  24.224   4.852  0.00  0.00    +0.154 C 
ATOM     33  C   UNL     1     -34.254  24.024   5.313  0.00  0.00    +0.072 C 
ENDBRANCH  30  32
ENDBRANCH   4  30
TORSDOF 9
ENDMDL
MODEL 8
REMARK VINA RESULT:      -5.5      2.194      5.097
REMARK  Name = 189780
REMARK  9 active torsions:
REMARK  status: ('A' for Active; 'I' for Inactive)
REMARK    1  A    between atoms: C_4  and  O_16
REMARK    2  A    between atoms: C_4  and  C_30
REMARK    3  A    between atoms: C_10  and  C_19
REMARK    4  A    between atoms: CA_12  and  C_23
REMARK    5  A    between atoms: CA_14  and  C_27
REMARK    6  A    between atoms: C_19  and  O_20
REMARK    7  A    between atoms: C_23  and  O_24
REMARK    8  A    between atoms: C_27  and  O_28
REMARK    9  A    between atoms: C_30  and  C_32
REMARK                            x       y       z     vdW  Elec       q    Type
REMARK                         _______ _______ _______ _____ _____    ______ ____
ROOT
ATOM      1  O   UNL     1     -37.700  27.926   1.092  0.00  0.00    -0.288 OA
ATOM      2  N   UNL     1     -35.471  24.984   3.753  0.00  0.00    -0.310 N 
ATOM      3  N   UNL     1     -39.184  23.328   0.952  0.00  0.00    -0.400 NA
ATOM      4  C   UNL     1     -38.719  25.729   1.140  0.00  0.00    +0.193 C 
ATOM      5  C   UNL     1     -38.383  24.282   1.494  0.00  0.00    +0.128 C 
ATOM      6  C   UNL     1     -37.326  23.965   2.361  0.00  0.00    +0.115 C 
ATOM      7  C   UNL     1     -36.513  25.056   2.864  0.00  0.00    +0.039 C 
ATOM      8  C   UNL     1     -36.648  26.378   2.488  0.00  0.00    +0.049 C 
ATOM      9  C   UNL     1     -37.669  26.782   1.542  0.00  0.00    +0.204 C 
ATOM     10  C   UNL     1     -37.099  22.625   2.674  0.00  0.00    +0.067 C 
ATOM     11  C   UNL     1     -35.653  27.124   3.163  0.00  0.00    +0.025 C 
ATOM     12  CA  UNL     1     -34.941  26.236   3.941  0.00  0.00    +0.125 C 
ATOM     13  C   UNL     1     -37.915  21.642   2.127  0.00  0.00    +0.042 C 
ATOM     14  CA  UNL     1     -38.931  22.041   1.279  0.00  0.00    +0.206 C 
ATOM     15  H   UNL     1     -35.151  24.161   4.188  0.00  0.00    +0.152 HD
ENDROOT
BRANCH   4  16
ATOM     16  O   UNL     1     -38.848  25.856  -0.276  0.00  0.00    -0.373 OA
ATOM     17  H   UNL     1     -38.021  26.203  -0.646  0.00  0.00    +0.211 HD
ENDBRANCH   4  16
BRANCH  10  19
ATOM     18  O   UNL     1     -34.959  21.672   3.163  0.00  0.00    -0.245 OA
ATOM     19  C   UNL     1     -36.038  22.132   3.544  0.00  0.00    +0.335 C 
BRANCH  19  20
ATOM     20  O   UNL     1     -36.361  22.234   4.862  0.00  0.00    -0.477 OA
ATOM     21  H   UNL     1     -37.258  22.195   5.129  0.00  0.00    +0.295 HD
ENDBRANCH  19  20
ENDBRANCH  10  19
BRANCH  12  23
ATOM     22  OXT UNL     1     -33.884  26.625   6.052  0.00  0.00    -0.244 OA
ATOM     23  C   UNL     1     -33.839  26.508   4.809  0.00  0.00    +0.352 C 
BRANCH  23  24
ATOM     24  O   UNL     1     -32.645  26.641   4.148  0.00  0.00    -0.476 OA
ATOM     25  H   UNL     1     -32.596  26.466   3.229  0.00  0.00    +0.295 HD
ENDBRANCH  23  24
ENDBRANCH  12  23
BRANCH  14  27
ATOM     26  OXT UNL     1     -41.041  21.142   0.598  0.00  0.00    -0.242 OA
ATOM     27  C   UNL     1     -39.811  21.056   0.675  0.00  0.00    +0.368 C 
BRANCH  27  28
ATOM     28  O   UNL     1     -39.130  19.985   0.177  0.00  0.00    -0.475 OA
ATOM     29  H   UNL     1     -39.535  19.426  -0.456  0.00  0.00    +0.295 HD
ENDBRANCH  27  28
ENDBRANCH  14  27
BRANCH   4  30
ATOM     30  C   UNL     1     -40.056  26.126   1.770  0.00  0.00    +0.105 C 
BRANCH  30  32
ATOM     31  O   UNL     1     -41.698  25.618   0.071  0.00  0.00    -0.296 OA
ATOM     32  C   UNL     1     -41.099  26.467   0.729  0.00  0.00    +0.154 C 
ATOM     33  C   UNL     1     -41.372  27.936   0.534  0.00  0.00    +0.072 C 
ENDBRANCH  30  32
ENDBRANCH   4  30
TORSDOF 9
ENDMDL
MODEL 9
REMARK VINA RESULT:      -5.5      2.140      7.200
REMARK  Name = 189780
REMARK  9 active torsions:
REMARK  status: ('A' for Active; 'I' for Inactive)
REMARK    1  A    between atoms: C_4  and  O_16
REMARK    2  A    between atoms: C_4  and  C_30
REMARK    3  A    between atoms: C_10  and  C_19
REMARK    4  A    between atoms: CA_12  and  C_23
REMARK    5  A    between atoms: CA_14  and  C_27
REMARK    6  A    between atoms: C_19  and  O_20
REMARK    7  A    between atoms: C_23  and  O_24
REMARK    8  A    between atoms: C_27  and  O_28
REMARK    9  A    between atoms: C_30  and  C_32
REMARK                            x       y       z     vdW  Elec       q    Type
REMARK                         _______ _______ _______ _____ _____    ______ ____
ROOT
ATOM      1  O   UNL     1     -40.884  20.885   0.187  0.00  0.00    -0.288 OA
ATOM      2  N   UNL     1     -36.563  19.553  -0.319  0.00  0.00    -0.310 N 
ATOM      3  N   UNL     1     -37.621  22.985   3.069  0.00  0.00    -0.400 NA
ATOM      4  C   UNL     1     -39.325  22.209   1.484  0.00  0.00    +0.193 C 
ATOM      5  C   UNL     1     -37.902  22.148   2.037  0.00  0.00    +0.128 C 
ATOM      6  C   UNL     1     -36.935  21.296   1.481  0.00  0.00    +0.115 C 
ATOM      7  C   UNL     1     -37.345  20.421   0.399  0.00  0.00    +0.039 C 
ATOM      8  C   UNL     1     -38.638  20.302  -0.071  0.00  0.00    +0.049 C 
ATOM      9  C   UNL     1     -39.712  21.092   0.497  0.00  0.00    +0.204 C 
ATOM     10  C   UNL     1     -35.644  21.320   2.008  0.00  0.00    +0.067 C 
ATOM     11  C   UNL     1     -38.638  19.326  -1.096  0.00  0.00    +0.025 C 
ATOM     12  CA  UNL     1     -37.339  18.882  -1.230  0.00  0.00    +0.125 C 
ATOM     13  C   UNL     1     -35.346  22.175   3.062  0.00  0.00    +0.042 C 
ATOM     14  CA  UNL     1     -36.359  22.977   3.553  0.00  0.00    +0.206 C 
ATOM     15  H   UNL     1     -35.593  19.429  -0.198  0.00  0.00    +0.152 HD
ENDROOT
BRANCH   4  16
ATOM     16  O   UNL     1     -40.259  22.095   2.557  0.00  0.00    -0.373 OA
ATOM     17  H   UNL     1     -39.778  22.012   3.396  0.00  0.00    +0.211 HD
ENDBRANCH   4  16
BRANCH  10  19
ATOM     18  O   UNL     1     -33.737  20.796   0.663  0.00  0.00    -0.245 OA
ATOM     19  C   UNL     1     -34.534  20.491   1.553  0.00  0.00    +0.335 C 
BRANCH  19  20
ATOM     20  O   UNL     1     -34.458  19.312   2.226  0.00  0.00    -0.477 OA
ATOM     21  H   UNL     1     -35.092  18.641   2.070  0.00  0.00    +0.295 HD
ENDBRANCH  19  20
ENDBRANCH  10  19
BRANCH  12  23
ATOM     22  OXT UNL     1     -35.815  18.012  -2.855  0.00  0.00    -0.244 OA
ATOM     23  C   UNL     1     -36.830  17.901  -2.136  0.00  0.00    +0.352 C 
BRANCH  23  24
ATOM     24  O   UNL     1     -37.575  16.750  -2.168  0.00  0.00    -0.476 OA
ATOM     25  H   UNL     1     -38.331  16.697  -2.720  0.00  0.00    +0.295 HD
ENDBRANCH  23  24
ENDBRANCH  12  23
BRANCH  14  27
ATOM     26  OXT UNL     1     -35.967  25.110   4.563  0.00  0.00    -0.242 OA
ATOM     27  C   UNL     1     -36.105  23.886   4.657  0.00  0.00    +0.368 C 
BRANCH  27  28
ATOM     28  O   UNL     1     -36.031  23.242   5.856  0.00  0.00    -0.475 OA
ATOM     29  H   UNL     1     -35.739  22.353   5.893  0.00  0.00    +0.295 HD
ENDBRANCH  27  28
ENDBRANCH  14  27
BRANCH   4  30
ATOM     30  C   UNL     1     -39.562  23.556   0.796  0.00  0.00    +0.105 C 
BRANCH  30  32
ATOM     31  O   UNL     1     -41.928  23.980   1.049  0.00  0.00    -0.296 OA
ATOM     32  C   UNL     1     -40.773  24.274   1.350  0.00  0.00    +0.154 C 
ATOM     33  C   UNL     1     -40.483  25.397   2.312  0.00  0.00    +0.072 C 
ENDBRANCH  30  32
ENDBRANCH   4  30
TORSDOF 9
ENDMDL
