MODEL 1
REMARK VINA RESULT:      -6.8      0.000      0.000
REMARK  Name = 5460664
REMARK  11 active torsions:
REMARK  status: ('A' for Active; 'I' for Inactive)
REMARK    1  A    between atoms: C_1  and  C_2
REMARK    2  A    between atoms: C_1  and  C_18
REMARK    3  A    between atoms: C_4  and  C_5
REMARK    4  A    between atoms: C_5  and  O_6
REMARK    5  A    between atoms: O_6  and  P_7
REMARK    6  A    between atoms: P_7  and  O_9
REMARK    7  A    between atoms: P_7  and  O_11
REMARK    8  A    between atoms: O_11  and  P_12
REMARK    9  A    between atoms: P_12  and  O_14
REMARK   10  A    between atoms: P_12  and  O_16
REMARK   11  A    between atoms: C_18  and  C_22
REMARK                            x       y       z     vdW  Elec       q    Type
REMARK                         _______ _______ _______ _____ _____    ______ ____
ROOT
ATOM      1  C   UNL     1     -35.185  21.042   3.979  0.00  0.00    +0.022 C 
ENDROOT
BRANCH   1   2
ATOM      2  C   UNL     1     -35.456  22.262   4.830  0.00  0.00    -0.046 C 
ATOM      3  C   UNL     1     -35.361  22.042   6.317  0.00  0.00    +0.026 C 
ATOM      4  C   UNL     1     -35.784  23.474   4.341  0.00  0.00    -0.002 C 
BRANCH   4   5
ATOM      5  C   UNL     1     -36.088  24.715   5.118  0.00  0.00    +0.179 C 
BRANCH   5   6
ATOM      6  O   UNL     1     -34.871  25.223   5.650  0.00  0.00    -0.268 OA
BRANCH   6   7
ATOM      7  P   UNL     1     -34.006  26.291   4.799  0.00  0.00    +0.484 P 
ATOM      8  O   UNL     1     -33.192  25.691   3.689  0.00  0.00    -0.227 OA
BRANCH   7   9
ATOM      9  O   UNL     1     -35.085  27.394   4.314  0.00  0.00    -0.302 OA
ATOM     10  H   UNL     1     -34.732  27.878   3.550  0.00  0.00    +0.222 HD
ENDBRANCH   7   9
BRANCH   7  11
ATOM     11  O   UNL     1     -33.135  27.085   5.906  0.00  0.00    -0.186 OA
BRANCH  11  12
ATOM     12  P   UNL     1     -31.931  28.152   5.743  0.00  0.00    +0.481 P 
ATOM     13  O   UNL     1     -32.337  29.585   5.925  0.00  0.00    -0.227 OA
BRANCH  12  14
ATOM     14  O   UNL     1     -30.813  27.613   6.777  0.00  0.00    -0.302 OA
ATOM     15  H   UNL     1     -31.234  27.038   7.437  0.00  0.00    +0.222 HD
ENDBRANCH  12  14
BRANCH  12  16
ATOM     16  O   UNL     1     -31.314  27.790   4.294  0.00  0.00    -0.302 OA
ATOM     17  H   UNL     1     -31.440  26.844   4.116  0.00  0.00    +0.222 HD
ENDBRANCH  12  16
ENDBRANCH  11  12
ENDBRANCH   7  11
ENDBRANCH   6   7
ENDBRANCH   5   6
ENDBRANCH   4   5
ENDBRANCH   1   2
BRANCH   1  18
ATOM     18  C   UNL     1     -35.727  21.216   2.566  0.00  0.00    +0.008 C 
BRANCH  18  22
ATOM     19  C   UNL     1     -34.040  20.376   0.713  0.00  0.00    +0.003 C 
ATOM     20  C   UNL     1     -35.122  19.957  -0.354  0.00  0.00    +0.001 C 
ATOM     21  C   UNL     1     -34.834  18.634  -1.155  0.00  0.00    +0.000 C 
ATOM     22  C   UNL     1     -34.596  21.572   1.587  0.00  0.00    +0.019 C 
ATOM     23  C   UNL     1     -33.707  19.152   1.603  0.00  0.00    +0.000 C 
ATOM     24  C   UNL     1     -35.533  21.158  -1.237  0.00  0.00    +0.004 C 
ATOM     25  C   UNL     1     -34.411  17.510  -0.174  0.00  0.00    +0.000 C 
ATOM     26  C   UNL     1     -33.313  17.910   0.805  0.00  0.00    +0.000 C 
ATOM     27  C   UNL     1     -32.711  20.884   0.083  0.00  0.00    +0.000 C 
ATOM     28  C   UNL     1     -36.025  22.345  -0.402  0.00  0.00    +0.022 C 
ATOM     29  C   UNL     1     -35.051  22.710   0.687  0.00  0.00    -0.045 C 
ATOM     30  C   UNL     1     -36.138  18.152  -1.846  0.00  0.00    +0.000 C 
ATOM     31  C   UNL     1     -33.787  18.778  -2.276  0.00  0.00    +0.000 C 
ATOM     32  C   UNL     1     -34.591  23.962   0.833  0.00  0.00    -0.009 C 
ENDBRANCH  18  22
ENDBRANCH   1  18
TORSDOF 11
ENDMDL
MODEL 2
REMARK VINA RESULT:      -6.5      5.839      8.204
REMARK  Name = 5460664
REMARK  11 active torsions:
REMARK  status: ('A' for Active; 'I' for Inactive)
REMARK    1  A    between atoms: C_1  and  C_2
REMARK    2  A    between atoms: C_1  and  C_18
REMARK    3  A    between atoms: C_4  and  C_5
REMARK    4  A    between atoms: C_5  and  O_6
REMARK    5  A    between atoms: O_6  and  P_7
REMARK    6  A    between atoms: P_7  and  O_9
REMARK    7  A    between atoms: P_7  and  O_11
REMARK    8  A    between atoms: O_11  and  P_12
REMARK    9  A    between atoms: P_12  and  O_14
REMARK   10  A    between atoms: P_12  and  O_16
REMARK   11  A    between atoms: C_18  and  C_22
REMARK                            x       y       z     vdW  Elec       q    Type
REMARK                         _______ _______ _______ _____ _____    ______ ____
ROOT
ATOM      1  C   UNL     1     -39.686  24.933   0.989  0.00  0.00    +0.022 C 
ENDROOT
BRANCH   1   2
ATOM      2  C   UNL     1     -40.873  25.358   1.824  0.00  0.00    -0.046 C 
ATOM      3  C   UNL     1     -42.219  25.151   1.179  0.00  0.00    +0.026 C 
ATOM      4  C   UNL     1     -40.783  25.908   3.051  0.00  0.00    -0.002 C 
BRANCH   4   5
ATOM      5  C   UNL     1     -41.907  26.373   3.921  0.00  0.00    +0.179 C 
BRANCH   5   6
ATOM      6  O   UNL     1     -41.723  27.756   4.196  0.00  0.00    -0.268 OA
BRANCH   6   7
ATOM      7  P   UNL     1     -42.993  28.756   4.174  0.00  0.00    +0.484 P 
ATOM      8  O   UNL     1     -43.217  29.452   2.863  0.00  0.00    -0.227 OA
BRANCH   7   9
ATOM      9  O   UNL     1     -44.235  27.845   4.666  0.00  0.00    -0.302 OA
ATOM     10  H   UNL     1     -45.057  28.176   4.269  0.00  0.00    +0.222 HD
ENDBRANCH   7   9
BRANCH   7  11
ATOM     11  O   UNL     1     -42.748  29.755   5.421  0.00  0.00    -0.186 OA
BRANCH  11  12
ATOM     12  P   UNL     1     -43.783  30.638   6.293  0.00  0.00    +0.481 P 
ATOM     13  O   UNL     1     -45.231  30.373   6.001  0.00  0.00    -0.227 OA
BRANCH  12  14
ATOM     14  O   UNL     1     -43.323  30.356   7.816  0.00  0.00    -0.302 OA
ATOM     15  H   UNL     1     -44.047  30.588   8.420  0.00  0.00    +0.222 HD
ENDBRANCH  12  14
BRANCH  12  16
ATOM     16  O   UNL     1     -43.292  32.153   6.022  0.00  0.00    -0.302 OA
ATOM     17  H   UNL     1     -42.668  32.420   6.715  0.00  0.00    +0.222 HD
ENDBRANCH  12  16
ENDBRANCH  11  12
ENDBRANCH   7  11
ENDBRANCH   6   7
ENDBRANCH   5   6
ENDBRANCH   4   5
ENDBRANCH   1   2
BRANCH   1  18
ATOM     18  C   UNL     1     -38.788  23.964   1.750  0.00  0.00    +0.008 C 
BRANCH  18  22
ATOM     19  C   UNL     1     -36.375  24.673   2.562  0.00  0.00    +0.003 C 
ATOM     20  C   UNL     1     -36.166  23.495   3.588  0.00  0.00    +0.001 C 
ATOM     21  C   UNL     1     -35.453  23.867   4.940  0.00  0.00    +0.000 C 
ATOM     22  C   UNL     1     -37.312  24.186   1.383  0.00  0.00    +0.019 C 
ATOM     23  C   UNL     1     -37.003  25.881   3.301  0.00  0.00    +0.000 C 
ATOM     24  C   UNL     1     -35.591  22.239   2.890  0.00  0.00    +0.004 C 
ATOM     25  C   UNL     1     -36.094  25.148   5.534  0.00  0.00    +0.000 C 
ATOM     26  C   UNL     1     -36.224  26.302   4.546  0.00  0.00    +0.000 C 
ATOM     27  C   UNL     1     -35.055  25.154   1.892  0.00  0.00    +0.000 C 
ATOM     28  C   UNL     1     -36.460  21.786   1.713  0.00  0.00    +0.022 C 
ATOM     29  C   UNL     1     -36.753  22.915   0.761  0.00  0.00    -0.045 C 
ATOM     30  C   UNL     1     -35.682  22.734   5.976  0.00  0.00    +0.000 C 
ATOM     31  C   UNL     1     -33.926  24.042   4.833  0.00  0.00    +0.000 C 
ATOM     32  C   UNL     1     -36.508  22.814  -0.554  0.00  0.00    -0.009 C 
ENDBRANCH  18  22
ENDBRANCH   1  18
TORSDOF 11
ENDMDL
MODEL 3
REMARK VINA RESULT:      -6.4      6.373      9.031
REMARK  Name = 5460664
REMARK  11 active torsions:
REMARK  status: ('A' for Active; 'I' for Inactive)
REMARK    1  A    between atoms: C_1  and  C_2
REMARK    2  A    between atoms: C_1  and  C_18
REMARK    3  A    between atoms: C_4  and  C_5
REMARK    4  A    between atoms: C_5  and  O_6
REMARK    5  A    between atoms: O_6  and  P_7
REMARK    6  A    between atoms: P_7  and  O_9
REMARK    7  A    between atoms: P_7  and  O_11
REMARK    8  A    between atoms: O_11  and  P_12
REMARK    9  A    between atoms: P_12  and  O_14
REMARK   10  A    between atoms: P_12  and  O_16
REMARK   11  A    between atoms: C_18  and  C_22
REMARK                            x       y       z     vdW  Elec       q    Type
REMARK                         _______ _______ _______ _____ _____    ______ ____
ROOT
ATOM      1  C   UNL     1     -35.914  20.203   2.226  0.00  0.00    +0.022 C 
ENDROOT
BRANCH   1   2
ATOM      2  C   UNL     1     -34.794  19.770   1.307  0.00  0.00    -0.046 C 
ATOM      3  C   UNL     1     -35.096  19.872  -0.165  0.00  0.00    +0.026 C 
ATOM      4  C   UNL     1     -33.603  19.299   1.727  0.00  0.00    -0.002 C 
BRANCH   4   5
ATOM      5  C   UNL     1     -32.462  18.832   0.881  0.00  0.00    +0.179 C 
BRANCH   5   6
ATOM      6  O   UNL     1     -32.352  17.420   1.012  0.00  0.00    -0.268 OA
BRANCH   6   7
ATOM      7  P   UNL     1     -32.936  16.457  -0.146  0.00  0.00    +0.484 P 
ATOM      8  O   UNL     1     -32.598  16.886  -1.545  0.00  0.00    -0.227 OA
BRANCH   7   9
ATOM      9  O   UNL     1     -32.404  14.981   0.246  0.00  0.00    -0.302 OA
ATOM     10  H   UNL     1     -31.434  14.987   0.282  0.00  0.00    +0.222 HD
ENDBRANCH   7   9
BRANCH   7  11
ATOM     11  O   UNL     1     -34.522  16.372   0.155  0.00  0.00    -0.186 OA
BRANCH  11  12
ATOM     12  P   UNL     1     -35.697  15.533  -0.572  0.00  0.00    +0.481 P 
ATOM     13  O   UNL     1     -36.198  16.140  -1.850  0.00  0.00    -0.227 OA
BRANCH  12  14
ATOM     14  O   UNL     1     -35.067  14.052  -0.711  0.00  0.00    -0.302 OA
ATOM     15  H   UNL     1     -34.800  13.900  -1.631  0.00  0.00    +0.222 HD
ENDBRANCH  12  14
BRANCH  12  16
ATOM     16  O   UNL     1     -36.804  15.368   0.592  0.00  0.00    -0.302 OA
ATOM     17  H   UNL     1     -36.976  14.425   0.745  0.00  0.00    +0.222 HD
ENDBRANCH  12  16
ENDBRANCH  11  12
ENDBRANCH   7  11
ENDBRANCH   6   7
ENDBRANCH   5   6
ENDBRANCH   4   5
ENDBRANCH   1   2
BRANCH   1  18
ATOM     18  C   UNL     1     -35.512  21.411   3.064  0.00  0.00    +0.008 C 
BRANCH  18  22
ATOM     19  C   UNL     1     -36.138  23.926   3.581  0.00  0.00    +0.003 C 
ATOM     20  C   UNL     1     -34.932  24.585   2.807  0.00  0.00    +0.001 C 
ATOM     21  C   UNL     1     -34.266  25.835   3.491  0.00  0.00    +0.000 C 
ATOM     22  C   UNL     1     -36.523  22.556   2.889  0.00  0.00    +0.019 C 
ATOM     23  C   UNL     1     -35.728  23.701   5.058  0.00  0.00    +0.000 C 
ATOM     24  C   UNL     1     -35.267  24.782   1.310  0.00  0.00    +0.004 C 
ATOM     25  C   UNL     1     -33.998  25.532   4.988  0.00  0.00    +0.000 C 
ATOM     26  C   UNL     1     -35.196  24.961   5.738  0.00  0.00    +0.000 C 
ATOM     27  C   UNL     1     -37.430  24.793   3.569  0.00  0.00    +0.000 C 
ATOM     28  C   UNL     1     -35.693  23.472   0.638  0.00  0.00    +0.022 C 
ATOM     29  C   UNL     1     -36.783  22.773   1.406  0.00  0.00    -0.045 C 
ATOM     30  C   UNL     1     -32.884  26.108   2.839  0.00  0.00    +0.000 C 
ATOM     31  C   UNL     1     -35.067  27.144   3.353  0.00  0.00    +0.000 C 
ATOM     32  C   UNL     1     -37.928  22.391   0.820  0.00  0.00    -0.009 C 
ENDBRANCH  18  22
ENDBRANCH   1  18
TORSDOF 11
ENDMDL
MODEL 4
REMARK VINA RESULT:      -6.4      2.633      4.069
REMARK  Name = 5460664
REMARK  11 active torsions:
REMARK  status: ('A' for Active; 'I' for Inactive)
REMARK    1  A    between atoms: C_1  and  C_2
REMARK    2  A    between atoms: C_1  and  C_18
REMARK    3  A    between atoms: C_4  and  C_5
REMARK    4  A    between atoms: C_5  and  O_6
REMARK    5  A    between atoms: O_6  and  P_7
REMARK    6  A    between atoms: P_7  and  O_9
REMARK    7  A    between atoms: P_7  and  O_11
REMARK    8  A    between atoms: O_11  and  P_12
REMARK    9  A    between atoms: P_12  and  O_14
REMARK   10  A    between atoms: P_12  and  O_16
REMARK   11  A    between atoms: C_18  and  C_22
REMARK                            x       y       z     vdW  Elec       q    Type
REMARK                         _______ _______ _______ _____ _____    ______ ____
ROOT
ATOM      1  C   UNL     1     -36.746  21.412   1.092  0.00  0.00    +0.022 C 
ENDROOT
BRANCH   1   2
ATOM      2  C   UNL     1     -35.884  22.176   2.071  0.00  0.00    -0.046 C 
ATOM      3  C   UNL     1     -35.527  21.431   3.331  0.00  0.00    +0.026 C 
ATOM      4  C   UNL     1     -35.459  23.442   1.885  0.00  0.00    -0.002 C 
BRANCH   4   5
ATOM      5  C   UNL     1     -34.629  24.266   2.816  0.00  0.00    +0.179 C 
BRANCH   5   6
ATOM      6  O   UNL     1     -35.443  25.303   3.350  0.00  0.00    -0.268 OA
BRANCH   6   7
ATOM      7  P   UNL     1     -36.264  25.054   4.720  0.00  0.00    +0.484 P 
ATOM      8  O   UNL     1     -35.579  24.149   5.703  0.00  0.00    -0.227 OA
BRANCH   7   9
ATOM      9  O   UNL     1     -36.572  26.538   5.283  0.00  0.00    -0.302 OA
ATOM     10  H   UNL     1     -36.665  26.505   6.249  0.00  0.00    +0.222 HD
ENDBRANCH   7   9
BRANCH   7  11
ATOM     11  O   UNL     1     -37.716  24.531   4.237  0.00  0.00    -0.186 OA
BRANCH  11  12
ATOM     12  P   UNL     1     -38.731  25.102   3.117  0.00  0.00    +0.481 P 
ATOM     13  O   UNL     1     -38.851  24.248   1.888  0.00  0.00    -0.227 OA
BRANCH  12  14
ATOM     14  O   UNL     1     -40.103  25.330   3.938  0.00  0.00    -0.302 OA
ATOM     15  H   UNL     1     -40.513  26.163   3.658  0.00  0.00    +0.222 HD
ENDBRANCH  12  14
BRANCH  12  16
ATOM     16  O   UNL     1     -38.188  26.602   2.861  0.00  0.00    -0.302 OA
ATOM     17  H   UNL     1     -38.940  27.198   2.715  0.00  0.00    +0.222 HD
ENDBRANCH  12  16
ENDBRANCH  11  12
ENDBRANCH   7  11
ENDBRANCH   6   7
ENDBRANCH   5   6
ENDBRANCH   4   5
ENDBRANCH   1   2
BRANCH   1  18
ATOM     18  C   UNL     1     -35.947  20.334   0.370  0.00  0.00    +0.008 C 
BRANCH  18  22
ATOM     19  C   UNL     1     -33.378  19.848  -0.021  0.00  0.00    +0.003 C 
ATOM     20  C   UNL     1     -33.559  18.766  -1.153  0.00  0.00    +0.001 C 
ATOM     21  C   UNL     1     -32.584  17.532  -1.099  0.00  0.00    +0.000 C 
ATOM     22  C   UNL     1     -34.580  20.876  -0.077  0.00  0.00    +0.019 C 
ATOM     23  C   UNL     1     -33.326  19.137   1.355  0.00  0.00    +0.000 C 
ATOM     24  C   UNL     1     -33.673  19.426  -2.547  0.00  0.00    +0.004 C 
ATOM     25  C   UNL     1     -32.533  16.969   0.346  0.00  0.00    +0.000 C 
ATOM     26  C   UNL     1     -32.286  18.020   1.421  0.00  0.00    +0.000 C 
ATOM     27  C   UNL     1     -32.080  20.693  -0.173  0.00  0.00    +0.000 C 
ATOM     28  C   UNL     1     -34.799  20.463  -2.603  0.00  0.00    +0.022 C 
ATOM     29  C   UNL     1     -34.704  21.459  -1.477  0.00  0.00    -0.045 C 
ATOM     30  C   UNL     1     -33.137  16.394  -1.999  0.00  0.00    +0.000 C 
ATOM     31  C   UNL     1     -31.158  17.820  -1.604  0.00  0.00    +0.000 C 
ATOM     32  C   UNL     1     -34.701  22.782  -1.702  0.00  0.00    -0.009 C 
ENDBRANCH  18  22
ENDBRANCH   1  18
TORSDOF 11
ENDMDL
MODEL 5
REMARK VINA RESULT:      -6.4      6.508      8.918
REMARK  Name = 5460664
REMARK  11 active torsions:
REMARK  status: ('A' for Active; 'I' for Inactive)
REMARK    1  A    between atoms: C_1  and  C_2
REMARK    2  A    between atoms: C_1  and  C_18
REMARK    3  A    between atoms: C_4  and  C_5
REMARK    4  A    between atoms: C_5  and  O_6
REMARK    5  A    between atoms: O_6  and  P_7
REMARK    6  A    between atoms: P_7  and  O_9
REMARK    7  A    between atoms: P_7  and  O_11
REMARK    8  A    between atoms: O_11  and  P_12
REMARK    9  A    between atoms: P_12  and  O_14
REMARK   10  A    between atoms: P_12  and  O_16
REMARK   11  A    between atoms: C_18  and  C_22
REMARK                            x       y       z     vdW  Elec       q    Type
REMARK                         _______ _______ _______ _____ _____    ______ ____
ROOT
ATOM      1  C   UNL     1     -34.436  21.638  -0.022  0.00  0.00    +0.022 C 
ENDROOT
BRANCH   1   2
ATOM      2  C   UNL     1     -33.426  20.563   0.310  0.00  0.00    -0.046 C 
ATOM      3  C   UNL     1     -32.064  20.749  -0.306  0.00  0.00    +0.026 C 
ATOM      4  C   UNL     1     -33.684  19.487   1.079  0.00  0.00    -0.002 C 
BRANCH   4   5
ATOM      5  C   UNL     1     -32.746  18.376   1.430  0.00  0.00    +0.179 C 
BRANCH   5   6
ATOM      6  O   UNL     1     -33.329  17.146   1.018  0.00  0.00    -0.268 OA
BRANCH   6   7
ATOM      7  P   UNL     1     -32.948  16.518  -0.421  0.00  0.00    +0.484 P 
ATOM      8  O   UNL     1     -31.863  17.252  -1.155  0.00  0.00    -0.227 OA
BRANCH   7   9
ATOM      9  O   UNL     1     -32.612  14.967  -0.111  0.00  0.00    -0.302 OA
ATOM     10  H   UNL     1     -32.934  14.737   0.775  0.00  0.00    +0.222 HD
ENDBRANCH   7   9
BRANCH   7  11
ATOM     11  O   UNL     1     -34.352  16.442  -1.219  0.00  0.00    -0.186 OA
BRANCH  11  12
ATOM     12  P   UNL     1     -35.854  16.150  -0.698  0.00  0.00    +0.481 P 
ATOM     13  O   UNL     1     -36.810  15.703  -1.765  0.00  0.00    -0.227 OA
BRANCH  12  14
ATOM     14  O   UNL     1     -35.632  15.103   0.513  0.00  0.00    -0.302 OA
ATOM     15  H   UNL     1     -35.698  14.197   0.173  0.00  0.00    +0.222 HD
ENDBRANCH  12  14
BRANCH  12  16
ATOM     16  O   UNL     1     -36.255  17.522   0.055  0.00  0.00    -0.302 OA
ATOM     17  H   UNL     1     -36.044  17.447   1.000  0.00  0.00    +0.222 HD
ENDBRANCH  12  16
ENDBRANCH  11  12
ENDBRANCH   7  11
ENDBRANCH   6   7
ENDBRANCH   5   6
ENDBRANCH   4   5
ENDBRANCH   1   2
BRANCH   1  18
ATOM     18  C   UNL     1     -34.299  22.839   0.905  0.00  0.00    +0.008 C 
BRANCH  18  22
ATOM     19  C   UNL     1     -35.930  23.580   2.847  0.00  0.00    +0.003 C 
ATOM     20  C   UNL     1     -35.065  24.789   3.372  0.00  0.00    +0.001 C 
ATOM     21  C   UNL     1     -35.010  24.979   4.933  0.00  0.00    +0.000 C 
ATOM     22  C   UNL     1     -35.680  23.386   1.297  0.00  0.00    +0.019 C 
ATOM     23  C   UNL     1     -35.542  22.302   3.632  0.00  0.00    +0.000 C 
ATOM     24  C   UNL     1     -35.373  26.083   2.584  0.00  0.00    +0.004 C 
ATOM     25  C   UNL     1     -34.718  23.618   5.617  0.00  0.00    +0.000 C 
ATOM     26  C   UNL     1     -35.612  22.476   5.148  0.00  0.00    +0.000 C 
ATOM     27  C   UNL     1     -37.463  23.797   3.013  0.00  0.00    +0.000 C 
ATOM     28  C   UNL     1     -35.186  25.897   1.075  0.00  0.00    +0.022 C 
ATOM     29  C   UNL     1     -35.930  24.693   0.560  0.00  0.00    -0.045 C 
ATOM     30  C   UNL     1     -33.830  25.921   5.299  0.00  0.00    +0.000 C 
ATOM     31  C   UNL     1     -36.270  25.618   5.546  0.00  0.00    +0.000 C 
ATOM     32  C   UNL     1     -36.784  24.778  -0.472  0.00  0.00    -0.009 C 
ENDBRANCH  18  22
ENDBRANCH   1  18
TORSDOF 11
ENDMDL
MODEL 6
REMARK VINA RESULT:      -6.3      1.496      2.212
REMARK  Name = 5460664
REMARK  11 active torsions:
REMARK  status: ('A' for Active; 'I' for Inactive)
REMARK    1  A    between atoms: C_1  and  C_2
REMARK    2  A    between atoms: C_1  and  C_18
REMARK    3  A    between atoms: C_4  and  C_5
REMARK    4  A    between atoms: C_5  and  O_6
REMARK    5  A    between atoms: O_6  and  P_7
REMARK    6  A    between atoms: P_7  and  O_9
REMARK    7  A    between atoms: P_7  and  O_11
REMARK    8  A    between atoms: O_11  and  P_12
REMARK    9  A    between atoms: P_12  and  O_14
REMARK   10  A    between atoms: P_12  and  O_16
REMARK   11  A    between atoms: C_18  and  C_22
REMARK                            x       y       z     vdW  Elec       q    Type
REMARK                         _______ _______ _______ _____ _____    ______ ____
ROOT
ATOM      1  C   UNL     1     -35.186  21.013   3.788  0.00  0.00    +0.022 C 
ENDROOT
BRANCH   1   2
ATOM      2  C   UNL     1     -35.579  22.343   4.392  0.00  0.00    -0.046 C 
ATOM      3  C   UNL     1     -35.191  22.533   5.835  0.00  0.00    +0.026 C 
ATOM      4  C   UNL     1     -36.249  23.309   3.734  0.00  0.00    -0.002 C 
BRANCH   4   5
ATOM      5  C   UNL     1     -36.691  24.633   4.270  0.00  0.00    +0.179 C 
BRANCH   5   6
ATOM      6  O   UNL     1     -35.907  25.652   3.662  0.00  0.00    -0.268 OA
BRANCH   6   7
ATOM      7  P   UNL     1     -34.653  26.286   4.460  0.00  0.00    +0.484 P 
ATOM      8  O   UNL     1     -34.775  26.234   5.955  0.00  0.00    -0.227 OA
BRANCH   7   9
ATOM      9  O   UNL     1     -33.362  25.512   3.869  0.00  0.00    -0.302 OA
ATOM     10  H   UNL     1     -33.437  25.448   2.904  0.00  0.00    +0.222 HD
ENDBRANCH   7   9
BRANCH   7  11
ATOM     11  O   UNL     1     -34.499  27.779   3.859  0.00  0.00    -0.186 OA
BRANCH  11  12
ATOM     12  P   UNL     1     -34.762  28.356   2.372  0.00  0.00    +0.481 P 
ATOM     13  O   UNL     1     -34.113  29.680   2.092  0.00  0.00    -0.227 OA
BRANCH  12  14
ATOM     14  O   UNL     1     -34.297  27.142   1.412  0.00  0.00    -0.302 OA
ATOM     15  H   UNL     1     -34.549  27.340   0.497  0.00  0.00    +0.222 HD
ENDBRANCH  12  14
BRANCH  12  16
ATOM     16  O   UNL     1     -36.373  28.339   2.252  0.00  0.00    -0.302 OA
ATOM     17  H   UNL     1     -36.662  29.066   1.677  0.00  0.00    +0.222 HD
ENDBRANCH  12  16
ENDBRANCH  11  12
ENDBRANCH   7  11
ENDBRANCH   6   7
ENDBRANCH   5   6
ENDBRANCH   4   5
ENDBRANCH   1   2
BRANCH   1  18
ATOM     18  C   UNL     1     -35.586  20.928   2.320  0.00  0.00    +0.008 C 
BRANCH  18  22
ATOM     19  C   UNL     1     -33.753  20.078   0.616  0.00  0.00    +0.003 C 
ATOM     20  C   UNL     1     -34.748  19.594  -0.507  0.00  0.00    +0.001 C 
ATOM     21  C   UNL     1     -34.370  18.256  -1.242  0.00  0.00    +0.000 C 
ATOM     22  C   UNL     1     -34.400  21.284   1.410  0.00  0.00    +0.019 C 
ATOM     23  C   UNL     1     -33.451  18.892   1.567  0.00  0.00    +0.000 C 
ATOM     24  C   UNL     1     -35.128  20.755  -1.456  0.00  0.00    +0.004 C 
ATOM     25  C   UNL     1     -33.986  17.176  -0.198  0.00  0.00    +0.000 C 
ATOM     26  C   UNL     1     -32.970  17.638   0.840  0.00  0.00    +0.000 C 
ATOM     27  C   UNL     1     -32.398  20.604   0.061  0.00  0.00    +0.000 C 
ATOM     28  C   UNL     1     -35.708  21.953  -0.697  0.00  0.00    +0.022 C 
ATOM     29  C   UNL     1     -34.822  22.380   0.443  0.00  0.00    -0.045 C 
ATOM     30  C   UNL     1     -35.610  17.715  -2.004  0.00  0.00    +0.000 C 
ATOM     31  C   UNL     1     -33.253  18.394  -2.293  0.00  0.00    +0.000 C 
ATOM     32  C   UNL     1     -34.406  23.649   0.578  0.00  0.00    -0.009 C 
ENDBRANCH  18  22
ENDBRANCH   1  18
TORSDOF 11
ENDMDL
MODEL 7
REMARK VINA RESULT:      -6.3      6.974      9.263
REMARK  Name = 5460664
REMARK  11 active torsions:
REMARK  status: ('A' for Active; 'I' for Inactive)
REMARK    1  A    between atoms: C_1  and  C_2
REMARK    2  A    between atoms: C_1  and  C_18
REMARK    3  A    between atoms: C_4  and  C_5
REMARK    4  A    between atoms: C_5  and  O_6
REMARK    5  A    between atoms: O_6  and  P_7
REMARK    6  A    between atoms: P_7  and  O_9
REMARK    7  A    between atoms: P_7  and  O_11
REMARK    8  A    between atoms: O_11  and  P_12
REMARK    9  A    between atoms: P_12  and  O_14
REMARK   10  A    between atoms: P_12  and  O_16
REMARK   11  A    between atoms: C_18  and  C_22
REMARK                            x       y       z     vdW  Elec       q    Type
REMARK                         _______ _______ _______ _____ _____    ______ ____
ROOT
ATOM      1  C   UNL     1     -34.514  21.032  -0.176  0.00  0.00    +0.022 C 
ENDROOT
BRANCH   1   2
ATOM      2  C   UNL     1     -34.199  19.614   0.247  0.00  0.00    -0.046 C 
ATOM      3  C   UNL     1     -33.844  19.442   1.701  0.00  0.00    +0.026 C 
ATOM      4  C   UNL     1     -34.202  18.553  -0.584  0.00  0.00    -0.002 C 
BRANCH   4   5
ATOM      5  C   UNL     1     -33.879  17.134  -0.243  0.00  0.00    +0.179 C 
BRANCH   5   6
ATOM      6  O   UNL     1     -34.291  16.306  -1.323  0.00  0.00    -0.268 OA
BRANCH   6   7
ATOM      7  P   UNL     1     -35.442  15.195  -1.092  0.00  0.00    +0.484 P 
ATOM      8  O   UNL     1     -35.189  13.882  -1.774  0.00  0.00    -0.227 OA
BRANCH   7   9
ATOM      9  O   UNL     1     -35.591  15.094   0.515  0.00  0.00    -0.302 OA
ATOM     10  H   UNL     1     -36.249  15.739   0.821  0.00  0.00    +0.222 HD
ENDBRANCH   7   9
BRANCH   7  11
ATOM     11  O   UNL     1     -36.811  15.925  -1.547  0.00  0.00    -0.186 OA
BRANCH  11  12
ATOM     12  P   UNL     1     -38.078  16.438  -0.684  0.00  0.00    +0.481 P 
ATOM     13  O   UNL     1     -39.109  17.190  -1.473  0.00  0.00    -0.227 OA
BRANCH  12  14
ATOM     14  O   UNL     1     -38.606  15.092   0.039  0.00  0.00    -0.302 OA
ATOM     15  H   UNL     1     -39.464  15.267   0.457  0.00  0.00    +0.222 HD
ENDBRANCH  12  14
BRANCH  12  16
ATOM     16  O   UNL     1     -37.390  17.269   0.519  0.00  0.00    -0.302 OA
ATOM     17  H   UNL     1     -37.940  17.202   1.315  0.00  0.00    +0.222 HD
ENDBRANCH  12  16
ENDBRANCH  11  12
ENDBRANCH   7  11
ENDBRANCH   6   7
ENDBRANCH   5   6
ENDBRANCH   4   5
ENDBRANCH   1   2
BRANCH   1  18
ATOM     18  C   UNL     1     -34.401  22.001   0.994  0.00  0.00    +0.008 C 
BRANCH  18  22
ATOM     19  C   UNL     1     -35.985  22.991   2.863  0.00  0.00    +0.003 C 
ATOM     20  C   UNL     1     -35.112  24.260   3.200  0.00  0.00    +0.001 C 
ATOM     21  C   UNL     1     -35.018  24.656   4.720  0.00  0.00    +0.000 C 
ATOM     22  C   UNL     1     -35.775  22.594   1.347  0.00  0.00    +0.019 C 
ATOM     23  C   UNL     1     -35.570  21.829   3.800  0.00  0.00    +0.000 C 
ATOM     24  C   UNL     1     -35.448  25.438   2.256  0.00  0.00    +0.004 C 
ATOM     25  C   UNL     1     -34.701  23.398   5.570  0.00  0.00    +0.000 C 
ATOM     26  C   UNL     1     -35.601  22.203   5.281  0.00  0.00    +0.000 C 
ATOM     27  C   UNL     1     -37.514  23.225   3.040  0.00  0.00    +0.000 C 
ATOM     28  C   UNL     1     -35.299  25.053   0.780  0.00  0.00    +0.022 C 
ATOM     29  C   UNL     1     -36.050  23.791   0.449  0.00  0.00    -0.045 C 
ATOM     30  C   UNL     1     -33.834  25.640   4.926  0.00  0.00    +0.000 C 
ATOM     31  C   UNL     1     -36.264  25.369   5.276  0.00  0.00    +0.000 C 
ATOM     32  C   UNL     1     -36.931  23.736  -0.562  0.00  0.00    -0.009 C 
ENDBRANCH  18  22
ENDBRANCH   1  18
TORSDOF 11
ENDMDL
MODEL 8
REMARK VINA RESULT:      -6.3      1.829      3.200
REMARK  Name = 5460664
REMARK  11 active torsions:
REMARK  status: ('A' for Active; 'I' for Inactive)
REMARK    1  A    between atoms: C_1  and  C_2
REMARK    2  A    between atoms: C_1  and  C_18
REMARK    3  A    between atoms: C_4  and  C_5
REMARK    4  A    between atoms: C_5  and  O_6
REMARK    5  A    between atoms: O_6  and  P_7
REMARK    6  A    between atoms: P_7  and  O_9
REMARK    7  A    between atoms: P_7  and  O_11
REMARK    8  A    between atoms: O_11  and  P_12
REMARK    9  A    between atoms: P_12  and  O_14
REMARK   10  A    between atoms: P_12  and  O_16
REMARK   11  A    between atoms: C_18  and  C_22
REMARK                            x       y       z     vdW  Elec       q    Type
REMARK                         _______ _______ _______ _____ _____    ______ ____
ROOT
ATOM      1  C   UNL     1     -34.854  24.602   3.030  0.00  0.00    +0.022 C 
ENDROOT
BRANCH   1   2
ATOM      2  C   UNL     1     -34.526  24.987   4.456  0.00  0.00    -0.046 C 
ATOM      3  C   UNL     1     -34.931  23.983   5.502  0.00  0.00    +0.026 C 
ATOM      4  C   UNL     1     -33.934  26.143   4.814  0.00  0.00    -0.002 C 
BRANCH   4   5
ATOM      5  C   UNL     1     -33.602  26.601   6.199  0.00  0.00    +0.179 C 
BRANCH   5   6
ATOM      6  O   UNL     1     -32.219  26.932   6.245  0.00  0.00    -0.268 OA
BRANCH   6   7
ATOM      7  P   UNL     1     -31.744  28.444   5.933  0.00  0.00    +0.484 P 
ATOM      8  O   UNL     1     -32.725  29.255   5.137  0.00  0.00    -0.227 OA
BRANCH   7   9
ATOM      9  O   UNL     1     -31.387  29.065   7.383  0.00  0.00    -0.302 OA
ATOM     10  H   UNL     1     -31.223  28.344   8.012  0.00  0.00    +0.222 HD
ENDBRANCH   7   9
BRANCH   7  11
ATOM     11  O   UNL     1     -30.296  28.281   5.233  0.00  0.00    -0.186 OA
BRANCH  11  12
ATOM     12  P   UNL     1     -28.838  27.987   5.865  0.00  0.00    +0.481 P 
ATOM     13  O   UNL     1     -28.029  29.214   6.168  0.00  0.00    -0.227 OA
BRANCH  12  14
ATOM     14  O   UNL     1     -29.166  27.044   7.136  0.00  0.00    -0.302 OA
ATOM     15  H   UNL     1     -29.986  27.347   7.559  0.00  0.00    +0.222 HD
ENDBRANCH  12  14
BRANCH  12  16
ATOM     16  O   UNL     1     -28.174  26.970   4.800  0.00  0.00    -0.302 OA
ATOM     17  H   UNL     1     -28.196  26.067   5.157  0.00  0.00    +0.222 HD
ENDBRANCH  12  16
ENDBRANCH  11  12
ENDBRANCH   7  11
ENDBRANCH   6   7
ENDBRANCH   5   6
ENDBRANCH   4   5
ENDBRANCH   1   2
BRANCH   1  18
ATOM     18  C   UNL     1     -34.919  23.089   2.863  0.00  0.00    +0.008 C 
BRANCH  18  22
ATOM     19  C   UNL     1     -34.635  21.942   0.499  0.00  0.00    +0.003 C 
ATOM     20  C   UNL     1     -34.380  20.479   1.026  0.00  0.00    +0.001 C 
ATOM     21  C   UNL     1     -33.290  19.643   0.259  0.00  0.00    +0.000 C 
ATOM     22  C   UNL     1     -35.565  22.716   1.519  0.00  0.00    +0.019 C 
ATOM     23  C   UNL     1     -33.274  22.666   0.336  0.00  0.00    +0.000 C 
ATOM     24  C   UNL     1     -35.711  19.727   1.259  0.00  0.00    +0.004 C 
ATOM     25  C   UNL     1     -32.014  20.501   0.063  0.00  0.00    +0.000 C 
ATOM     26  C   UNL     1     -32.272  21.888  -0.514  0.00  0.00    +0.000 C 
ATOM     27  C   UNL     1     -35.369  21.988  -0.874  0.00  0.00    +0.000 C 
ATOM     28  C   UNL     1     -36.645  20.490   2.205  0.00  0.00    +0.022 C 
ATOM     29  C   UNL     1     -36.836  21.920   1.776  0.00  0.00    -0.045 C 
ATOM     30  C   UNL     1     -32.875  18.419   1.120  0.00  0.00    +0.000 C 
ATOM     31  C   UNL     1     -33.755  19.072  -1.094  0.00  0.00    +0.000 C 
ATOM     32  C   UNL     1     -38.056  22.451   1.603  0.00  0.00    -0.009 C 
ENDBRANCH  18  22
ENDBRANCH   1  18
TORSDOF 11
ENDMDL
MODEL 9
REMARK VINA RESULT:      -6.3      2.350      4.453
REMARK  Name = 5460664
REMARK  11 active torsions:
REMARK  status: ('A' for Active; 'I' for Inactive)
REMARK    1  A    between atoms: C_1  and  C_2
REMARK    2  A    between atoms: C_1  and  C_18
REMARK    3  A    between atoms: C_4  and  C_5
REMARK    4  A    between atoms: C_5  and  O_6
REMARK    5  A    between atoms: O_6  and  P_7
REMARK    6  A    between atoms: P_7  and  O_9
REMARK    7  A    between atoms: P_7  and  O_11
REMARK    8  A    between atoms: O_11  and  P_12
REMARK    9  A    between atoms: P_12  and  O_14
REMARK   10  A    between atoms: P_12  and  O_16
REMARK   11  A    between atoms: C_18  and  C_22
REMARK                            x       y       z     vdW  Elec       q    Type
REMARK                         _______ _______ _______ _____ _____    ______ ____
ROOT
ATOM      1  C   UNL     1     -35.558  21.638   3.895  0.00  0.00    +0.022 C 
ENDROOT
BRANCH   1   2
ATOM      2  C   UNL     1     -35.423  22.721   4.942  0.00  0.00    -0.046 C 
ATOM      3  C   UNL     1     -35.349  22.233   6.365  0.00  0.00    +0.026 C 
ATOM      4  C   UNL     1     -35.391  24.041   4.672  0.00  0.00    -0.002 C 
BRANCH   4   5
ATOM      5  C   UNL     1     -35.284  25.165   5.652  0.00  0.00    +0.179 C 
BRANCH   5   6
ATOM      6  O   UNL     1     -34.005  25.770   5.508  0.00  0.00    -0.268 OA
BRANCH   6   7
ATOM      7  P   UNL     1     -33.768  26.885   4.362  0.00  0.00    +0.484 P 
ATOM      8  O   UNL     1     -32.930  26.422   3.205  0.00  0.00    -0.227 OA
BRANCH   7   9
ATOM      9  O   UNL     1     -35.255  27.372   3.955  0.00  0.00    -0.302 OA
ATOM     10  H   UNL     1     -35.721  26.649   3.507  0.00  0.00    +0.222 HD
ENDBRANCH   7   9
BRANCH   7  11
ATOM     11  O   UNL     1     -33.162  28.159   5.151  0.00  0.00    -0.186 OA
BRANCH  11  12
ATOM     12  P   UNL     1     -31.816  28.320   6.031  0.00  0.00    +0.481 P 
ATOM     13  O   UNL     1     -31.627  29.678   6.643  0.00  0.00    -0.227 OA
BRANCH  12  14
ATOM     14  O   UNL     1     -31.909  27.096   7.082  0.00  0.00    -0.302 OA
ATOM     15  H   UNL     1     -31.280  26.402   6.826  0.00  0.00    +0.222 HD
ENDBRANCH  12  14
BRANCH  12  16
ATOM     16  O   UNL     1     -30.653  27.857   5.011  0.00  0.00    -0.302 OA
ATOM     17  H   UNL     1     -30.010  27.302   5.482  0.00  0.00    +0.222 HD
ENDBRANCH  12  16
ENDBRANCH  11  12
ENDBRANCH   7  11
ENDBRANCH   6   7
ENDBRANCH   5   6
ENDBRANCH   4   5
ENDBRANCH   1   2
BRANCH   1  18
ATOM     18  C   UNL     1     -35.830  22.226   2.516  0.00  0.00    +0.008 C 
BRANCH  18  22
ATOM     19  C   UNL     1     -38.288  22.698   1.668  0.00  0.00    +0.003 C 
ATOM     20  C   UNL     1     -37.897  23.632   0.460  0.00  0.00    +0.001 C 
ATOM     21  C   UNL     1     -38.827  24.877   0.214  0.00  0.00    +0.000 C 
ATOM     22  C   UNL     1     -37.127  21.653   1.925  0.00  0.00    +0.019 C 
ATOM     23  C   UNL     1     -38.530  23.571   2.925  0.00  0.00    +0.000 C 
ATOM     24  C   UNL     1     -37.589  22.806  -0.811  0.00  0.00    +0.004 C 
ATOM     25  C   UNL     1     -39.084  25.612   1.555  0.00  0.00    +0.000 C 
ATOM     26  C   UNL     1     -39.530  24.703   2.694  0.00  0.00    +0.000 C 
ATOM     27  C   UNL     1     -39.574  21.859   1.413  0.00  0.00    +0.000 C 
ATOM     28  C   UNL     1     -36.504  21.754  -0.564  0.00  0.00    +0.022 C 
ATOM     29  C   UNL     1     -36.806  20.903   0.641  0.00  0.00    -0.045 C 
ATOM     30  C   UNL     1     -38.103  25.889  -0.715  0.00  0.00    +0.000 C 
ATOM     31  C   UNL     1     -40.166  24.550  -0.475  0.00  0.00    +0.000 C 
ATOM     32  C   UNL     1     -36.817  19.563   0.576  0.00  0.00    -0.009 C 
ENDBRANCH  18  22
ENDBRANCH   1  18
TORSDOF 11
ENDMDL
