MODEL 1
REMARK VINA RESULT:      -6.4      0.000      0.000
REMARK  Name = 5319518
REMARK  5 active torsions:
REMARK  status: ('A' for Active; 'I' for Inactive)
REMARK    1  A    between atoms: C_4  and  C_19
REMARK    2  A    between atoms: C_11  and  O_16
REMARK    3  A    between atoms: C_14  and  O_22
REMARK    4  A    between atoms: C_15  and  O_24
REMARK    5  A    between atoms: C_19  and  O_20
REMARK                            x       y       z     vdW  Elec       q    Type
REMARK                         _______ _______ _______ _____ _____    ______ ____
ROOT
ATOM      1  O   UNL     1     -36.188  21.584   2.891  0.00  0.00    -0.418 OA
ATOM      2  O   UNL     1     -35.102  20.766   5.496  0.00  0.00    -0.288 OA
ATOM      3  O   UNL     1     -36.953  21.499   0.760  0.00  0.00    -0.244 OA
ATOM      4  C   UNL     1     -35.596  24.302   5.362  0.00  0.00    +0.132 C 
ATOM      5  C   UNL     1     -36.030  23.722   4.055  0.00  0.00    +0.029 A 
ATOM      6  C   UNL     1     -35.232  23.079   6.218  0.00  0.00    +0.088 C 
ATOM      7  C   UNL     1     -35.886  22.401   3.963  0.00  0.00    +0.180 A 
ATOM      8  C   UNL     1     -36.604  24.407   2.910  0.00  0.00    +0.043 A 
ATOM      9  C   UNL     1     -35.366  21.932   5.250  0.00  0.00    +0.208 C 
ATOM     10  C   UNL     1     -36.924  23.640   1.776  0.00  0.00    +0.082 A 
ATOM     11  C   UNL     1     -36.858  25.784   2.897  0.00  0.00    +0.171 C 
ATOM     12  C   UNL     1     -36.692  22.165   1.756  0.00  0.00    +0.346 A 
ATOM     13  C   UNL     1     -37.476  24.253   0.643  0.00  0.00    +0.046 C 
ATOM     14  C   UNL     1     -37.409  26.389   1.767  0.00  0.00    +0.202 C 
ATOM     15  C   UNL     1     -37.716  25.626   0.642  0.00  0.00    +0.171 C 
ENDROOT
BRANCH  11  16
ATOM     16  O   UNL     1     -36.614  26.587   3.973  0.00  0.00    -0.503 OA
ATOM     17  H   UNL     1     -37.183  27.308   4.157  0.00  0.00    +0.292 HD
ENDBRANCH  11  16
BRANCH   4  19
ATOM     18  O   UNL     1     -33.429  24.825   4.443  0.00  0.00    -0.250 OA
ATOM     19  C   UNL     1     -34.362  25.138   5.169  0.00  0.00    +0.321 C 
BRANCH  19  20
ATOM     20  O   UNL     1     -34.458  26.271   5.921  0.00  0.00    -0.444 OA
ATOM     21  C   UNL     1     -33.227  26.745   6.477  0.00  0.00    +0.256 C 
ENDBRANCH  19  20
ENDBRANCH   4  19
BRANCH  14  22
ATOM     22  O   UNL     1     -37.656  27.732   1.759  0.00  0.00    -0.501 OA
ATOM     23  H   UNL     1     -37.666  28.202   0.949  0.00  0.00    +0.292 HD
ENDBRANCH  14  22
BRANCH  15  24
ATOM     24  O   UNL     1     -38.256  26.209  -0.465  0.00  0.00    -0.503 OA
ATOM     25  H   UNL     1     -37.756  26.828  -0.961  0.00  0.00    +0.292 HD
ENDBRANCH  15  24
TORSDOF 5
ENDMDL
MODEL 2
REMARK VINA RESULT:      -6.2      1.864      4.303
REMARK  Name = 5319518
REMARK  5 active torsions:
REMARK  status: ('A' for Active; 'I' for Inactive)
REMARK    1  A    between atoms: C_4  and  C_19
REMARK    2  A    between atoms: C_11  and  O_16
REMARK    3  A    between atoms: C_14  and  O_22
REMARK    4  A    between atoms: C_15  and  O_24
REMARK    5  A    between atoms: C_19  and  O_20
REMARK                            x       y       z     vdW  Elec       q    Type
REMARK                         _______ _______ _______ _____ _____    ______ ____
ROOT
ATOM      1  O   UNL     1     -37.305  27.069   2.234  0.00  0.00    -0.418 OA
ATOM      2  O   UNL     1     -34.764  28.008   3.374  0.00  0.00    -0.288 OA
ATOM      3  O   UNL     1     -39.336  27.061   1.233  0.00  0.00    -0.244 OA
ATOM      4  C   UNL     1     -35.118  24.474   3.760  0.00  0.00    +0.132 C 
ATOM      5  C   UNL     1     -36.328  24.988   3.049  0.00  0.00    +0.029 A 
ATOM      6  C   UNL     1     -34.211  25.706   3.905  0.00  0.00    +0.088 C 
ATOM      7  C   UNL     1     -36.333  26.305   2.849  0.00  0.00    +0.180 A 
ATOM      8  C   UNL     1     -37.460  24.236   2.535  0.00  0.00    +0.043 A 
ATOM      9  C   UNL     1     -35.072  26.827   3.381  0.00  0.00    +0.208 C 
ATOM     10  C   UNL     1     -38.495  24.950   1.907  0.00  0.00    +0.082 A 
ATOM     11  C   UNL     1     -37.552  22.842   2.630  0.00  0.00    +0.171 C 
ATOM     12  C   UNL     1     -38.425  26.435   1.763  0.00  0.00    +0.346 A 
ATOM     13  C   UNL     1     -39.611  24.273   1.399  0.00  0.00    +0.046 C 
ATOM     14  C   UNL     1     -38.665  22.172   2.121  0.00  0.00    +0.202 C 
ATOM     15  C   UNL     1     -39.693  22.886   1.508  0.00  0.00    +0.171 C 
ENDROOT
BRANCH  11  16
ATOM     16  O   UNL     1     -36.570  22.076   3.187  0.00  0.00    -0.503 OA
ATOM     17  H   UNL     1     -35.834  21.813   2.672  0.00  0.00    +0.292 HD
ENDBRANCH  11  16
BRANCH   4  19
ATOM     18  O   UNL     1     -36.349  24.514   5.833  0.00  0.00    -0.250 OA
ATOM     19  C   UNL     1     -35.494  23.990   5.132  0.00  0.00    +0.321 C 
BRANCH  19  20
ATOM     20  O   UNL     1     -34.741  22.900   5.452  0.00  0.00    -0.444 OA
ATOM     21  C   UNL     1     -35.335  21.997   6.390  0.00  0.00    +0.256 C 
ENDBRANCH  19  20
ENDBRANCH   4  19
BRANCH  14  22
ATOM     22  O   UNL     1     -38.750  20.813   2.215  0.00  0.00    -0.501 OA
ATOM     23  H   UNL     1     -38.020  20.279   1.971  0.00  0.00    +0.292 HD
ENDBRANCH  14  22
BRANCH  15  24
ATOM     24  O   UNL     1     -40.783  22.240   1.006  0.00  0.00    -0.503 OA
ATOM     25  H   UNL     1     -41.304  22.645   0.341  0.00  0.00    +0.292 HD
ENDBRANCH  15  24
TORSDOF 5
ENDMDL
MODEL 3
REMARK VINA RESULT:      -6.0      2.308      4.821
REMARK  Name = 5319518
REMARK  5 active torsions:
REMARK  status: ('A' for Active; 'I' for Inactive)
REMARK    1  A    between atoms: C_4  and  C_19
REMARK    2  A    between atoms: C_11  and  O_16
REMARK    3  A    between atoms: C_14  and  O_22
REMARK    4  A    between atoms: C_15  and  O_24
REMARK    5  A    between atoms: C_19  and  O_20
REMARK                            x       y       z     vdW  Elec       q    Type
REMARK                         _______ _______ _______ _____ _____    ______ ____
ROOT
ATOM      1  O   UNL     1     -37.498  21.679   2.629  0.00  0.00    -0.418 OA
ATOM      2  O   UNL     1     -40.144  21.265   1.420  0.00  0.00    -0.288 OA
ATOM      3  O   UNL     1     -35.466  21.268   3.542  0.00  0.00    -0.244 OA
ATOM      4  C   UNL     1     -39.491  24.741   1.927  0.00  0.00    +0.132 C 
ATOM      5  C   UNL     1     -38.301  23.970   2.398  0.00  0.00    +0.029 A 
ATOM      6  C   UNL     1     -40.422  23.674   1.330  0.00  0.00    +0.088 C 
ATOM      7  C   UNL     1     -38.416  22.648   2.278  0.00  0.00    +0.180 A 
ATOM      8  C   UNL     1     -37.050  24.480   2.932  0.00  0.00    +0.043 A 
ATOM      9  C   UNL     1     -39.715  22.383   1.656  0.00  0.00    +0.208 C 
ATOM     10  C   UNL     1     -36.072  23.548   3.324  0.00  0.00    +0.082 A 
ATOM     11  C   UNL     1     -36.779  25.848   3.060  0.00  0.00    +0.171 C 
ATOM     12  C   UNL     1     -36.310  22.081   3.183  0.00  0.00    +0.346 A 
ATOM     13  C   UNL     1     -34.850  23.988   3.849  0.00  0.00    +0.046 C 
ATOM     14  C   UNL     1     -35.560  26.281   3.583  0.00  0.00    +0.202 C 
ATOM     15  C   UNL     1     -34.599  25.353   3.978  0.00  0.00    +0.171 C 
ENDROOT
BRANCH  11  16
ATOM     16  O   UNL     1     -37.660  26.812   2.663  0.00  0.00    -0.503 OA
ATOM     17  H   UNL     1     -37.817  26.955   1.751  0.00  0.00    +0.292 HD
ENDBRANCH  11  16
BRANCH   4  19
ATOM     18  O   UNL     1     -40.300  24.860   4.195  0.00  0.00    -0.250 OA
ATOM     19  C   UNL     1     -40.184  25.383   3.096  0.00  0.00    +0.321 C 
BRANCH  19  20
ATOM     20  O   UNL     1     -40.649  26.611   2.730  0.00  0.00    -0.444 OA
ATOM     21  C   UNL     1     -41.872  27.015   3.354  0.00  0.00    +0.256 C 
ENDBRANCH  19  20
ENDBRANCH   4  19
BRANCH  14  22
ATOM     22  O   UNL     1     -35.301  27.615   3.704  0.00  0.00    -0.501 OA
ATOM     23  H   UNL     1     -35.374  28.033   4.539  0.00  0.00    +0.292 HD
ENDBRANCH  14  22
BRANCH  15  24
ATOM     24  O   UNL     1     -33.405  25.767   4.488  0.00  0.00    -0.503 OA
ATOM     25  H   UNL     1     -33.384  26.337   5.232  0.00  0.00    +0.292 HD
ENDBRANCH  15  24
TORSDOF 5
ENDMDL
MODEL 4
REMARK VINA RESULT:      -6.0      1.668      4.926
REMARK  Name = 5319518
REMARK  5 active torsions:
REMARK  status: ('A' for Active; 'I' for Inactive)
REMARK    1  A    between atoms: C_4  and  C_19
REMARK    2  A    between atoms: C_11  and  O_16
REMARK    3  A    between atoms: C_14  and  O_22
REMARK    4  A    between atoms: C_15  and  O_24
REMARK    5  A    between atoms: C_19  and  O_20
REMARK                            x       y       z     vdW  Elec       q    Type
REMARK                         _______ _______ _______ _____ _____    ______ ____
ROOT
ATOM      1  O   UNL     1     -36.688  22.605   4.285  0.00  0.00    -0.418 OA
ATOM      2  O   UNL     1     -38.656  21.816   2.250  0.00  0.00    -0.288 OA
ATOM      3  O   UNL     1     -35.340  22.549   6.105  0.00  0.00    -0.244 OA
ATOM      4  C   UNL     1     -37.462  25.133   1.668  0.00  0.00    +0.132 C 
ATOM      5  C   UNL     1     -36.773  24.596   2.880  0.00  0.00    +0.029 A 
ATOM      6  C   UNL     1     -38.302  23.953   1.156  0.00  0.00    +0.088 C 
ATOM      7  C   UNL     1     -37.136  23.361   3.221  0.00  0.00    +0.180 A 
ATOM      8  C   UNL     1     -35.753  25.235   3.695  0.00  0.00    +0.043 A 
ATOM      9  C   UNL     1     -38.107  22.906   2.222  0.00  0.00    +0.208 C 
ATOM     10  C   UNL     1     -35.258  24.528   4.805  0.00  0.00    +0.082 A 
ATOM     11  C   UNL     1     -35.242  26.509   3.413  0.00  0.00    +0.171 C 
ATOM     12  C   UNL     1     -35.757  23.158   5.126  0.00  0.00    +0.346 A 
ATOM     13  C   UNL     1     -34.278  25.101   5.625  0.00  0.00    +0.046 C 
ATOM     14  C   UNL     1     -34.265  27.074   4.233  0.00  0.00    +0.202 C 
ATOM     15  C   UNL     1     -33.785  26.373   5.337  0.00  0.00    +0.171 C 
ENDROOT
BRANCH  11  16
ATOM     16  O   UNL     1     -35.641  27.238   2.331  0.00  0.00    -0.503 OA
ATOM     17  H   UNL     1     -35.391  26.971   1.470  0.00  0.00    +0.292 HD
ENDBRANCH  11  16
BRANCH   4  19
ATOM     18  O   UNL     1     -39.166  26.200   3.000  0.00  0.00    -0.250 OA
ATOM     19  C   UNL     1     -38.389  26.250   2.056  0.00  0.00    +0.321 C 
BRANCH  19  20
ATOM     20  O   UNL     1     -38.222  27.298   1.200  0.00  0.00    -0.444 OA
ATOM     21  C   UNL     1     -39.170  27.375   0.130  0.00  0.00    +0.256 C 
ENDBRANCH  19  20
ENDBRANCH   4  19
BRANCH  14  22
ATOM     22  O   UNL     1     -33.770  28.315   3.954  0.00  0.00    -0.501 OA
ATOM     23  H   UNL     1     -33.928  29.026   4.544  0.00  0.00    +0.292 HD
ENDBRANCH  14  22
BRANCH  15  24
ATOM     24  O   UNL     1     -32.830  26.917   6.142  0.00  0.00    -0.503 OA
ATOM     25  H   UNL     1     -33.040  27.160   7.023  0.00  0.00    +0.292 HD
ENDBRANCH  15  24
TORSDOF 5
ENDMDL
MODEL 5
REMARK VINA RESULT:      -6.0      2.257      5.453
REMARK  Name = 5319518
REMARK  5 active torsions:
REMARK  status: ('A' for Active; 'I' for Inactive)
REMARK    1  A    between atoms: C_4  and  C_19
REMARK    2  A    between atoms: C_11  and  O_16
REMARK    3  A    between atoms: C_14  and  O_22
REMARK    4  A    between atoms: C_15  and  O_24
REMARK    5  A    between atoms: C_19  and  O_20
REMARK                            x       y       z     vdW  Elec       q    Type
REMARK                         _______ _______ _______ _____ _____    ______ ____
ROOT
ATOM      1  O   UNL     1     -35.892  20.437   2.825  0.00  0.00    -0.418 OA
ATOM      2  O   UNL     1     -36.700  18.768   0.546  0.00  0.00    -0.288 OA
ATOM      3  O   UNL     1     -34.877  21.125   4.730  0.00  0.00    -0.244 OA
ATOM      4  C   UNL     1     -38.395  21.913   0.502  0.00  0.00    +0.132 C 
ATOM      5  C   UNL     1     -37.486  21.890   1.688  0.00  0.00    +0.029 A 
ATOM      6  C   UNL     1     -38.098  20.594  -0.228  0.00  0.00    +0.088 C 
ATOM      7  C   UNL     1     -36.797  20.760   1.834  0.00  0.00    +0.180 A 
ATOM      8  C   UNL     1     -37.248  22.941   2.662  0.00  0.00    +0.043 A 
ATOM      9  C   UNL     1     -37.146  19.893   0.706  0.00  0.00    +0.208 C 
ATOM     10  C   UNL     1     -36.348  22.678   3.709  0.00  0.00    +0.082 A 
ATOM     11  C   UNL     1     -37.866  24.196   2.593  0.00  0.00    +0.171 C 
ATOM     12  C   UNL     1     -35.648  21.362   3.807  0.00  0.00    +0.346 A 
ATOM     13  C   UNL     1     -36.087  23.656   4.677  0.00  0.00    +0.046 C 
ATOM     14  C   UNL     1     -37.602  25.168   3.559  0.00  0.00    +0.202 C 
ATOM     15  C   UNL     1     -36.716  24.898   4.600  0.00  0.00    +0.171 C 
ENDROOT
BRANCH  11  16
ATOM     16  O   UNL     1     -38.719  24.541   1.585  0.00  0.00    -0.503 OA
ATOM     17  H   UNL     1     -38.792  23.996   0.827  0.00  0.00    +0.292 HD
ENDBRANCH  11  16
BRANCH   4  19
ATOM     18  O   UNL     1     -40.271  21.150   1.810  0.00  0.00    -0.250 OA
ATOM     19  C   UNL     1     -39.828  21.901   0.952  0.00  0.00    +0.321 C 
BRANCH  19  20
ATOM     20  O   UNL     1     -40.530  22.843   0.260  0.00  0.00    -0.444 OA
ATOM     21  C   UNL     1     -41.397  22.336  -0.761  0.00  0.00    +0.256 C 
ENDBRANCH  19  20
ENDBRANCH   4  19
BRANCH  14  22
ATOM     22  O   UNL     1     -38.206  26.389   3.487  0.00  0.00    -0.501 OA
ATOM     23  H   UNL     1     -38.977  26.561   3.990  0.00  0.00    +0.292 HD
ENDBRANCH  14  22
BRANCH  15  24
ATOM     24  O   UNL     1     -36.450  25.841   5.547  0.00  0.00    -0.503 OA
ATOM     25  H   UNL     1     -37.143  26.372   5.887  0.00  0.00    +0.292 HD
ENDBRANCH  15  24
TORSDOF 5
ENDMDL
MODEL 6
REMARK VINA RESULT:      -5.9      1.779      2.070
REMARK  Name = 5319518
REMARK  5 active torsions:
REMARK  status: ('A' for Active; 'I' for Inactive)
REMARK    1  A    between atoms: C_4  and  C_19
REMARK    2  A    between atoms: C_11  and  O_16
REMARK    3  A    between atoms: C_14  and  O_22
REMARK    4  A    between atoms: C_15  and  O_24
REMARK    5  A    between atoms: C_19  and  O_20
REMARK                            x       y       z     vdW  Elec       q    Type
REMARK                         _______ _______ _______ _____ _____    ______ ____
ROOT
ATOM      1  O   UNL     1     -36.929  21.438   1.027  0.00  0.00    -0.418 OA
ATOM      2  O   UNL     1     -34.921  19.957   2.581  0.00  0.00    -0.288 OA
ATOM      3  O   UNL     1     -38.326  22.048  -0.648  0.00  0.00    -0.244 OA
ATOM      4  C   UNL     1     -36.037  22.854   4.350  0.00  0.00    +0.132 C 
ATOM      5  C   UNL     1     -36.769  22.792   3.049  0.00  0.00    +0.029 A 
ATOM      6  C   UNL     1     -35.205  21.562   4.379  0.00  0.00    +0.088 C 
ATOM      7  C   UNL     1     -36.438  21.759   2.277  0.00  0.00    +0.180 A 
ATOM      8  C   UNL     1     -37.799  23.688   2.550  0.00  0.00    +0.043 A 
ATOM      9  C   UNL     1     -35.449  20.968   3.015  0.00  0.00    +0.208 C 
ATOM     10  C   UNL     1     -38.336  23.430   1.277  0.00  0.00    +0.082 A 
ATOM     11  C   UNL     1     -38.278  24.780   3.285  0.00  0.00    +0.171 C 
ATOM     12  C   UNL     1     -37.872  22.262   0.470  0.00  0.00    +0.346 A 
ATOM     13  C   UNL     1     -39.328  24.266   0.749  0.00  0.00    +0.046 C 
ATOM     14  C   UNL     1     -39.267  25.609   2.754  0.00  0.00    +0.202 C 
ATOM     15  C   UNL     1     -39.789  25.354   1.488  0.00  0.00    +0.171 C 
ENDROOT
BRANCH  11  16
ATOM     16  O   UNL     1     -37.836  25.070   4.543  0.00  0.00    -0.503 OA
ATOM     17  H   UNL     1     -37.126  25.668   4.663  0.00  0.00    +0.292 HD
ENDBRANCH  11  16
BRANCH   4  19
ATOM     18  O   UNL     1     -34.420  24.369   3.401  0.00  0.00    -0.250 OA
ATOM     19  C   UNL     1     -35.100  24.029   4.358  0.00  0.00    +0.321 C 
BRANCH  19  20
ATOM     20  O   UNL     1     -35.137  24.631   5.581  0.00  0.00    -0.444 OA
ATOM     21  C   UNL     1     -34.527  25.924   5.646  0.00  0.00    +0.256 C 
ENDBRANCH  19  20
ENDBRANCH   4  19
BRANCH  14  22
ATOM     22  O   UNL     1     -39.730  26.671   3.475  0.00  0.00    -0.501 OA
ATOM     23  H   UNL     1     -39.281  27.492   3.442  0.00  0.00    +0.292 HD
ENDBRANCH  14  22
BRANCH  15  24
ATOM     24  O   UNL     1     -40.756  26.157   0.963  0.00  0.00    -0.503 OA
ATOM     25  H   UNL     1     -41.508  26.382   1.474  0.00  0.00    +0.292 HD
ENDBRANCH  15  24
TORSDOF 5
ENDMDL
MODEL 7
REMARK VINA RESULT:      -5.8      1.898      5.911
REMARK  Name = 5319518
REMARK  5 active torsions:
REMARK  status: ('A' for Active; 'I' for Inactive)
REMARK    1  A    between atoms: C_4  and  C_19
REMARK    2  A    between atoms: C_11  and  O_16
REMARK    3  A    between atoms: C_14  and  O_22
REMARK    4  A    between atoms: C_15  and  O_24
REMARK    5  A    between atoms: C_19  and  O_20
REMARK                            x       y       z     vdW  Elec       q    Type
REMARK                         _______ _______ _______ _____ _____    ______ ____
ROOT
ATOM      1  O   UNL     1     -34.951  26.847   4.384  0.00  0.00    -0.418 OA
ATOM      2  O   UNL     1     -35.477  28.848   2.297  0.00  0.00    -0.288 OA
ATOM      3  O   UNL     1     -34.346  25.907   6.354  0.00  0.00    -0.244 OA
ATOM      4  C   UNL     1     -36.155  25.546   1.113  0.00  0.00    +0.132 C 
ATOM      5  C   UNL     1     -35.702  25.448   2.534  0.00  0.00    +0.029 A 
ATOM      6  C   UNL     1     -36.227  27.057   0.842  0.00  0.00    +0.088 C 
ATOM      7  C   UNL     1     -35.401  26.615   3.100  0.00  0.00    +0.180 A 
ATOM      8  C   UNL     1     -35.583  24.260   3.362  0.00  0.00    +0.043 A 
ATOM      9  C   UNL     1     -35.667  27.658   2.106  0.00  0.00    +0.208 C 
ATOM     10  C   UNL     1     -35.117  24.419   4.679  0.00  0.00    +0.082 A 
ATOM     11  C   UNL     1     -35.920  22.979   2.907  0.00  0.00    +0.171 C 
ATOM     12  C   UNL     1     -34.770  25.770   5.212  0.00  0.00    +0.346 A 
ATOM     13  C   UNL     1     -34.980  23.305   5.517  0.00  0.00    +0.046 C 
ATOM     14  C   UNL     1     -35.782  21.872   3.746  0.00  0.00    +0.202 C 
ATOM     15  C   UNL     1     -35.311  22.035   5.048  0.00  0.00    +0.171 C 
ENDROOT
BRANCH  11  16
ATOM     16  O   UNL     1     -36.417  22.750   1.657  0.00  0.00    -0.503 OA
ATOM     17  H   UNL     1     -37.342  22.759   1.513  0.00  0.00    +0.292 HD
ENDBRANCH  11  16
BRANCH   4  19
ATOM     18  O   UNL     1     -33.920  25.120   0.317  0.00  0.00    -0.250 OA
ATOM     19  C   UNL     1     -35.124  24.943   0.201  0.00  0.00    +0.321 C 
BRANCH  19  20
ATOM     20  O   UNL     1     -35.744  24.188  -0.750  0.00  0.00    -0.444 OA
ATOM     21  C   UNL     1     -34.874  23.427  -1.593  0.00  0.00    +0.256 C 
ENDBRANCH  19  20
ENDBRANCH   4  19
BRANCH  14  22
ATOM     22  O   UNL     1     -36.113  20.626   3.298  0.00  0.00    -0.501 OA
ATOM     23  H   UNL     1     -35.456  19.961   3.237  0.00  0.00    +0.292 HD
ENDBRANCH  14  22
BRANCH  15  24
ATOM     24  O   UNL     1     -35.175  20.960   5.875  0.00  0.00    -0.503 OA
ATOM     25  H   UNL     1     -34.557  20.985   6.578  0.00  0.00    +0.292 HD
ENDBRANCH  15  24
TORSDOF 5
ENDMDL
MODEL 8
REMARK VINA RESULT:      -5.6      2.212      5.399
REMARK  Name = 5319518
REMARK  5 active torsions:
REMARK  status: ('A' for Active; 'I' for Inactive)
REMARK    1  A    between atoms: C_4  and  C_19
REMARK    2  A    between atoms: C_11  and  O_16
REMARK    3  A    between atoms: C_14  and  O_22
REMARK    4  A    between atoms: C_15  and  O_24
REMARK    5  A    between atoms: C_19  and  O_20
REMARK                            x       y       z     vdW  Elec       q    Type
REMARK                         _______ _______ _______ _____ _____    ______ ____
ROOT
ATOM      1  O   UNL     1     -36.020  27.309   1.682  0.00  0.00    -0.418 OA
ATOM      2  O   UNL     1     -38.464  25.684   1.540  0.00  0.00    -0.288 OA
ATOM      3  O   UNL     1     -34.383  28.777   1.139  0.00  0.00    -0.244 OA
ATOM      4  C   UNL     1     -36.646  25.013   4.542  0.00  0.00    +0.132 C 
ATOM      5  C   UNL     1     -35.902  26.054   3.770  0.00  0.00    +0.029 A 
ATOM      6  C   UNL     1     -37.930  24.783   3.729  0.00  0.00    +0.088 C 
ATOM      7  C   UNL     1     -36.467  26.392   2.612  0.00  0.00    +0.180 A 
ATOM      8  C   UNL     1     -34.680  26.748   4.137  0.00  0.00    +0.043 A 
ATOM      9  C   UNL     1     -37.709  25.624   2.498  0.00  0.00    +0.208 C 
ATOM     10  C   UNL     1     -34.158  27.687   3.231  0.00  0.00    +0.082 A 
ATOM     11  C   UNL     1     -34.015  26.526   5.350  0.00  0.00    +0.171 C 
ATOM     12  C   UNL     1     -34.847  27.972   1.938  0.00  0.00    +0.346 A 
ATOM     13  C   UNL     1     -32.979  28.380   3.536  0.00  0.00    +0.046 C 
ATOM     14  C   UNL     1     -32.842  27.220   5.649  0.00  0.00    +0.202 C 
ATOM     15  C   UNL     1     -32.324  28.143   4.743  0.00  0.00    +0.171 C 
ENDROOT
BRANCH  11  16
ATOM     16  O   UNL     1     -34.482  25.662   6.297  0.00  0.00    -0.503 OA
ATOM     17  H   UNL     1     -34.508  25.923   7.196  0.00  0.00    +0.292 HD
ENDBRANCH  11  16
BRANCH   4  19
ATOM     18  O   UNL     1     -35.218  23.302   3.621  0.00  0.00    -0.250 OA
ATOM     19  C   UNL     1     -35.859  23.733   4.570  0.00  0.00    +0.321 C 
BRANCH  19  20
ATOM     20  O   UNL     1     -35.981  23.151   5.797  0.00  0.00    -0.444 OA
ATOM     21  C   UNL     1     -35.228  21.948   5.983  0.00  0.00    +0.256 C 
ENDBRANCH  19  20
ENDBRANCH   4  19
BRANCH  14  22
ATOM     22  O   UNL     1     -32.198  27.001   6.833  0.00  0.00    -0.501 OA
ATOM     23  H   UNL     1     -31.335  26.638   6.837  0.00  0.00    +0.292 HD
ENDBRANCH  14  22
BRANCH  15  24
ATOM     24  O   UNL     1     -31.179  28.826   5.028  0.00  0.00    -0.503 OA
ATOM     25  H   UNL     1     -30.671  28.596   5.781  0.00  0.00    +0.292 HD
ENDBRANCH  15  24
TORSDOF 5
ENDMDL
MODEL 9
REMARK VINA RESULT:      -5.6      1.531      4.753
REMARK  Name = 5319518
REMARK  5 active torsions:
REMARK  status: ('A' for Active; 'I' for Inactive)
REMARK    1  A    between atoms: C_4  and  C_19
REMARK    2  A    between atoms: C_11  and  O_16
REMARK    3  A    between atoms: C_14  and  O_22
REMARK    4  A    between atoms: C_15  and  O_24
REMARK    5  A    between atoms: C_19  and  O_20
REMARK                            x       y       z     vdW  Elec       q    Type
REMARK                         _______ _______ _______ _____ _____    ______ ____
ROOT
ATOM      1  O   UNL     1     -35.554  21.197   4.014  0.00  0.00    -0.418 OA
ATOM      2  O   UNL     1     -36.705  19.750   1.729  0.00  0.00    -0.288 OA
ATOM      3  O   UNL     1     -34.595  21.628   6.020  0.00  0.00    -0.244 OA
ATOM      4  C   UNL     1     -36.857  23.284   1.223  0.00  0.00    +0.132 C 
ATOM      5  C   UNL     1     -36.207  23.030   2.544  0.00  0.00    +0.029 A 
ATOM      6  C   UNL     1     -37.067  21.882   0.628  0.00  0.00    +0.088 C 
ATOM      7  C   UNL     1     -36.097  21.743   2.868  0.00  0.00    +0.180 A 
ATOM      8  C   UNL     1     -35.665  23.998   3.484  0.00  0.00    +0.043 A 
ATOM      9  C   UNL     1     -36.638  20.969   1.748  0.00  0.00    +0.208 C 
ATOM     10  C   UNL     1     -35.108  23.514   4.680  0.00  0.00    +0.082 A 
ATOM     11  C   UNL     1     -35.667  25.377   3.240  0.00  0.00    +0.171 C 
ATOM     12  C   UNL     1     -35.064  22.049   4.968  0.00  0.00    +0.346 A 
ATOM     13  C   UNL     1     -34.577  24.405   5.621  0.00  0.00    +0.046 C 
ATOM     14  C   UNL     1     -35.136  26.260   4.181  0.00  0.00    +0.202 C 
ATOM     15  C   UNL     1     -34.594  25.776   5.369  0.00  0.00    +0.171 C 
ENDROOT
BRANCH  11  16
ATOM     16  O   UNL     1     -36.151  25.919   2.085  0.00  0.00    -0.503 OA
ATOM     17  H   UNL     1     -37.071  26.063   1.985  0.00  0.00    +0.292 HD
ENDBRANCH  11  16
BRANCH   4  19
ATOM     18  O   UNL     1     -38.998  23.589   2.288  0.00  0.00    -0.250 OA
ATOM     19  C   UNL     1     -38.199  23.927   1.425  0.00  0.00    +0.321 C 
BRANCH  19  20
ATOM     20  O   UNL     1     -38.371  24.920   0.507  0.00  0.00    -0.444 OA
ATOM     21  C   UNL     1     -39.461  25.812   0.764  0.00  0.00    +0.256 C 
ENDBRANCH  19  20
ENDBRANCH   4  19
BRANCH  14  22
ATOM     22  O   UNL     1     -35.140  27.604   3.938  0.00  0.00    -0.501 OA
ATOM     23  H   UNL     1     -34.409  28.129   4.200  0.00  0.00    +0.292 HD
ENDBRANCH  14  22
BRANCH  15  24
ATOM     24  O   UNL     1     -34.071  26.631   6.292  0.00  0.00    -0.503 OA
ATOM     25  H   UNL     1     -33.172  26.557   6.544  0.00  0.00    +0.292 HD
ENDBRANCH  15  24
TORSDOF 5
ENDMDL
