MODEL 1
REMARK VINA RESULT:      -6.2      0.000      0.000
REMARK  Name = 53297436
REMARK  8 active torsions:
REMARK  status: ('A' for Active; 'I' for Inactive)
REMARK    1  A    between atoms: C_3  and  O_16
REMARK    2  A    between atoms: C_7  and  O_18
REMARK    3  A    between atoms: O_18  and  C_20
REMARK    4  A    between atoms: C_21  and  O_25
REMARK    5  A    between atoms: C_22  and  O_27
REMARK    6  A    between atoms: C_23  and  C_31
REMARK    7  A    between atoms: C_24  and  O_29
REMARK    8  A    between atoms: C_31  and  O_32
REMARK                            x       y       z     vdW  Elec       q    Type
REMARK                         _______ _______ _______ _____ _____    ______ ____
ROOT
ATOM      1  O   UNL     1     -37.060  22.878   4.048  0.00  0.00    -0.296 OA
ATOM      2  C   UNL     1     -35.475  24.448   1.268  0.00  0.00    +0.038 C 
ATOM      3  C   UNL     1     -36.564  25.162   2.088  0.00  0.00    +0.100 C 
ATOM      4  C   UNL     1     -35.635  22.971   0.929  0.00  0.00    +0.006 C 
ATOM      5  C   UNL     1     -35.816  24.002  -0.143  0.00  0.00    +0.006 C 
ATOM      6  C   UNL     1     -36.209  25.118   3.593  0.00  0.00    +0.111 C 
ATOM      7  C   UNL     1     -34.785  25.634   3.914  0.00  0.00    +0.122 C 
ATOM      8  C   UNL     1     -34.077  24.887   1.607  0.00  0.00    -0.044 C 
ATOM      9  C   UNL     1     -34.407  24.885   5.200  0.00  0.00    +0.039 C 
ATOM     10  C   UNL     1     -33.774  25.411   2.813  0.00  0.00    -0.008 C 
ATOM     11  C   UNL     1     -36.173  23.711   4.193  0.00  0.00    +0.155 C 
ATOM     12  C   UNL     1     -34.912  23.460   4.994  0.00  0.00    +0.060 C 
ATOM     13  C   UNL     1     -36.723  26.614   1.602  0.00  0.00    +0.030 C 
ATOM     14  C   UNL     1     -32.993  24.777   0.566  0.00  0.00    +0.026 C 
ATOM     15  C   UNL     1     -35.175  22.734   6.298  0.00  0.00    +0.008 C 
ENDROOT
BRANCH   3  16
ATOM     16  O   UNL     1     -37.860  24.578   1.886  0.00  0.00    -0.386 OA
ATOM     17  H   UNL     1     -38.538  25.160   2.261  0.00  0.00    +0.210 HD
ENDBRANCH   3  16
BRANCH   7  18
ATOM     18  O   UNL     1     -34.843  27.030   4.200  0.00  0.00    -0.329 OA
BRANCH  18  20
ATOM     19  O   UNL     1     -32.937  27.908   5.218  0.00  0.00    -0.326 OA
ATOM     20  C   UNL     1     -33.583  27.660   3.973  0.00  0.00    +0.266 C 
ATOM     21  C   UNL     1     -33.840  28.972   3.232  0.00  0.00    +0.196 C 
ATOM     22  C   UNL     1     -32.555  29.786   3.079  0.00  0.00    +0.172 C 
ATOM     23  C   UNL     1     -31.654  28.518   5.059  0.00  0.00    +0.176 C 
ATOM     24  C   UNL     1     -31.808  29.894   4.408  0.00  0.00    +0.169 C 
BRANCH  21  25
ATOM     25  O   UNL     1     -34.361  28.661   1.939  0.00  0.00    -0.378 OA
ATOM     26  H   UNL     1     -33.856  29.141   1.263  0.00  0.00    +0.211 HD
ENDBRANCH  21  25
BRANCH  22  27
ATOM     27  O   UNL     1     -32.877  31.108   2.644  0.00  0.00    -0.379 OA
ATOM     28  H   UNL     1     -32.171  31.717   2.912  0.00  0.00    +0.211 HD
ENDBRANCH  22  27
BRANCH  24  29
ATOM     29  O   UNL     1     -30.517  30.453   4.179  0.00  0.00    -0.379 OA
ATOM     30  H   UNL     1     -30.490  31.358   4.529  0.00  0.00    +0.211 HD
ENDBRANCH  24  29
BRANCH  23  31
ATOM     31  C   UNL     1     -31.015  28.614   6.440  0.00  0.00    +0.169 C 
BRANCH  31  32
ATOM     32  O   UNL     1     -30.265  27.436   6.674  0.00  0.00    -0.379 OA
ATOM     33  H   UNL     1     -29.601  27.605   7.359  0.00  0.00    +0.211 HD
ENDBRANCH  31  32
ENDBRANCH  23  31
ENDBRANCH  18  20
ENDBRANCH   7  18
TORSDOF 8
ENDMDL
MODEL 2
REMARK VINA RESULT:      -6.1      3.755      5.810
REMARK  Name = 53297436
REMARK  8 active torsions:
REMARK  status: ('A' for Active; 'I' for Inactive)
REMARK    1  A    between atoms: C_3  and  O_16
REMARK    2  A    between atoms: C_7  and  O_18
REMARK    3  A    between atoms: O_18  and  C_20
REMARK    4  A    between atoms: C_21  and  O_25
REMARK    5  A    between atoms: C_22  and  O_27
REMARK    6  A    between atoms: C_23  and  C_31
REMARK    7  A    between atoms: C_24  and  O_29
REMARK    8  A    between atoms: C_31  and  O_32
REMARK                            x       y       z     vdW  Elec       q    Type
REMARK                         _______ _______ _______ _____ _____    ______ ____
ROOT
ATOM      1  O   UNL     1     -39.743  19.972  -0.493  0.00  0.00    -0.296 OA
ATOM      2  C   UNL     1     -39.569  23.512  -0.868  0.00  0.00    +0.038 C 
ATOM      3  C   UNL     1     -40.372  22.857   0.270  0.00  0.00    +0.100 C 
ATOM      4  C   UNL     1     -39.614  22.906  -2.266  0.00  0.00    +0.006 C 
ATOM      5  C   UNL     1     -40.338  24.188  -1.991  0.00  0.00    +0.006 C 
ATOM      6  C   UNL     1     -39.479  21.853   1.037  0.00  0.00    +0.111 C 
ATOM      7  C   UNL     1     -38.137  22.452   1.521  0.00  0.00    +0.122 C 
ATOM      8  C   UNL     1     -38.232  24.047  -0.436  0.00  0.00    -0.044 C 
ATOM      9  C   UNL     1     -37.196  21.240   1.581  0.00  0.00    +0.039 C 
ATOM     10  C   UNL     1     -37.587  23.550   0.639  0.00  0.00    -0.008 C 
ATOM     11  C   UNL     1     -39.005  20.662   0.201  0.00  0.00    +0.155 C 
ATOM     12  C   UNL     1     -37.515  20.426   0.329  0.00  0.00    +0.060 C 
ATOM     13  C   UNL     1     -40.923  23.939   1.217  0.00  0.00    +0.030 C 
ATOM     14  C   UNL     1     -37.610  25.190  -1.197  0.00  0.00    +0.026 C 
ATOM     15  C   UNL     1     -37.158  18.960   0.473  0.00  0.00    +0.008 C 
ENDROOT
BRANCH   3  16
ATOM     16  O   UNL     1     -41.542  22.183  -0.215  0.00  0.00    -0.386 OA
ATOM     17  H   UNL     1     -41.302  21.292  -0.512  0.00  0.00    +0.210 HD
ENDBRANCH   3  16
BRANCH   7  18
ATOM     18  O   UNL     1     -38.299  22.968   2.840  0.00  0.00    -0.329 OA
BRANCH  18  20
ATOM     19  O   UNL     1     -36.546  22.694   4.355  0.00  0.00    -0.326 OA
ATOM     20  C   UNL     1     -37.082  23.529   3.332  0.00  0.00    +0.266 C 
ATOM     21  C   UNL     1     -37.395  24.919   3.885  0.00  0.00    +0.196 C 
ATOM     22  C   UNL     1     -36.174  25.533   4.570  0.00  0.00    +0.172 C 
ATOM     23  C   UNL     1     -35.310  23.188   4.875  0.00  0.00    +0.176 C 
ATOM     24  C   UNL     1     -35.531  24.545   5.544  0.00  0.00    +0.169 C 
BRANCH  21  25
ATOM     25  O   UNL     1     -37.797  25.753   2.799  0.00  0.00    -0.378 OA
ATOM     26  H   UNL     1     -37.409  26.635   2.906  0.00  0.00    +0.211 HD
ENDBRANCH  21  25
BRANCH  22  27
ATOM     27  O   UNL     1     -36.572  26.688   5.310  0.00  0.00    -0.379 OA
ATOM     28  H   UNL     1     -36.349  26.564   6.246  0.00  0.00    +0.211 HD
ENDBRANCH  22  27
BRANCH  24  29
ATOM     29  O   UNL     1     -34.278  25.064   5.983  0.00  0.00    -0.379 OA
ATOM     30  H   UNL     1     -34.239  26.015   5.797  0.00  0.00    +0.211 HD
ENDBRANCH  24  29
BRANCH  23  31
ATOM     31  C   UNL     1     -34.778  22.152   5.860  0.00  0.00    +0.169 C 
BRANCH  31  32
ATOM     32  O   UNL     1     -35.364  20.899   5.558  0.00  0.00    -0.379 OA
ATOM     33  H   UNL     1     -35.117  20.254   6.238  0.00  0.00    +0.211 HD
ENDBRANCH  31  32
ENDBRANCH  23  31
ENDBRANCH  18  20
ENDBRANCH   7  18
TORSDOF 8
ENDMDL
MODEL 3
REMARK VINA RESULT:      -6.1      3.169      8.162
REMARK  Name = 53297436
REMARK  8 active torsions:
REMARK  status: ('A' for Active; 'I' for Inactive)
REMARK    1  A    between atoms: C_3  and  O_16
REMARK    2  A    between atoms: C_7  and  O_18
REMARK    3  A    between atoms: O_18  and  C_20
REMARK    4  A    between atoms: C_21  and  O_25
REMARK    5  A    between atoms: C_22  and  O_27
REMARK    6  A    between atoms: C_23  and  C_31
REMARK    7  A    between atoms: C_24  and  O_29
REMARK    8  A    between atoms: C_31  and  O_32
REMARK                            x       y       z     vdW  Elec       q    Type
REMARK                         _______ _______ _______ _____ _____    ______ ____
ROOT
ATOM      1  O   UNL     1     -34.591  26.642   1.538  0.00  0.00    -0.296 OA
ATOM      2  C   UNL     1     -35.917  25.019   4.420  0.00  0.00    +0.038 C 
ATOM      3  C   UNL     1     -36.787  25.315   3.186  0.00  0.00    +0.100 C 
ATOM      4  C   UNL     1     -34.916  26.063   4.903  0.00  0.00    +0.006 C 
ATOM      5  C   UNL     1     -36.171  25.821   5.685  0.00  0.00    +0.006 C 
ATOM      6  C   UNL     1     -36.102  24.766   1.912  0.00  0.00    +0.111 C 
ATOM      7  C   UNL     1     -35.696  23.275   2.014  0.00  0.00    +0.122 C 
ATOM      8  C   UNL     1     -35.457  23.590   4.508  0.00  0.00    -0.044 C 
ATOM      9  C   UNL     1     -34.502  23.157   1.056  0.00  0.00    +0.039 C 
ATOM     10  C   UNL     1     -35.348  22.814   3.410  0.00  0.00    -0.008 C 
ATOM     11  C   UNL     1     -34.765  25.431   1.576  0.00  0.00    +0.155 C 
ATOM     12  C   UNL     1     -33.676  24.419   1.292  0.00  0.00    +0.060 C 
ATOM     13  C   UNL     1     -38.187  24.700   3.367  0.00  0.00    +0.030 C 
ATOM     14  C   UNL     1     -35.144  22.994   5.857  0.00  0.00    +0.026 C 
ATOM     15  C   UNL     1     -32.818  24.792   0.099  0.00  0.00    +0.008 C 
ENDROOT
BRANCH   3  16
ATOM     16  O   UNL     1     -37.036  26.719   3.027  0.00  0.00    -0.386 OA
ATOM     17  H   UNL     1     -37.245  26.907   2.099  0.00  0.00    +0.210 HD
ENDBRANCH   3  16
BRANCH   7  18
ATOM     18  O   UNL     1     -36.758  22.463   1.519  0.00  0.00    -0.329 OA
BRANCH  18  20
ATOM     19  O   UNL     1     -36.564  21.670  -0.666  0.00  0.00    -0.326 OA
ATOM     20  C   UNL     1     -36.265  21.403   0.701  0.00  0.00    +0.266 C 
ATOM     21  C   UNL     1     -36.938  20.107   1.153  0.00  0.00    +0.196 C 
ATOM     22  C   UNL     1     -36.578  18.942   0.231  0.00  0.00    +0.172 C 
ATOM     23  C   UNL     1     -36.073  20.655  -1.544  0.00  0.00    +0.176 C 
ATOM     24  C   UNL     1     -36.761  19.323  -1.238  0.00  0.00    +0.169 C 
BRANCH  21  25
ATOM     25  O   UNL     1     -36.498  19.814   2.480  0.00  0.00    -0.378 OA
ATOM     26  H   UNL     1     -36.565  18.859   2.639  0.00  0.00    +0.211 HD
ENDBRANCH  21  25
BRANCH  22  27
ATOM     27  O   UNL     1     -37.432  17.832   0.509  0.00  0.00    -0.379 OA
ATOM     28  H   UNL     1     -38.126  18.106   1.130  0.00  0.00    +0.211 HD
ENDBRANCH  22  27
BRANCH  24  29
ATOM     29  O   UNL     1     -36.201  18.304  -2.063  0.00  0.00    -0.379 OA
ATOM     30  H   UNL     1     -36.832  18.073  -2.764  0.00  0.00    +0.211 HD
ENDBRANCH  24  29
BRANCH  23  31
ATOM     31  C   UNL     1     -36.340  21.114  -2.974  0.00  0.00    +0.169 C 
BRANCH  31  32
ATOM     32  O   UNL     1     -37.585  20.587  -3.393  0.00  0.00    -0.379 OA
ATOM     33  H   UNL     1     -37.650  19.658  -3.123  0.00  0.00    +0.211 HD
ENDBRANCH  31  32
ENDBRANCH  23  31
ENDBRANCH  18  20
ENDBRANCH   7  18
TORSDOF 8
ENDMDL
MODEL 4
REMARK VINA RESULT:      -6.1      3.973      7.826
REMARK  Name = 53297436
REMARK  8 active torsions:
REMARK  status: ('A' for Active; 'I' for Inactive)
REMARK    1  A    between atoms: C_3  and  O_16
REMARK    2  A    between atoms: C_7  and  O_18
REMARK    3  A    between atoms: O_18  and  C_20
REMARK    4  A    between atoms: C_21  and  O_25
REMARK    5  A    between atoms: C_22  and  O_27
REMARK    6  A    between atoms: C_23  and  C_31
REMARK    7  A    between atoms: C_24  and  O_29
REMARK    8  A    between atoms: C_31  and  O_32
REMARK                            x       y       z     vdW  Elec       q    Type
REMARK                         _______ _______ _______ _____ _____    ______ ____
ROOT
ATOM      1  O   UNL     1     -34.772  24.404   4.799  0.00  0.00    -0.296 OA
ATOM      2  C   UNL     1     -37.535  24.783   2.580  0.00  0.00    +0.038 C 
ATOM      3  C   UNL     1     -36.083  24.767   2.070  0.00  0.00    +0.100 C 
ATOM      4  C   UNL     1     -37.873  25.533   3.863  0.00  0.00    +0.006 C 
ATOM      5  C   UNL     1     -38.294  26.099   2.541  0.00  0.00    +0.006 C 
ATOM      6  C   UNL     1     -35.349  23.515   2.603  0.00  0.00    +0.111 C 
ATOM      7  C   UNL     1     -36.094  22.187   2.325  0.00  0.00    +0.122 C 
ATOM      8  C   UNL     1     -38.262  23.483   2.378  0.00  0.00    -0.044 C 
ATOM      9  C   UNL     1     -35.631  21.263   3.461  0.00  0.00    +0.039 C 
ATOM     10  C   UNL     1     -37.600  22.312   2.277  0.00  0.00    -0.008 C 
ATOM     11  C   UNL     1     -35.194  23.472   4.125  0.00  0.00    +0.155 C 
ATOM     12  C   UNL     1     -35.621  22.142   4.709  0.00  0.00    +0.060 C 
ATOM     13  C   UNL     1     -36.064  24.803   0.530  0.00  0.00    +0.030 C 
ATOM     14  C   UNL     1     -39.764  23.485   2.247  0.00  0.00    +0.026 C 
ATOM     15  C   UNL     1     -34.674  21.635   5.778  0.00  0.00    +0.008 C 
ENDROOT
BRANCH   3  16
ATOM     16  O   UNL     1     -35.363  25.946   2.459  0.00  0.00    -0.386 OA
ATOM     17  H   UNL     1     -35.880  26.439   3.114  0.00  0.00    +0.210 HD
ENDBRANCH   3  16
BRANCH   7  18
ATOM     18  O   UNL     1     -35.645  21.645   1.085  0.00  0.00    -0.329 OA
BRANCH  18  20
ATOM     19  O   UNL     1     -33.901  20.097   0.988  0.00  0.00    -0.326 OA
ATOM     20  C   UNL     1     -35.298  20.267   1.216  0.00  0.00    +0.266 C 
ATOM     21  C   UNL     1     -36.108  19.478   0.187  0.00  0.00    +0.196 C 
ATOM     22  C   UNL     1     -35.688  18.008   0.156  0.00  0.00    +0.172 C 
ATOM     23  C   UNL     1     -33.484  18.738   1.129  0.00  0.00    +0.176 C 
ATOM     24  C   UNL     1     -34.168  17.869   0.072  0.00  0.00    +0.169 C 
BRANCH  21  25
ATOM     25  O   UNL     1     -37.488  19.569   0.539  0.00  0.00    -0.378 OA
ATOM     26  H   UNL     1     -37.813  20.464   0.349  0.00  0.00    +0.211 HD
ENDBRANCH  21  25
BRANCH  22  27
ATOM     27  O   UNL     1     -36.254  17.375  -0.992  0.00  0.00    -0.379 OA
ATOM     28  H   UNL     1     -36.934  16.743  -0.711  0.00  0.00    +0.211 HD
ENDBRANCH  22  27
BRANCH  24  29
ATOM     29  O   UNL     1     -33.807  16.506   0.278  0.00  0.00    -0.379 OA
ATOM     30  H   UNL     1     -33.661  16.349   1.224  0.00  0.00    +0.211 HD
ENDBRANCH  24  29
BRANCH  23  31
ATOM     31  C   UNL     1     -31.965  18.707   0.990  0.00  0.00    +0.169 C 
BRANCH  31  32
ATOM     32  O   UNL     1     -31.476  17.551   1.645  0.00  0.00    -0.379 OA
ATOM     33  H   UNL     1     -31.529  17.675   2.605  0.00  0.00    +0.211 HD
ENDBRANCH  31  32
ENDBRANCH  23  31
ENDBRANCH  18  20
ENDBRANCH   7  18
TORSDOF 8
ENDMDL
MODEL 5
REMARK VINA RESULT:      -6.0      3.139      5.626
REMARK  Name = 53297436
REMARK  8 active torsions:
REMARK  status: ('A' for Active; 'I' for Inactive)
REMARK    1  A    between atoms: C_3  and  O_16
REMARK    2  A    between atoms: C_7  and  O_18
REMARK    3  A    between atoms: O_18  and  C_20
REMARK    4  A    between atoms: C_21  and  O_25
REMARK    5  A    between atoms: C_22  and  O_27
REMARK    6  A    between atoms: C_23  and  C_31
REMARK    7  A    between atoms: C_24  and  O_29
REMARK    8  A    between atoms: C_31  and  O_32
REMARK                            x       y       z     vdW  Elec       q    Type
REMARK                         _______ _______ _______ _____ _____    ______ ____
ROOT
ATOM      1  O   UNL     1     -35.900  18.043   0.094  0.00  0.00    -0.296 OA
ATOM      2  C   UNL     1     -37.509  20.911  -1.281  0.00  0.00    +0.038 C 
ATOM      3  C   UNL     1     -38.059  20.193  -0.035  0.00  0.00    +0.100 C 
ATOM      4  C   UNL     1     -36.967  20.089  -2.445  0.00  0.00    +0.006 C 
ATOM      5  C   UNL     1     -38.286  20.787  -2.581  0.00  0.00    +0.006 C 
ATOM      6  C   UNL     1     -36.942  20.042   1.024  0.00  0.00    +0.111 C 
ATOM      7  C   UNL     1     -36.222  21.368   1.368  0.00  0.00    +0.122 C 
ATOM      8  C   UNL     1     -36.750  22.171  -0.968  0.00  0.00    -0.044 C 
ATOM      9  C   UNL     1     -34.823  20.919   1.814  0.00  0.00    +0.039 C 
ATOM     10  C   UNL     1     -36.161  22.361   0.230  0.00  0.00    -0.008 C 
ATOM     11  C   UNL     1     -35.772  19.157   0.588  0.00  0.00    +0.155 C 
ATOM     12  C   UNL     1     -34.431  19.812   0.838  0.00  0.00    +0.060 C 
ATOM     13  C   UNL     1     -39.258  20.973   0.536  0.00  0.00    +0.030 C 
ATOM     14  C   UNL     1     -36.675  23.267  -2.001  0.00  0.00    +0.026 C 
ATOM     15  C   UNL     1     -33.404  18.858   1.413  0.00  0.00    +0.008 C 
ENDROOT
BRANCH   3  16
ATOM     16  O   UNL     1     -38.597  18.901  -0.352  0.00  0.00    -0.386 OA
ATOM     17  H   UNL     1     -37.870  18.287  -0.540  0.00  0.00    +0.210 HD
ENDBRANCH   3  16
BRANCH   7  18
ATOM     18  O   UNL     1     -36.876  21.987   2.474  0.00  0.00    -0.329 OA
BRANCH  18  20
ATOM     19  O   UNL     1     -35.605  23.509   3.703  0.00  0.00    -0.326 OA
ATOM     20  C   UNL     1     -36.498  23.356   2.602  0.00  0.00    +0.266 C 
ATOM     21  C   UNL     1     -37.769  24.177   2.825  0.00  0.00    +0.196 C 
ATOM     22  C   UNL     1     -37.441  25.640   3.122  0.00  0.00    +0.172 C 
ATOM     23  C   UNL     1     -35.168  24.859   3.871  0.00  0.00    +0.176 C 
ATOM     24  C   UNL     1     -36.362  25.758   4.198  0.00  0.00    +0.169 C 
BRANCH  21  25
ATOM     25  O   UNL     1     -38.564  24.099   1.642  0.00  0.00    -0.378 OA
ATOM     26  H   UNL     1     -39.222  24.812   1.648  0.00  0.00    +0.211 HD
ENDBRANCH  21  25
BRANCH  22  27
ATOM     27  O   UNL     1     -38.614  26.303   3.598  0.00  0.00    -0.379 OA
ATOM     28  H   UNL     1     -39.218  25.652   3.988  0.00  0.00    +0.211 HD
ENDBRANCH  22  27
BRANCH  24  29
ATOM     29  O   UNL     1     -35.924  27.112   4.280  0.00  0.00    -0.379 OA
ATOM     30  H   UNL     1     -35.881  27.492   3.388  0.00  0.00    +0.211 HD
ENDBRANCH  24  29
BRANCH  23  31
ATOM     31  C   UNL     1     -34.129  24.871   4.987  0.00  0.00    +0.169 C 
BRANCH  31  32
ATOM     32  O   UNL     1     -33.312  26.016   4.832  0.00  0.00    -0.379 OA
ATOM     33  H   UNL     1     -32.383  25.773   4.968  0.00  0.00    +0.211 HD
ENDBRANCH  31  32
ENDBRANCH  23  31
ENDBRANCH  18  20
ENDBRANCH   7  18
TORSDOF 8
ENDMDL
MODEL 6
REMARK VINA RESULT:      -5.9      2.550      6.866
REMARK  Name = 53297436
REMARK  8 active torsions:
REMARK  status: ('A' for Active; 'I' for Inactive)
REMARK    1  A    between atoms: C_3  and  O_16
REMARK    2  A    between atoms: C_7  and  O_18
REMARK    3  A    between atoms: O_18  and  C_20
REMARK    4  A    between atoms: C_21  and  O_25
REMARK    5  A    between atoms: C_22  and  O_27
REMARK    6  A    between atoms: C_23  and  C_31
REMARK    7  A    between atoms: C_24  and  O_29
REMARK    8  A    between atoms: C_31  and  O_32
REMARK                            x       y       z     vdW  Elec       q    Type
REMARK                         _______ _______ _______ _____ _____    ______ ____
ROOT
ATOM      1  O   UNL     1     -33.167  25.447   4.334  0.00  0.00    -0.296 OA
ATOM      2  C   UNL     1     -33.837  27.946   1.883  0.00  0.00    +0.038 C 
ATOM      3  C   UNL     1     -33.705  26.460   1.508  0.00  0.00    +0.100 C 
ATOM      4  C   UNL     1     -32.882  28.553   2.904  0.00  0.00    +0.006 C 
ATOM      5  C   UNL     1     -32.731  28.895   1.454  0.00  0.00    +0.006 C 
ATOM      6  C   UNL     1     -34.639  25.605   2.396  0.00  0.00    +0.111 C 
ATOM      7  C   UNL     1     -36.109  26.090   2.405  0.00  0.00    +0.122 C 
ATOM      8  C   UNL     1     -35.260  28.427   1.960  0.00  0.00    -0.044 C 
ATOM      9  C   UNL     1     -36.638  25.626   3.771  0.00  0.00    +0.039 C 
ATOM     10  C   UNL     1     -36.279  27.579   2.210  0.00  0.00    -0.008 C 
ATOM     11  C   UNL     1     -34.293  25.631   3.886  0.00  0.00    +0.155 C 
ATOM     12  C   UNL     1     -35.503  25.907   4.753  0.00  0.00    +0.060 C 
ATOM     13  C   UNL     1     -34.029  26.261   0.016  0.00  0.00    +0.030 C 
ATOM     14  C   UNL     1     -35.565  29.883   1.716  0.00  0.00    +0.026 C 
ATOM     15  C   UNL     1     -35.561  25.028   5.986  0.00  0.00    +0.008 C 
ENDROOT
BRANCH   3  16
ATOM     16  O   UNL     1     -32.355  25.989   1.641  0.00  0.00    -0.386 OA
ATOM     17  H   UNL     1     -32.279  25.111   1.236  0.00  0.00    +0.210 HD
ENDBRANCH   3  16
BRANCH   7  18
ATOM     18  O   UNL     1     -36.835  25.413   1.382  0.00  0.00    -0.329 OA
BRANCH  18  20
ATOM     19  O   UNL     1     -37.082  23.095   1.485  0.00  0.00    -0.326 OA
ATOM     20  C   UNL     1     -37.615  24.344   1.918  0.00  0.00    +0.266 C 
ATOM     21  C   UNL     1     -39.051  24.515   1.422  0.00  0.00    +0.196 C 
ATOM     22  C   UNL     1     -39.924  23.327   1.828  0.00  0.00    +0.172 C 
ATOM     23  C   UNL     1     -37.805  21.980   2.008  0.00  0.00    +0.176 C 
ATOM     24  C   UNL     1     -39.244  22.000   1.490  0.00  0.00    +0.169 C 
BRANCH  21  25
ATOM     25  O   UNL     1     -39.582  25.710   1.993  0.00  0.00    -0.378 OA
ATOM     26  H   UNL     1     -39.434  25.704   2.952  0.00  0.00    +0.211 HD
ENDBRANCH  21  25
BRANCH  22  27
ATOM     27  O   UNL     1     -41.162  23.382   1.118  0.00  0.00    -0.379 OA
ATOM     28  H   UNL     1     -41.565  22.499   1.102  0.00  0.00    +0.211 HD
ENDBRANCH  22  27
BRANCH  24  29
ATOM     29  O   UNL     1     -39.975  20.931   2.086  0.00  0.00    -0.379 OA
ATOM     30  H   UNL     1     -39.680  20.810   3.003  0.00  0.00    +0.211 HD
ENDBRANCH  24  29
BRANCH  23  31
ATOM     31  C   UNL     1     -37.068  20.713   1.583  0.00  0.00    +0.169 C 
BRANCH  31  32
ATOM     32  O   UNL     1     -37.012  19.831   2.688  0.00  0.00    -0.379 OA
ATOM     33  H   UNL     1     -37.822  19.918   3.214  0.00  0.00    +0.211 HD
ENDBRANCH  31  32
ENDBRANCH  23  31
ENDBRANCH  18  20
ENDBRANCH   7  18
TORSDOF 8
ENDMDL
MODEL 7
REMARK VINA RESULT:      -5.9      4.154      6.561
REMARK  Name = 53297436
REMARK  8 active torsions:
REMARK  status: ('A' for Active; 'I' for Inactive)
REMARK    1  A    between atoms: C_3  and  O_16
REMARK    2  A    between atoms: C_7  and  O_18
REMARK    3  A    between atoms: O_18  and  C_20
REMARK    4  A    between atoms: C_21  and  O_25
REMARK    5  A    between atoms: C_22  and  O_27
REMARK    6  A    between atoms: C_23  and  C_31
REMARK    7  A    between atoms: C_24  and  O_29
REMARK    8  A    between atoms: C_31  and  O_32
REMARK                            x       y       z     vdW  Elec       q    Type
REMARK                         _______ _______ _______ _____ _____    ______ ____
ROOT
ATOM      1  O   UNL     1     -36.589  20.601  -2.059  0.00  0.00    -0.296 OA
ATOM      2  C   UNL     1     -33.476  19.764  -0.539  0.00  0.00    +0.038 C 
ATOM      3  C   UNL     1     -33.862  21.222  -0.842  0.00  0.00    +0.100 C 
ATOM      4  C   UNL     1     -33.796  18.674  -1.555  0.00  0.00    +0.006 C 
ATOM      5  C   UNL     1     -32.379  19.124  -1.373  0.00  0.00    +0.006 C 
ATOM      6  C   UNL     1     -35.254  21.536  -0.245  0.00  0.00    +0.111 C 
ATOM      7  C   UNL     1     -35.384  21.184   1.257  0.00  0.00    +0.122 C 
ATOM      8  C   UNL     1     -33.653  19.378   0.904  0.00  0.00    -0.044 C 
ATOM      9  C   UNL     1     -36.882  20.898   1.436  0.00  0.00    +0.039 C 
ATOM     10  C   UNL     1     -34.530  20.019   1.704  0.00  0.00    -0.008 C 
ATOM     11  C   UNL     1     -36.401  20.727  -0.855  0.00  0.00    +0.155 C 
ATOM     12  C   UNL     1     -37.286  20.098   0.200  0.00  0.00    +0.060 C 
ATOM     13  C   UNL     1     -32.794  22.179  -0.281  0.00  0.00    +0.030 C 
ATOM     14  C   UNL     1     -32.808  18.274   1.485  0.00  0.00    +0.026 C 
ATOM     15  C   UNL     1     -38.762  20.214  -0.120  0.00  0.00    +0.008 C 
ENDROOT
BRANCH   3  16
ATOM     16  O   UNL     1     -33.874  21.494  -2.251  0.00  0.00    -0.386 OA
ATOM     17  H   UNL     1     -32.962  21.586  -2.570  0.00  0.00    +0.210 HD
ENDBRANCH   3  16
BRANCH   7  18
ATOM     18  O   UNL     1     -35.041  22.325   2.040  0.00  0.00    -0.329 OA
BRANCH  18  20
ATOM     19  O   UNL     1     -36.159  24.277   1.423  0.00  0.00    -0.326 OA
ATOM     20  C   UNL     1     -36.181  23.146   2.290  0.00  0.00    +0.266 C 
ATOM     21  C   UNL     1     -36.131  23.590   3.752  0.00  0.00    +0.196 C 
ATOM     22  C   UNL     1     -37.237  24.596   4.066  0.00  0.00    +0.172 C 
ATOM     23  C   UNL     1     -37.290  25.130   1.606  0.00  0.00    +0.176 C 
ATOM     24  C   UNL     1     -37.283  25.712   3.021  0.00  0.00    +0.169 C 
BRANCH  21  25
ATOM     25  O   UNL     1     -36.294  22.435   4.575  0.00  0.00    -0.378 OA
ATOM     26  H   UNL     1     -36.158  22.678   5.505  0.00  0.00    +0.211 HD
ENDBRANCH  21  25
BRANCH  22  27
ATOM     27  O   UNL     1     -36.990  25.194   5.339  0.00  0.00    -0.379 OA
ATOM     28  H   UNL     1     -37.551  25.979   5.442  0.00  0.00    +0.211 HD
ENDBRANCH  22  27
BRANCH  24  29
ATOM     29  O   UNL     1     -38.460  26.492   3.215  0.00  0.00    -0.379 OA
ATOM     30  H   UNL     1     -39.182  26.126   2.681  0.00  0.00    +0.211 HD
ENDBRANCH  24  29
BRANCH  23  31
ATOM     31  C   UNL     1     -37.218  26.224   0.545  0.00  0.00    +0.169 C 
BRANCH  31  32
ATOM     32  O   UNL     1     -36.817  27.431   1.167  0.00  0.00    -0.379 OA
ATOM     33  H   UNL     1     -37.566  28.046   1.193  0.00  0.00    +0.211 HD
ENDBRANCH  31  32
ENDBRANCH  23  31
ENDBRANCH  18  20
ENDBRANCH   7  18
TORSDOF 8
ENDMDL
MODEL 8
REMARK VINA RESULT:      -5.8      3.322      7.566
REMARK  Name = 53297436
REMARK  8 active torsions:
REMARK  status: ('A' for Active; 'I' for Inactive)
REMARK    1  A    between atoms: C_3  and  O_16
REMARK    2  A    between atoms: C_7  and  O_18
REMARK    3  A    between atoms: O_18  and  C_20
REMARK    4  A    between atoms: C_21  and  O_25
REMARK    5  A    between atoms: C_22  and  O_27
REMARK    6  A    between atoms: C_23  and  C_31
REMARK    7  A    between atoms: C_24  and  O_29
REMARK    8  A    between atoms: C_31  and  O_32
REMARK                            x       y       z     vdW  Elec       q    Type
REMARK                         _______ _______ _______ _____ _____    ______ ____
ROOT
ATOM      1  O   UNL     1     -34.259  24.755   1.115  0.00  0.00    -0.296 OA
ATOM      2  C   UNL     1     -35.190  24.417   4.539  0.00  0.00    +0.038 C 
ATOM      3  C   UNL     1     -36.146  25.022   3.495  0.00  0.00    +0.100 C 
ATOM      4  C   UNL     1     -33.710  24.778   4.501  0.00  0.00    +0.006 C 
ATOM      5  C   UNL     1     -34.584  25.344   5.578  0.00  0.00    +0.006 C 
ATOM      6  C   UNL     1     -36.283  24.066   2.286  0.00  0.00    +0.111 C 
ATOM      7  C   UNL     1     -36.663  22.617   2.675  0.00  0.00    +0.122 C 
ATOM      8  C   UNL     1     -35.500  22.987   4.887  0.00  0.00    -0.044 C 
ATOM      9  C   UNL     1     -36.073  21.768   1.539  0.00  0.00    +0.039 C 
ATOM     10  C   UNL     1     -36.156  22.178   4.030  0.00  0.00    -0.008 C 
ATOM     11  C   UNL     1     -34.988  23.849   1.502  0.00  0.00    +0.155 C 
ATOM     12  C   UNL     1     -34.705  22.383   1.252  0.00  0.00    +0.060 C 
ATOM     13  C   UNL     1     -37.519  25.299   4.136  0.00  0.00    +0.030 C 
ATOM     14  C   UNL     1     -35.104  22.451   6.238  0.00  0.00    +0.026 C 
ATOM     15  C   UNL     1     -34.219  22.106  -0.157  0.00  0.00    +0.008 C 
ENDROOT
BRANCH   3  16
ATOM     16  O   UNL     1     -35.703  26.308   3.040  0.00  0.00    -0.386 OA
ATOM     17  H   UNL     1     -34.762  26.417   3.248  0.00  0.00    +0.210 HD
ENDBRANCH   3  16
BRANCH   7  18
ATOM     18  O   UNL     1     -38.082  22.479   2.656  0.00  0.00    -0.329 OA
BRANCH  18  20
ATOM     19  O   UNL     1     -39.083  24.181   1.414  0.00  0.00    -0.326 OA
ATOM     20  C   UNL     1     -38.622  22.834   1.383  0.00  0.00    +0.266 C 
ATOM     21  C   UNL     1     -39.776  21.879   1.079  0.00  0.00    +0.196 C 
ATOM     22  C   UNL     1     -40.509  22.282  -0.200  0.00  0.00    +0.172 C 
ATOM     23  C   UNL     1     -39.615  24.608   0.158  0.00  0.00    +0.176 C 
ATOM     24  C   UNL     1     -40.846  23.773  -0.198  0.00  0.00    +0.169 C 
BRANCH  21  25
ATOM     25  O   UNL     1     -39.240  20.565   0.924  0.00  0.00    -0.378 OA
ATOM     26  H   UNL     1     -38.624  20.553   0.175  0.00  0.00    +0.211 HD
ENDBRANCH  21  25
BRANCH  22  27
ATOM     27  O   UNL     1     -41.733  21.552  -0.298  0.00  0.00    -0.379 OA
ATOM     28  H   UNL     1     -42.129  21.701  -1.171  0.00  0.00    +0.211 HD
ENDBRANCH  22  27
BRANCH  24  29
ATOM     29  O   UNL     1     -41.315  24.152  -1.490  0.00  0.00    -0.379 OA
ATOM     30  H   UNL     1     -40.633  23.956  -2.152  0.00  0.00    +0.211 HD
ENDBRANCH  24  29
BRANCH  23  31
ATOM     31  C   UNL     1     -39.953  26.090   0.281  0.00  0.00    +0.169 C 
BRANCH  31  32
ATOM     32  O   UNL     1     -39.350  26.595   1.458  0.00  0.00    -0.379 OA
ATOM     33  H   UNL     1     -38.590  27.148   1.221  0.00  0.00    +0.211 HD
ENDBRANCH  31  32
ENDBRANCH  23  31
ENDBRANCH  18  20
ENDBRANCH   7  18
TORSDOF 8
ENDMDL
MODEL 9
REMARK VINA RESULT:      -5.8      3.247      8.308
REMARK  Name = 53297436
REMARK  8 active torsions:
REMARK  status: ('A' for Active; 'I' for Inactive)
REMARK    1  A    between atoms: C_3  and  O_16
REMARK    2  A    between atoms: C_7  and  O_18
REMARK    3  A    between atoms: O_18  and  C_20
REMARK    4  A    between atoms: C_21  and  O_25
REMARK    5  A    between atoms: C_22  and  O_27
REMARK    6  A    between atoms: C_23  and  C_31
REMARK    7  A    between atoms: C_24  and  O_29
REMARK    8  A    between atoms: C_31  and  O_32
REMARK                            x       y       z     vdW  Elec       q    Type
REMARK                         _______ _______ _______ _____ _____    ______ ____
ROOT
ATOM      1  O   UNL     1     -34.619  26.048   1.295  0.00  0.00    -0.296 OA
ATOM      2  C   UNL     1     -35.824  24.902   4.447  0.00  0.00    +0.038 C 
ATOM      3  C   UNL     1     -36.778  25.219   3.282  0.00  0.00    +0.100 C 
ATOM      4  C   UNL     1     -34.637  25.820   4.718  0.00  0.00    +0.006 C 
ATOM      5  C   UNL     1     -35.816  25.840   5.642  0.00  0.00    +0.006 C 
ATOM      6  C   UNL     1     -36.328  24.463   2.009  0.00  0.00    +0.111 C 
ATOM      7  C   UNL     1     -36.129  22.943   2.222  0.00  0.00    +0.122 C 
ATOM      8  C   UNL     1     -35.565  23.433   4.635  0.00  0.00    -0.044 C 
ATOM      9  C   UNL     1     -35.081  22.561   1.167  0.00  0.00    +0.039 C 
ATOM     10  C   UNL     1     -35.693  22.558   3.617  0.00  0.00    -0.008 C 
ATOM     11  C   UNL     1     -34.958  24.885   1.475  0.00  0.00    +0.155 C 
ATOM     12  C   UNL     1     -34.063  23.698   1.188  0.00  0.00    +0.060 C 
ATOM     13  C   UNL     1     -38.221  24.842   3.665  0.00  0.00    +0.030 C 
ATOM     14  C   UNL     1     -35.188  22.916   6.000  0.00  0.00    +0.026 C 
ATOM     15  C   UNL     1     -33.303  23.832  -0.116  0.00  0.00    +0.008 C 
ENDROOT
BRANCH   3  16
ATOM     16  O   UNL     1     -36.843  26.626   3.005  0.00  0.00    -0.386 OA
ATOM     17  H   UNL     1     -35.992  27.037   3.224  0.00  0.00    +0.210 HD
ENDBRANCH   3  16
BRANCH   7  18
ATOM     18  O   UNL     1     -37.345  22.262   1.923  0.00  0.00    -0.329 OA
BRANCH  18  20
ATOM     19  O   UNL     1     -38.128  22.325  -0.274  0.00  0.00    -0.326 OA
ATOM     20  C   UNL     1     -37.287  21.632   0.644  0.00  0.00    +0.266 C 
ATOM     21  C   UNL     1     -37.754  20.185   0.811  0.00  0.00    +0.196 C 
ATOM     22  C   UNL     1     -37.865  19.478  -0.540  0.00  0.00    +0.172 C 
ATOM     23  C   UNL     1     -38.096  21.757  -1.584  0.00  0.00    +0.176 C 
ATOM     24  C   UNL     1     -38.640  20.328  -1.548  0.00  0.00    +0.169 C 
BRANCH  21  25
ATOM     25  O   UNL     1     -36.804  19.500   1.627  0.00  0.00    -0.378 OA
ATOM     26  H   UNL     1     -37.231  18.738   2.050  0.00  0.00    +0.211 HD
ENDBRANCH  21  25
BRANCH  22  27
ATOM     27  O   UNL     1     -38.562  18.243  -0.375  0.00  0.00    -0.379 OA
ATOM     28  H   UNL     1     -38.527  17.974   0.557  0.00  0.00    +0.211 HD
ENDBRANCH  22  27
BRANCH  24  29
ATOM     29  O   UNL     1     -38.523  19.746  -2.844  0.00  0.00    -0.379 OA
ATOM     30  H   UNL     1     -39.407  19.638  -3.230  0.00  0.00    +0.211 HD
ENDBRANCH  24  29
BRANCH  23  31
ATOM     31  C   UNL     1     -38.927  22.655  -2.496  0.00  0.00    +0.169 C 
BRANCH  31  32
ATOM     32  O   UNL     1     -40.267  22.200  -2.478  0.00  0.00    -0.379 OA
ATOM     33  H   UNL     1     -40.867  22.960  -2.437  0.00  0.00    +0.211 HD
ENDBRANCH  31  32
ENDBRANCH  23  31
ENDBRANCH  18  20
ENDBRANCH   7  18
TORSDOF 8
ENDMDL
