MODEL 1
REMARK VINA RESULT:      -6.1      0.000      0.000
REMARK  Name = 5284529
REMARK  7 active torsions:
REMARK  status: ('A' for Active; 'I' for Inactive)
REMARK    1  A    between atoms: N_2  and  CA_9
REMARK    2  A    between atoms: C_3  and  CA_20
REMARK    3  A    between atoms: CA_11  and  C_17
REMARK    4  A    between atoms: C_13  and  O_14
REMARK    5  A    between atoms: C_17  and  O_18
REMARK    6  A    between atoms: CA_20  and  C_21
REMARK    7  A    between atoms: CA_20  and  N_27
REMARK                            x       y       z     vdW  Elec       q    Type
REMARK                         _______ _______ _______ _____ _____    ______ ____
ROOT
ATOM      1  O   UNL     1     -35.052  20.264   3.164  0.00  0.00    -0.277 OA
ATOM      2  N   UNL     1     -36.312  21.768   1.929  0.00  0.00    -0.298 N 
ATOM      3  C   UNL     1     -35.516  20.633   2.086  0.00  0.00    +0.206 C 
ATOM      4  H   UNL     1     -36.643  21.991   1.029  0.00  0.00    +0.150 HD
ENDROOT
BRANCH   2   9
ATOM      5  S   UNL     1     -34.996  24.540   1.726  0.00  0.00    -0.110 S 
ATOM      6  O   UNL     1     -39.226  22.919   2.856  0.00  0.00    -0.273 OA
ATOM      7  N   UNL     1     -37.483  24.493   2.682  0.00  0.00    -0.240 N 
ATOM      8  C   UNL     1     -36.138  24.088   3.056  0.00  0.00    +0.155 C 
ATOM      9  CA  UNL     1     -36.678  22.641   3.044  0.00  0.00    +0.178 C 
ATOM     10  C   UNL     1     -38.079  23.300   2.884  0.00  0.00    +0.251 C 
ATOM     11  CA  UNL     1     -37.801  25.751   2.292  0.00  0.00    +0.162 C 
ATOM     12  C   UNL     1     -35.368  26.327   1.850  0.00  0.00    +0.124 C 
ATOM     13  C   UNL     1     -36.851  26.638   1.931  0.00  0.00    +0.147 C 
BRANCH  13  14
ATOM     14  O   UNL     1     -37.186  27.928   1.554  0.00  0.00    -0.473 OA
ATOM     15  C   UNL     1     -36.037  28.747   1.509  0.00  0.00    +0.252 C 
ENDBRANCH  13  14
BRANCH  11  17
ATOM     16  OXT UNL     1     -39.913  25.975   1.226  0.00  0.00    -0.244 OA
ATOM     17  C   UNL     1     -39.219  26.124   2.213  0.00  0.00    +0.355 C 
BRANCH  17  18
ATOM     18  O   UNL     1     -39.613  26.645   3.391  0.00  0.00    -0.476 OA
ATOM     19  H   UNL     1     -39.770  27.566   3.467  0.00  0.00    +0.295 HD
ENDBRANCH  17  18
ENDBRANCH  11  17
ENDBRANCH   2   9
BRANCH   3  20
ATOM     20  CA  UNL     1     -35.269  19.883   0.784  0.00  0.00    +0.036 C 
BRANCH  20  21
ATOM     21  C   UNL     1     -33.817  19.556   0.693  0.00  0.00    -0.034 C 
ATOM     22  C   UNL     1     -32.940  20.599   0.041  0.00  0.00    -0.006 C 
ATOM     23  C   UNL     1     -33.316  18.399   1.163  0.00  0.00    -0.006 C 
ATOM     24  C   UNL     1     -31.863  18.029   1.090  0.00  0.00    -0.000 C 
ATOM     25  C   UNL     1     -31.488  20.229  -0.030  0.00  0.00    -0.000 C 
ATOM     26  C   UNL     1     -31.002  19.073   0.443  0.00  0.00    -0.000 C 
ENDBRANCH  20  21
BRANCH  20  27
ATOM     27  N   UNL     1     -36.108  18.687   0.808  0.00  0.00    +0.390 N 
ATOM     28  H1  UNL     1     -35.546  17.872   0.564  0.00  0.00    -0.088 HD
ATOM     29  H2  UNL     1     -36.868  18.791   0.135  0.00  0.00    -0.088 HD
ATOM     30  H3  UNL     1     -36.497  18.564   1.743  0.00  0.00    -0.088 HD
ENDBRANCH  20  27
ENDBRANCH   3  20
TORSDOF 7
ENDMDL
MODEL 2
REMARK VINA RESULT:      -5.9      2.710      7.621
REMARK  Name = 5284529
REMARK  7 active torsions:
REMARK  status: ('A' for Active; 'I' for Inactive)
REMARK    1  A    between atoms: N_2  and  CA_9
REMARK    2  A    between atoms: C_3  and  CA_20
REMARK    3  A    between atoms: CA_11  and  C_17
REMARK    4  A    between atoms: C_13  and  O_14
REMARK    5  A    between atoms: C_17  and  O_18
REMARK    6  A    between atoms: CA_20  and  C_21
REMARK    7  A    between atoms: CA_20  and  N_27
REMARK                            x       y       z     vdW  Elec       q    Type
REMARK                         _______ _______ _______ _____ _____    ______ ____
ROOT
ATOM      1  O   UNL     1     -38.129  27.699   1.101  0.00  0.00    -0.277 OA
ATOM      2  N   UNL     1     -36.435  26.811   2.411  0.00  0.00    -0.298 N 
ATOM      3  C   UNL     1     -36.937  27.624   1.396  0.00  0.00    +0.206 C 
ATOM      4  H   UNL     1     -35.465  26.811   2.580  0.00  0.00    +0.150 HD
ENDROOT
BRANCH   2   9
ATOM      5  S   UNL     1     -36.669  23.957   1.289  0.00  0.00    -0.110 S 
ATOM      6  O   UNL     1     -36.106  25.854   5.518  0.00  0.00    -0.273 OA
ATOM      7  N   UNL     1     -36.576  24.166   3.944  0.00  0.00    -0.240 N 
ATOM      8  C   UNL     1     -37.460  24.475   2.833  0.00  0.00    +0.155 C 
ATOM      9  CA  UNL     1     -37.286  25.956   3.237  0.00  0.00    +0.178 C 
ATOM     10  C   UNL     1     -36.568  25.395   4.500  0.00  0.00    +0.251 C 
ATOM     11  CA  UNL     1     -36.050  22.935   4.157  0.00  0.00    +0.162 C 
ATOM     12  C   UNL     1     -36.577  22.198   1.786  0.00  0.00    +0.124 C 
ATOM     13  C   UNL     1     -36.060  21.988   3.197  0.00  0.00    +0.147 C 
BRANCH  13  14
ATOM     14  O   UNL     1     -35.538  20.727   3.433  0.00  0.00    -0.473 OA
ATOM     15  C   UNL     1     -34.906  20.226   2.274  0.00  0.00    +0.252 C 
ENDBRANCH  13  14
BRANCH  11  17
ATOM     16  OXT UNL     1     -34.315  23.081   5.776  0.00  0.00    -0.244 OA
ATOM     17  C   UNL     1     -35.408  22.661   5.449  0.00  0.00    +0.355 C 
BRANCH  17  18
ATOM     18  O   UNL     1     -36.217  21.884   6.197  0.00  0.00    -0.476 OA
ATOM     19  H   UNL     1     -36.347  20.985   5.966  0.00  0.00    +0.295 HD
ENDBRANCH  17  18
ENDBRANCH  11  17
ENDBRANCH   2   9
BRANCH   3  20
ATOM     20  CA  UNL     1     -35.860  28.422   0.672  0.00  0.00    +0.036 C 
BRANCH  20  21
ATOM     21  C   UNL     1     -35.166  29.293   1.665  0.00  0.00    -0.034 C 
ATOM     22  C   UNL     1     -33.730  28.939   1.970  0.00  0.00    -0.006 C 
ATOM     23  C   UNL     1     -35.784  30.332   2.254  0.00  0.00    -0.006 C 
ATOM     24  C   UNL     1     -35.125  31.233   3.258  0.00  0.00    -0.000 C 
ATOM     25  C   UNL     1     -33.072  29.841   2.974  0.00  0.00    -0.000 C 
ATOM     26  C   UNL     1     -33.699  30.873   3.553  0.00  0.00    -0.000 C 
ENDBRANCH  20  21
BRANCH  20  27
ATOM     27  N   UNL     1     -34.955  27.460   0.047  0.00  0.00    +0.390 N 
ATOM     28  H1  UNL     1     -34.017  27.578   0.431  0.00  0.00    -0.088 HD
ATOM     29  H2  UNL     1     -34.933  27.619  -0.960  0.00  0.00    -0.088 HD
ATOM     30  H3  UNL     1     -35.284  26.513   0.236  0.00  0.00    -0.088 HD
ENDBRANCH  20  27
ENDBRANCH   3  20
TORSDOF 7
ENDMDL
MODEL 3
REMARK VINA RESULT:      -5.9      4.189      8.497
REMARK  Name = 5284529
REMARK  7 active torsions:
REMARK  status: ('A' for Active; 'I' for Inactive)
REMARK    1  A    between atoms: N_2  and  CA_9
REMARK    2  A    between atoms: C_3  and  CA_20
REMARK    3  A    between atoms: CA_11  and  C_17
REMARK    4  A    between atoms: C_13  and  O_14
REMARK    5  A    between atoms: C_17  and  O_18
REMARK    6  A    between atoms: CA_20  and  C_21
REMARK    7  A    between atoms: CA_20  and  N_27
REMARK                            x       y       z     vdW  Elec       q    Type
REMARK                         _______ _______ _______ _____ _____    ______ ____
ROOT
ATOM      1  O   UNL     1     -34.858  29.511   0.869  0.00  0.00    -0.277 OA
ATOM      2  N   UNL     1     -35.182  28.302   2.821  0.00  0.00    -0.298 N 
ATOM      3  C   UNL     1     -35.082  29.479   2.078  0.00  0.00    +0.206 C 
ATOM      4  H   UNL     1     -35.364  28.368   3.786  0.00  0.00    +0.150 HD
ENDROOT
BRANCH   2   9
ATOM      5  S   UNL     1     -34.116  26.237   4.835  0.00  0.00    -0.110 S 
ATOM      6  O   UNL     1     -37.401  26.290   1.518  0.00  0.00    -0.273 OA
ATOM      7  N   UNL     1     -35.928  25.347   3.096  0.00  0.00    -0.240 N 
ATOM      8  C   UNL     1     -34.552  25.814   3.130  0.00  0.00    +0.155 C 
ATOM      9  CA  UNL     1     -35.028  26.974   2.228  0.00  0.00    +0.178 C 
ATOM     10  C   UNL     1     -36.363  26.180   2.127  0.00  0.00    +0.251 C 
ATOM     11  CA  UNL     1     -36.397  24.353   3.887  0.00  0.00    +0.162 C 
ATOM     12  C   UNL     1     -34.413  24.542   5.459  0.00  0.00    +0.124 C 
ATOM     13  C   UNL     1     -35.711  23.930   4.969  0.00  0.00    +0.147 C 
BRANCH  13  14
ATOM     14  O   UNL     1     -36.191  22.898   5.759  0.00  0.00    -0.473 OA
ATOM     15  C   UNL     1     -35.227  21.872   5.876  0.00  0.00    +0.252 C 
ENDBRANCH  13  14
BRANCH  11  17
ATOM     16  OXT UNL     1     -38.763  24.372   3.655  0.00  0.00    -0.244 OA
ATOM     17  C   UNL     1     -37.709  23.770   3.578  0.00  0.00    +0.355 C 
BRANCH  17  18
ATOM     18  O   UNL     1     -37.553  22.485   3.202  0.00  0.00    -0.476 OA
ATOM     19  H   UNL     1     -36.738  22.049   3.354  0.00  0.00    +0.295 HD
ENDBRANCH  17  18
ENDBRANCH  11  17
ENDBRANCH   2   9
BRANCH   3  20
ATOM     20  CA  UNL     1     -35.277  30.738   2.912  0.00  0.00    +0.036 C 
BRANCH  20  21
ATOM     21  C   UNL     1     -33.963  31.435   3.034  0.00  0.00    -0.034 C 
ATOM     22  C   UNL     1     -33.816  32.719   2.252  0.00  0.00    -0.006 C 
ATOM     23  C   UNL     1     -32.968  30.948   3.797  0.00  0.00    -0.006 C 
ATOM     24  C   UNL     1     -31.631  31.616   3.948  0.00  0.00    -0.000 C 
ATOM     25  C   UNL     1     -32.480  33.385   2.404  0.00  0.00    -0.000 C 
ATOM     26  C   UNL     1     -31.497  32.889   3.167  0.00  0.00    -0.000 C 
ENDBRANCH  20  21
BRANCH  20  27
ATOM     27  N   UNL     1     -36.279  31.556   2.232  0.00  0.00    +0.390 N 
ATOM     28  H1  UNL     1     -36.096  32.542   2.418  0.00  0.00    -0.088 HD
ATOM     29  H2  UNL     1     -37.208  31.312   2.577  0.00  0.00    -0.088 HD
ATOM     30  H3  UNL     1     -36.232  31.384   1.228  0.00  0.00    -0.088 HD
ENDBRANCH  20  27
ENDBRANCH   3  20
TORSDOF 7
ENDMDL
MODEL 4
REMARK VINA RESULT:      -5.9      3.896      7.810
REMARK  Name = 5284529
REMARK  7 active torsions:
REMARK  status: ('A' for Active; 'I' for Inactive)
REMARK    1  A    between atoms: N_2  and  CA_9
REMARK    2  A    between atoms: C_3  and  CA_20
REMARK    3  A    between atoms: CA_11  and  C_17
REMARK    4  A    between atoms: C_13  and  O_14
REMARK    5  A    between atoms: C_17  and  O_18
REMARK    6  A    between atoms: CA_20  and  C_21
REMARK    7  A    between atoms: CA_20  and  N_27
REMARK                            x       y       z     vdW  Elec       q    Type
REMARK                         _______ _______ _______ _____ _____    ______ ____
ROOT
ATOM      1  O   UNL     1     -35.188  28.753   2.688  0.00  0.00    -0.277 OA
ATOM      2  N   UNL     1     -34.276  26.821   3.589  0.00  0.00    -0.298 N 
ATOM      3  C   UNL     1     -34.205  28.067   2.966  0.00  0.00    +0.206 C 
ATOM      4  H   UNL     1     -33.438  26.339   3.775  0.00  0.00    +0.150 HD
ENDROOT
BRANCH   2   9
ATOM      5  S   UNL     1     -34.993  24.414   1.816  0.00  0.00    -0.110 S 
ATOM      6  O   UNL     1     -35.157  25.372   6.382  0.00  0.00    -0.273 OA
ATOM      7  N   UNL     1     -35.619  24.193   4.396  0.00  0.00    -0.240 N 
ATOM      8  C   UNL     1     -36.012  24.943   3.215  0.00  0.00    +0.155 C 
ATOM      9  CA  UNL     1     -35.541  26.200   3.979  0.00  0.00    +0.178 C 
ATOM     10  C   UNL     1     -35.415  25.251   5.207  0.00  0.00    +0.251 C 
ATOM     11  CA  UNL     1     -35.558  22.839   4.434  0.00  0.00    +0.162 C 
ATOM     12  C   UNL     1     -35.565  22.677   1.900  0.00  0.00    +0.124 C 
ATOM     13  C   UNL     1     -35.564  22.102   3.304  0.00  0.00    +0.147 C 
BRANCH  13  14
ATOM     14  O   UNL     1     -35.523  20.719   3.355  0.00  0.00    -0.473 OA
ATOM     15  C   UNL     1     -34.812  20.201   2.250  0.00  0.00    +0.252 C 
ENDBRANCH  13  14
BRANCH  11  17
ATOM     16  OXT UNL     1     -36.313  22.125   6.571  0.00  0.00    -0.244 OA
ATOM     17  C   UNL     1     -35.429  22.179   5.739  0.00  0.00    +0.355 C 
BRANCH  17  18
ATOM     18  O   UNL     1     -34.193  21.652   5.855  0.00  0.00    -0.476 OA
ATOM     19  H   UNL     1     -33.998  21.069   6.562  0.00  0.00    +0.295 HD
ENDBRANCH  17  18
ENDBRANCH  11  17
ENDBRANCH   2   9
BRANCH   3  20
ATOM     20  CA  UNL     1     -32.781  28.508   2.654  0.00  0.00    +0.036 C 
BRANCH  20  21
ATOM     21  C   UNL     1     -32.142  28.975   3.918  0.00  0.00    -0.034 C 
ATOM     22  C   UNL     1     -31.007  28.127   4.442  0.00  0.00    -0.006 C 
ATOM     23  C   UNL     1     -32.552  30.087   4.554  0.00  0.00    -0.006 C 
ATOM     24  C   UNL     1     -31.937  30.593   5.828  0.00  0.00    -0.000 C 
ATOM     25  C   UNL     1     -30.393  28.634   5.714  0.00  0.00    -0.000 C 
ATOM     26  C   UNL     1     -30.811  29.744   6.338  0.00  0.00    -0.000 C 
ENDBRANCH  20  21
BRANCH  20  27
ATOM     27  N   UNL     1     -32.090  27.359   2.072  0.00  0.00    +0.390 N 
ATOM     28  H1  UNL     1     -32.776  26.716   1.675  0.00  0.00    -0.088 HD
ATOM     29  H2  UNL     1     -31.555  26.881   2.798  0.00  0.00    -0.088 HD
ATOM     30  H3  UNL     1     -31.459  27.680   1.338  0.00  0.00    -0.088 HD
ENDBRANCH  20  27
ENDBRANCH   3  20
TORSDOF 7
ENDMDL
MODEL 5
REMARK VINA RESULT:      -5.8      2.562      3.723
REMARK  Name = 5284529
REMARK  7 active torsions:
REMARK  status: ('A' for Active; 'I' for Inactive)
REMARK    1  A    between atoms: N_2  and  CA_9
REMARK    2  A    between atoms: C_3  and  CA_20
REMARK    3  A    between atoms: CA_11  and  C_17
REMARK    4  A    between atoms: C_13  and  O_14
REMARK    5  A    between atoms: C_17  and  O_18
REMARK    6  A    between atoms: CA_20  and  C_21
REMARK    7  A    between atoms: CA_20  and  N_27
REMARK                            x       y       z     vdW  Elec       q    Type
REMARK                         _______ _______ _______ _____ _____    ______ ____
ROOT
ATOM      1  O   UNL     1     -38.437  22.669   1.038  0.00  0.00    -0.277 OA
ATOM      2  N   UNL     1     -36.918  22.718   2.788  0.00  0.00    -0.298 N 
ATOM      3  C   UNL     1     -37.517  22.147   1.665  0.00  0.00    +0.206 C 
ATOM      4  H   UNL     1     -36.186  22.231   3.231  0.00  0.00    +0.150 HD
ENDROOT
BRANCH   2   9
ATOM      5  S   UNL     1     -35.198  23.571   5.190  0.00  0.00    -0.110 S 
ATOM      6  O   UNL     1     -36.967  25.686   1.423  0.00  0.00    -0.273 OA
ATOM      7  N   UNL     1     -35.962  25.524   3.547  0.00  0.00    -0.240 N 
ATOM      8  C   UNL     1     -36.526  24.600   4.517  0.00  0.00    +0.155 C 
ATOM      9  CA  UNL     1     -37.329  24.009   3.337  0.00  0.00    +0.178 C 
ATOM     10  C   UNL     1     -36.795  25.228   2.528  0.00  0.00    +0.251 C 
ATOM     11  CA  UNL     1     -34.918  26.345   3.819  0.00  0.00    +0.162 C 
ATOM     12  C   UNL     1     -34.275  24.997   5.872  0.00  0.00    +0.124 C 
ATOM     13  C   UNL     1     -34.136  26.154   4.901  0.00  0.00    +0.147 C 
BRANCH  13  14
ATOM     14  O   UNL     1     -33.085  27.012   5.181  0.00  0.00    -0.473 OA
ATOM     15  C   UNL     1     -32.856  27.080   6.573  0.00  0.00    +0.252 C 
ENDBRANCH  13  14
BRANCH  11  17
ATOM     16  OXT UNL     1     -33.957  27.290   1.862  0.00  0.00    -0.244 OA
ATOM     17  C   UNL     1     -34.613  27.428   2.876  0.00  0.00    +0.355 C 
BRANCH  17  18
ATOM     18  O   UNL     1     -35.171  28.575   3.313  0.00  0.00    -0.476 OA
ATOM     19  H   UNL     1     -35.405  28.667   4.215  0.00  0.00    +0.295 HD
ENDBRANCH  17  18
ENDBRANCH  11  17
ENDBRANCH   2   9
BRANCH   3  20
ATOM     20  CA  UNL     1     -36.921  20.799   1.281  0.00  0.00    +0.036 C 
BRANCH  20  21
ATOM     21  C   UNL     1     -35.537  21.020   0.771  0.00  0.00    -0.034 C 
ATOM     22  C   UNL     1     -34.504  20.001   1.192  0.00  0.00    -0.006 C 
ATOM     23  C   UNL     1     -35.227  22.064  -0.017  0.00  0.00    -0.006 C 
ATOM     24  C   UNL     1     -33.848  22.324  -0.551  0.00  0.00    -0.000 C 
ATOM     25  C   UNL     1     -33.126  20.262   0.657  0.00  0.00    -0.000 C 
ATOM     26  C   UNL     1     -32.831  21.307  -0.128  0.00  0.00    -0.000 C 
ENDBRANCH  20  21
BRANCH  20  27
ATOM     27  N   UNL     1     -36.947  19.959   2.476  0.00  0.00    +0.390 N 
ATOM     28  H1  UNL     1     -36.617  20.497   3.277  0.00  0.00    -0.088 HD
ATOM     29  H2  UNL     1     -36.341  19.150   2.336  0.00  0.00    -0.088 HD
ATOM     30  H3  UNL     1     -37.902  19.643   2.648  0.00  0.00    -0.088 HD
ENDBRANCH  20  27
ENDBRANCH   3  20
TORSDOF 7
ENDMDL
MODEL 6
REMARK VINA RESULT:      -5.8      4.547      6.407
REMARK  Name = 5284529
REMARK  7 active torsions:
REMARK  status: ('A' for Active; 'I' for Inactive)
REMARK    1  A    between atoms: N_2  and  CA_9
REMARK    2  A    between atoms: C_3  and  CA_20
REMARK    3  A    between atoms: CA_11  and  C_17
REMARK    4  A    between atoms: C_13  and  O_14
REMARK    5  A    between atoms: C_17  and  O_18
REMARK    6  A    between atoms: CA_20  and  C_21
REMARK    7  A    between atoms: CA_20  and  N_27
REMARK                            x       y       z     vdW  Elec       q    Type
REMARK                         _______ _______ _______ _____ _____    ______ ____
ROOT
ATOM      1  O   UNL     1     -34.366  25.796   3.188  0.00  0.00    -0.277 OA
ATOM      2  N   UNL     1     -35.727  27.664   3.364  0.00  0.00    -0.298 N 
ATOM      3  C   UNL     1     -35.384  26.336   3.617  0.00  0.00    +0.206 C 
ATOM      4  H   UNL     1     -36.562  28.017   3.747  0.00  0.00    +0.150 HD
ENDROOT
BRANCH   2   9
ATOM      5  S   UNL     1     -36.818  28.007   0.510  0.00  0.00    -0.110 S 
ATOM      6  O   UNL     1     -35.002  30.825   3.758  0.00  0.00    -0.273 OA
ATOM      7  N   UNL     1     -35.739  30.177   1.617  0.00  0.00    -0.240 N 
ATOM      8  C   UNL     1     -35.346  28.872   1.110  0.00  0.00    +0.155 C 
ATOM      9  CA  UNL     1     -34.898  28.557   2.555  0.00  0.00    +0.178 C 
ATOM     10  C   UNL     1     -35.158  30.067   2.830  0.00  0.00    +0.251 C 
ATOM     11  CA  UNL     1     -36.462  31.069   0.898  0.00  0.00    +0.162 C 
ATOM     12  C   UNL     1     -37.203  29.282  -0.746  0.00  0.00    +0.124 C 
ATOM     13  C   UNL     1     -37.126  30.702  -0.217  0.00  0.00    +0.147 C 
BRANCH  13  14
ATOM     14  O   UNL     1     -37.845  31.627  -0.957  0.00  0.00    -0.473 OA
ATOM     15  C   UNL     1     -39.198  31.237  -1.059  0.00  0.00    +0.252 C 
ENDBRANCH  13  14
BRANCH  11  17
ATOM     16  OXT UNL     1     -35.670  33.273   1.301  0.00  0.00    -0.244 OA
ATOM     17  C   UNL     1     -36.560  32.450   1.387  0.00  0.00    +0.355 C 
BRANCH  17  18
ATOM     18  O   UNL     1     -37.776  32.647   1.935  0.00  0.00    -0.476 OA
ATOM     19  H   UNL     1     -37.930  32.415   2.829  0.00  0.00    +0.295 HD
ENDBRANCH  17  18
ENDBRANCH  11  17
ENDBRANCH   2   9
BRANCH   3  20
ATOM     20  CA  UNL     1     -36.401  25.604   4.483  0.00  0.00    +0.036 C 
BRANCH  20  21
ATOM     21  C   UNL     1     -35.981  24.177   4.604  0.00  0.00    -0.034 C 
ATOM     22  C   UNL     1     -35.371  23.774   5.926  0.00  0.00    -0.006 C 
ATOM     23  C   UNL     1     -36.137  23.301   3.595  0.00  0.00    -0.006 C 
ATOM     24  C   UNL     1     -35.728  21.858   3.674  0.00  0.00    -0.000 C 
ATOM     25  C   UNL     1     -34.964  22.332   6.003  0.00  0.00    -0.000 C 
ATOM     26  C   UNL     1     -35.125  21.469   4.991  0.00  0.00    -0.000 C 
ENDBRANCH  20  21
BRANCH  20  27
ATOM     27  N   UNL     1     -36.438  26.284   5.775  0.00  0.00    +0.390 N 
ATOM     28  H1  UNL     1     -37.145  27.020   5.751  0.00  0.00    -0.088 HD
ATOM     29  H2  UNL     1     -35.525  26.696   5.970  0.00  0.00    -0.088 HD
ATOM     30  H3  UNL     1     -36.672  25.612   6.506  0.00  0.00    -0.088 HD
ENDBRANCH  20  27
ENDBRANCH   3  20
TORSDOF 7
ENDMDL
MODEL 7
REMARK VINA RESULT:      -5.8      4.294      6.819
REMARK  Name = 5284529
REMARK  7 active torsions:
REMARK  status: ('A' for Active; 'I' for Inactive)
REMARK    1  A    between atoms: N_2  and  CA_9
REMARK    2  A    between atoms: C_3  and  CA_20
REMARK    3  A    between atoms: CA_11  and  C_17
REMARK    4  A    between atoms: C_13  and  O_14
REMARK    5  A    between atoms: C_17  and  O_18
REMARK    6  A    between atoms: CA_20  and  C_21
REMARK    7  A    between atoms: CA_20  and  N_27
REMARK                            x       y       z     vdW  Elec       q    Type
REMARK                         _______ _______ _______ _____ _____    ______ ____
ROOT
ATOM      1  O   UNL     1     -35.007  25.409   1.699  0.00  0.00    -0.277 OA
ATOM      2  N   UNL     1     -34.286  26.461   3.636  0.00  0.00    -0.298 N 
ATOM      3  C   UNL     1     -35.154  25.658   2.895  0.00  0.00    +0.206 C 
ATOM      4  H   UNL     1     -34.479  26.608   4.590  0.00  0.00    +0.150 HD
ENDROOT
BRANCH   2   9
ATOM      5  S   UNL     1     -34.977  28.996   2.039  0.00  0.00    -0.110 S 
ATOM      6  O   UNL     1     -31.654  27.755   5.074  0.00  0.00    -0.273 OA
ATOM      7  N   UNL     1     -32.704  29.072   3.428  0.00  0.00    -0.240 N 
ATOM      8  C   UNL     1     -33.280  28.410   2.269  0.00  0.00    +0.155 C 
ATOM      9  CA  UNL     1     -33.102  27.094   3.057  0.00  0.00    +0.178 C 
ATOM     10  C   UNL     1     -32.299  27.958   4.073  0.00  0.00    +0.251 C 
ATOM     11  CA  UNL     1     -32.688  30.417   3.586  0.00  0.00    +0.162 C 
ATOM     12  C   UNL     1     -34.472  30.740   1.809  0.00  0.00    +0.124 C 
ATOM     13  C   UNL     1     -33.465  31.224   2.835  0.00  0.00    +0.147 C 
BRANCH  13  14
ATOM     14  O   UNL     1     -33.425  32.600   2.992  0.00  0.00    -0.473 OA
ATOM     15  C   UNL     1     -33.834  33.248   1.805  0.00  0.00    +0.252 C 
ENDBRANCH  13  14
BRANCH  11  17
ATOM     16  OXT UNL     1     -30.806  31.595   4.436  0.00  0.00    -0.244 OA
ATOM     17  C   UNL     1     -31.841  30.989   4.640  0.00  0.00    +0.355 C 
BRANCH  17  18
ATOM     18  O   UNL     1     -32.390  30.738   5.845  0.00  0.00    -0.476 OA
ATOM     19  H   UNL     1     -32.094  31.205   6.601  0.00  0.00    +0.295 HD
ENDBRANCH  17  18
ENDBRANCH  11  17
ENDBRANCH   2   9
BRANCH   3  20
ATOM     20  CA  UNL     1     -36.316  25.110   3.712  0.00  0.00    +0.036 C 
BRANCH  20  21
ATOM     21  C   UNL     1     -35.917  23.790   4.281  0.00  0.00    -0.034 C 
ATOM     22  C   UNL     1     -35.599  23.772   5.758  0.00  0.00    -0.006 C 
ATOM     23  C   UNL     1     -35.844  22.681   3.524  0.00  0.00    -0.006 C 
ATOM     24  C   UNL     1     -35.445  21.334   4.055  0.00  0.00    -0.000 C 
ATOM     25  C   UNL     1     -35.202  22.425   6.287  0.00  0.00    -0.000 C 
ATOM     26  C   UNL     1     -35.133  21.327   5.521  0.00  0.00    -0.000 C 
ENDBRANCH  20  21
BRANCH  20  27
ATOM     27  N   UNL     1     -36.619  26.094   4.748  0.00  0.00    +0.390 N 
ATOM     28  H1  UNL     1     -36.028  25.923   5.562  0.00  0.00    -0.088 HD
ATOM     29  H2  UNL     1     -37.600  26.014   5.017  0.00  0.00    -0.088 HD
ATOM     30  H3  UNL     1     -36.440  27.031   4.388  0.00  0.00    -0.088 HD
ENDBRANCH  20  27
ENDBRANCH   3  20
TORSDOF 7
ENDMDL
MODEL 8
REMARK VINA RESULT:      -5.7      5.256      8.243
REMARK  Name = 5284529
REMARK  7 active torsions:
REMARK  status: ('A' for Active; 'I' for Inactive)
REMARK    1  A    between atoms: N_2  and  CA_9
REMARK    2  A    between atoms: C_3  and  CA_20
REMARK    3  A    between atoms: CA_11  and  C_17
REMARK    4  A    between atoms: C_13  and  O_14
REMARK    5  A    between atoms: C_17  and  O_18
REMARK    6  A    between atoms: CA_20  and  C_21
REMARK    7  A    between atoms: CA_20  and  N_27
REMARK                            x       y       z     vdW  Elec       q    Type
REMARK                         _______ _______ _______ _____ _____    ______ ____
ROOT
ATOM      1  O   UNL     1     -30.980  27.820   4.087  0.00  0.00    -0.277 OA
ATOM      2  N   UNL     1     -33.234  28.362   4.055  0.00  0.00    -0.298 N 
ATOM      3  C   UNL     1     -31.941  28.416   4.573  0.00  0.00    +0.206 C 
ATOM      4  H   UNL     1     -33.945  28.871   4.507  0.00  0.00    +0.150 HD
ENDROOT
BRANCH   2   9
ATOM      5  S   UNL     1     -33.914  25.440   4.733  0.00  0.00    -0.110 S 
ATOM      6  O   UNL     1     -35.681  28.720   1.920  0.00  0.00    -0.273 OA
ATOM      7  N   UNL     1     -35.357  26.556   2.791  0.00  0.00    -0.240 N 
ATOM      8  C   UNL     1     -34.000  26.105   3.051  0.00  0.00    +0.155 C 
ATOM      9  CA  UNL     1     -33.582  27.581   2.868  0.00  0.00    +0.178 C 
ATOM     10  C   UNL     1     -35.044  27.803   2.383  0.00  0.00    +0.251 C 
ATOM     11  CA  UNL     1     -36.449  25.773   2.968  0.00  0.00    +0.162 C 
ATOM     12  C   UNL     1     -35.154  24.133   4.409  0.00  0.00    +0.124 C 
ATOM     13  C   UNL     1     -36.388  24.630   3.681  0.00  0.00    +0.147 C 
BRANCH  13  14
ATOM     14  O   UNL     1     -37.506  23.827   3.838  0.00  0.00    -0.473 OA
ATOM     15  C   UNL     1     -37.443  22.712   2.975  0.00  0.00    +0.252 C 
ENDBRANCH  13  14
BRANCH  11  17
ATOM     16  OXT UNL     1     -37.961  26.337   1.223  0.00  0.00    -0.244 OA
ATOM     17  C   UNL     1     -37.731  26.222   2.412  0.00  0.00    +0.355 C 
BRANCH  17  18
ATOM     18  O   UNL     1     -38.593  26.477   3.416  0.00  0.00    -0.476 OA
ATOM     19  H   UNL     1     -38.545  27.291   3.878  0.00  0.00    +0.295 HD
ENDBRANCH  17  18
ENDBRANCH  11  17
ENDBRANCH   2   9
BRANCH   3  20
ATOM     20  CA  UNL     1     -31.822  29.292   5.813  0.00  0.00    +0.036 C 
BRANCH  20  21
ATOM     21  C   UNL     1     -30.397  29.704   5.970  0.00  0.00    -0.034 C 
ATOM     22  C   UNL     1     -29.961  30.907   5.167  0.00  0.00    -0.006 C 
ATOM     23  C   UNL     1     -29.550  29.042   6.778  0.00  0.00    -0.006 C 
ATOM     24  C   UNL     1     -28.109  29.421   6.964  0.00  0.00    -0.000 C 
ATOM     25  C   UNL     1     -28.521  31.285   5.355  0.00  0.00    -0.000 C 
ATOM     26  C   UNL     1     -27.687  30.617   6.164  0.00  0.00    -0.000 C 
ENDBRANCH  20  21
BRANCH  20  27
ATOM     27  N   UNL     1     -32.714  30.434   5.623  0.00  0.00    +0.390 N 
ATOM     28  H1  UNL     1     -32.691  31.025   6.455  0.00  0.00    -0.088 HD
ATOM     29  H2  UNL     1     -33.666  30.100   5.470  0.00  0.00    -0.088 HD
ATOM     30  H3  UNL     1     -32.407  30.972   4.814  0.00  0.00    -0.088 HD
ENDBRANCH  20  27
ENDBRANCH   3  20
TORSDOF 7
ENDMDL
MODEL 9
REMARK VINA RESULT:      -5.7      2.930      3.913
REMARK  Name = 5284529
REMARK  7 active torsions:
REMARK  status: ('A' for Active; 'I' for Inactive)
REMARK    1  A    between atoms: N_2  and  CA_9
REMARK    2  A    between atoms: C_3  and  CA_20
REMARK    3  A    between atoms: CA_11  and  C_17
REMARK    4  A    between atoms: C_13  and  O_14
REMARK    5  A    between atoms: C_17  and  O_18
REMARK    6  A    between atoms: CA_20  and  C_21
REMARK    7  A    between atoms: CA_20  and  N_27
REMARK                            x       y       z     vdW  Elec       q    Type
REMARK                         _______ _______ _______ _____ _____    ______ ____
ROOT
ATOM      1  O   UNL     1     -36.925  22.255  -0.169  0.00  0.00    -0.277 OA
ATOM      2  N   UNL     1     -36.110  22.625   1.970  0.00  0.00    -0.298 N 
ATOM      3  C   UNL     1     -36.435  21.825   0.874  0.00  0.00    +0.206 C 
ATOM      4  H   UNL     1     -35.721  22.197   2.767  0.00  0.00    +0.150 HD
ENDROOT
BRANCH   2   9
ATOM      5  S   UNL     1     -35.596  23.851   4.743  0.00  0.00    -0.110 S 
ATOM      6  O   UNL     1     -34.593  25.011   0.333  0.00  0.00    -0.273 OA
ATOM      7  N   UNL     1     -34.840  25.323   2.655  0.00  0.00    -0.240 N 
ATOM      8  C   UNL     1     -36.051  24.842   3.298  0.00  0.00    +0.155 C 
ATOM      9  CA  UNL     1     -36.322  24.072   1.987  0.00  0.00    +0.178 C 
ATOM     10  C   UNL     1     -35.123  24.882   1.412  0.00  0.00    +0.251 C 
ATOM     11  CA  UNL     1     -33.864  25.997   3.311  0.00  0.00    +0.162 C 
ATOM     12  C   UNL     1     -34.734  25.236   5.572  0.00  0.00    +0.124 C 
ATOM     13  C   UNL     1     -33.801  26.008   4.659  0.00  0.00    +0.147 C 
BRANCH  13  14
ATOM     14  O   UNL     1     -32.811  26.718   5.320  0.00  0.00    -0.473 OA
ATOM     15  C   UNL     1     -33.100  26.804   6.700  0.00  0.00    +0.252 C 
ENDBRANCH  13  14
BRANCH  11  17
ATOM     16  OXT UNL     1     -33.020  27.684   1.866  0.00  0.00    -0.244 OA
ATOM     17  C   UNL     1     -32.830  26.679   2.524  0.00  0.00    +0.355 C 
BRANCH  17  18
ATOM     18  O   UNL     1     -31.661  26.021   2.650  0.00  0.00    -0.476 OA
ATOM     19  H   UNL     1     -31.639  25.087   2.574  0.00  0.00    +0.295 HD
ENDBRANCH  17  18
ENDBRANCH  11  17
ENDBRANCH   2   9
BRANCH   3  20
ATOM     20  CA  UNL     1     -36.126  20.349   1.090  0.00  0.00    +0.036 C 
BRANCH  20  21
ATOM     21  C   UNL     1     -34.666  20.134   0.875  0.00  0.00    -0.034 C 
ATOM     22  C   UNL     1     -33.954  21.179   0.048  0.00  0.00    -0.006 C 
ATOM     23  C   UNL     1     -34.021  19.071   1.387  0.00  0.00    -0.006 C 
ATOM     24  C   UNL     1     -32.553  18.815   1.195  0.00  0.00    -0.000 C 
ATOM     25  C   UNL     1     -32.488  20.921  -0.143  0.00  0.00    -0.000 C 
ATOM     26  C   UNL     1     -31.857  19.858   0.374  0.00  0.00    -0.000 C 
ENDBRANCH  20  21
BRANCH  20  27
ATOM     27  N   UNL     1     -36.544  20.014   2.449  0.00  0.00    +0.390 N 
ATOM     28  H1  UNL     1     -37.561  20.068   2.514  0.00  0.00    -0.088 HD
ATOM     29  H2  UNL     1     -36.125  20.672   3.106  0.00  0.00    -0.088 HD
ATOM     30  H3  UNL     1     -36.239  19.067   2.673  0.00  0.00    -0.088 HD
ENDBRANCH  20  27
ENDBRANCH   3  20
TORSDOF 7
ENDMDL
