MODEL 1
REMARK VINA RESULT:      -6.7      0.000      0.000
REMARK  Name = 51039119
REMARK  6 active torsions:
REMARK  status: ('A' for Active; 'I' for Inactive)
REMARK    1  A    between atoms: N_2  and  C_22
REMARK    2  A    between atoms: C_4  and  N_7
REMARK    3  A    between atoms: C_14  and  C_18
REMARK    4  A    between atoms: C_23  and  N_29
REMARK    5  A    between atoms: C_24  and  N_33
REMARK    6  A    between atoms: N_33  and  C_36
REMARK                            x       y       z     vdW  Elec       q    Type
REMARK                         _______ _______ _______ _____ _____    ______ ____
ROOT
ATOM      1  O   UNL     1     -34.643  31.365   2.912  0.00  0.00    -0.273 OA
ATOM      2  N   UNL     1     -34.632  30.744   0.643  0.00  0.00    -0.278 N 
ATOM      3  C   UNL     1     -33.915  29.811  -0.192  0.00  0.00    +0.096 C 
ATOM      4  C   UNL     1     -33.029  29.775   2.044  0.00  0.00    +0.150 C 
ATOM      5  C   UNL     1     -32.634  29.560   0.584  0.00  0.00    +0.050 C 
ATOM      6  C   UNL     1     -34.184  30.748   1.963  0.00  0.00    +0.244 C 
ENDROOT
BRANCH   4   7
ATOM      7  N   UNL     1     -33.503  28.555   2.650  0.00  0.00    -0.299 N 
ATOM      8  N   UNL     1     -33.711  26.993   4.387  0.00  0.00    -0.148 N 
ATOM      9  N   UNL     1     -32.449  28.878   4.729  0.00  0.00    -0.215 NA
ATOM     10  N   UNL     1     -34.496  26.181   3.655  0.00  0.00    -0.179 NA
ATOM     11  N   UNL     1     -32.679  27.260   6.489  0.00  0.00    -0.231 NA
ATOM     12  C   UNL     1     -33.196  28.193   3.911  0.00  0.00    +0.207 C 
ATOM     13  C   UNL     1     -33.458  26.534   5.652  0.00  0.00    +0.137 C 
ATOM     14  C   UNL     1     -34.747  25.172   4.494  0.00  0.00    +0.061 C 
ATOM     15  C   UNL     1     -34.129  25.337   5.749  0.00  0.00    +0.106 C 
ATOM     16  C   UNL     1     -32.220  28.375   5.997  0.00  0.00    +0.254 C 
ATOM     17  H   UNL     1     -34.079  27.960   2.118  0.00  0.00    +0.150 HD
BRANCH  14  18
ATOM     18  C   UNL     1     -35.596  24.051   4.054  0.00  0.00    +0.034 C 
ATOM     19  C   UNL     1     -35.160  23.337   2.722  0.00  0.00    +0.006 C 
ATOM     20  C   UNL     1     -35.650  22.905   5.121  0.00  0.00    +0.006 C 
ATOM     21  C   UNL     1     -37.074  24.503   3.796  0.00  0.00    +0.006 C 
ENDBRANCH  14  18
ENDBRANCH   4   7
BRANCH   2  22
ATOM     22  C   UNL     1     -35.789  31.458   0.155  0.00  0.00    +0.093 C 
ATOM     23  C   UNL     1     -35.473  32.941  -0.103  0.00  0.00    +0.088 C 
ATOM     24  C   UNL     1     -37.964  33.499   0.308  0.00  0.00    -0.060 C 
ATOM     25  C   UNL     1     -36.986  31.267   1.092  0.00  0.00    +0.019 C 
ATOM     26  C   UNL     1     -36.723  33.697  -0.580  0.00  0.00    -0.000 C 
ATOM     27  C   UNL     1     -38.219  32.011   0.576  0.00  0.00    -0.020 C 
BRANCH  23  29
ATOM     28  O   UNL     1     -33.449  35.022  -0.106  0.00  0.00    -0.275 OA
ATOM     29  N   UNL     1     -34.878  33.588   1.042  0.00  0.00    -0.304 N 
ATOM     30  C   UNL     1     -33.912  34.576   0.939  0.00  0.00    +0.223 C 
ATOM     31  C   UNL     1     -33.481  35.094   2.285  0.00  0.00    +0.095 C 
ATOM     32  H   UNL     1     -35.172  33.313   1.941  0.00  0.00    +0.149 HD
ENDBRANCH  23  29
BRANCH  24  33
ATOM     33  N   UNL     1     -37.852  34.234   1.569  0.00  0.00    +0.388 N 
ATOM     34  H   UNL     1     -36.871  34.453   1.743  0.00  0.00    -0.084 HD
ATOM     35  H   UNL     1     -38.223  33.652   2.321  0.00  0.00    -0.084 HD
BRANCH  33  36
ATOM     36  C   UNL     1     -38.616  35.471   1.515  0.00  0.00    -0.046 C 
ATOM     37  C   UNL     1     -39.721  35.341   0.461  0.00  0.00    -0.022 C 
ATOM     38  C   UNL     1     -37.665  36.614   1.144  0.00  0.00    -0.022 C 
ATOM     39  C   UNL     1     -39.231  35.726   2.895  0.00  0.00    -0.022 C 
ENDBRANCH  33  36
ENDBRANCH  24  33
ENDBRANCH   2  22
TORSDOF 6
ENDMDL
MODEL 2
REMARK VINA RESULT:      -6.5      3.361      9.375
REMARK  Name = 51039119
REMARK  6 active torsions:
REMARK  status: ('A' for Active; 'I' for Inactive)
REMARK    1  A    between atoms: N_2  and  C_22
REMARK    2  A    between atoms: C_4  and  N_7
REMARK    3  A    between atoms: C_14  and  C_18
REMARK    4  A    between atoms: C_23  and  N_29
REMARK    5  A    between atoms: C_24  and  N_33
REMARK    6  A    between atoms: N_33  and  C_36
REMARK                            x       y       z     vdW  Elec       q    Type
REMARK                         _______ _______ _______ _____ _____    ______ ____
ROOT
ATOM      1  O   UNL     1     -37.932  25.863   3.179  0.00  0.00    -0.273 OA
ATOM      2  N   UNL     1     -36.956  25.162   1.157  0.00  0.00    -0.278 N 
ATOM      3  C   UNL     1     -36.421  25.788  -0.029  0.00  0.00    +0.096 C 
ATOM      4  C   UNL     1     -37.353  27.450   1.438  0.00  0.00    +0.150 C 
ATOM      5  C   UNL     1     -37.088  27.152  -0.036  0.00  0.00    +0.050 C 
ATOM      6  C   UNL     1     -37.485  26.079   2.063  0.00  0.00    +0.244 C 
ENDROOT
BRANCH   4   7
ATOM      7  N   UNL     1     -36.235  28.124   2.052  0.00  0.00    -0.299 N 
ATOM      8  N   UNL     1     -34.890  29.981   2.544  0.00  0.00    -0.148 N 
ATOM      9  N   UNL     1     -36.731  30.263   1.206  0.00  0.00    -0.215 NA
ATOM     10  N   UNL     1     -34.045  29.255   3.298  0.00  0.00    -0.179 NA
ATOM     11  N   UNL     1     -35.334  32.146   1.726  0.00  0.00    -0.231 NA
ATOM     12  C   UNL     1     -36.000  29.443   1.905  0.00  0.00    +0.207 C 
ATOM     13  C   UNL     1     -34.562  31.307   2.457  0.00  0.00    +0.137 C 
ATOM     14  C   UNL     1     -33.149  30.161   3.702  0.00  0.00    +0.061 C 
ATOM     15  C   UNL     1     -33.421  31.454   3.211  0.00  0.00    +0.106 C 
ATOM     16  C   UNL     1     -36.361  31.594   1.146  0.00  0.00    +0.254 C 
ATOM     17  H   UNL     1     -35.616  27.596   2.606  0.00  0.00    +0.150 HD
BRANCH  14  18
ATOM     18  C   UNL     1     -32.033  29.748   4.571  0.00  0.00    +0.034 C 
ATOM     19  C   UNL     1     -31.871  30.550   5.914  0.00  0.00    +0.006 C 
ATOM     20  C   UNL     1     -32.161  28.250   5.013  0.00  0.00    +0.006 C 
ATOM     21  C   UNL     1     -30.648  29.894   3.852  0.00  0.00    +0.006 C 
ENDBRANCH  14  18
ENDBRANCH   4   7
BRANCH   2  22
ATOM     22  C   UNL     1     -36.792  23.748   1.402  0.00  0.00    +0.093 C 
ATOM     23  C   UNL     1     -35.666  23.476   2.416  0.00  0.00    +0.088 C 
ATOM     24  C   UNL     1     -35.318  21.151   1.338  0.00  0.00    -0.060 C 
ATOM     25  C   UNL     1     -36.597  22.983   0.089  0.00  0.00    +0.019 C 
ATOM     26  C   UNL     1     -35.474  21.967   2.634  0.00  0.00    -0.000 C 
ATOM     27  C   UNL     1     -36.433  21.484   0.339  0.00  0.00    -0.020 C 
BRANCH  23  29
ATOM     28  O   UNL     1     -34.483  25.847   3.599  0.00  0.00    -0.275 OA
ATOM     29  N   UNL     1     -34.424  24.113   2.048  0.00  0.00    -0.304 N 
ATOM     30  C   UNL     1     -33.940  25.249   2.675  0.00  0.00    +0.223 C 
ATOM     31  C   UNL     1     -32.615  25.690   2.112  0.00  0.00    +0.095 C 
ATOM     32  H   UNL     1     -33.895  23.721   1.315  0.00  0.00    +0.149 HD
ENDBRANCH  23  29
BRANCH  24  33
ATOM     33  N   UNL     1     -34.004  21.353   0.724  0.00  0.00    +0.388 N 
ATOM     34  H   UNL     1     -33.394  21.830   1.388  0.00  0.00    -0.084 HD
ATOM     35  H   UNL     1     -34.120  21.918  -0.118  0.00  0.00    -0.084 HD
BRANCH  33  36
ATOM     36  C   UNL     1     -33.407  20.080   0.354  0.00  0.00    -0.046 C 
ATOM     37  C   UNL     1     -34.094  19.542  -0.906  0.00  0.00    -0.022 C 
ATOM     38  C   UNL     1     -33.592  19.098   1.515  0.00  0.00    -0.022 C 
ATOM     39  C   UNL     1     -31.914  20.301   0.086  0.00  0.00    -0.022 C 
ENDBRANCH  33  36
ENDBRANCH  24  33
ENDBRANCH   2  22
TORSDOF 6
ENDMDL
MODEL 3
REMARK VINA RESULT:      -6.4      3.733      9.900
REMARK  Name = 51039119
REMARK  6 active torsions:
REMARK  status: ('A' for Active; 'I' for Inactive)
REMARK    1  A    between atoms: N_2  and  C_22
REMARK    2  A    between atoms: C_4  and  N_7
REMARK    3  A    between atoms: C_14  and  C_18
REMARK    4  A    between atoms: C_23  and  N_29
REMARK    5  A    between atoms: C_24  and  N_33
REMARK    6  A    between atoms: N_33  and  C_36
REMARK                            x       y       z     vdW  Elec       q    Type
REMARK                         _______ _______ _______ _____ _____    ______ ____
ROOT
ATOM      1  O   UNL     1     -32.926  24.854   3.648  0.00  0.00    -0.273 OA
ATOM      2  N   UNL     1     -35.242  25.066   3.294  0.00  0.00    -0.278 N 
ATOM      3  C   UNL     1     -36.315  25.889   3.797  0.00  0.00    +0.096 C 
ATOM      4  C   UNL     1     -34.272  26.384   4.966  0.00  0.00    +0.150 C 
ATOM      5  C   UNL     1     -35.789  26.369   5.139  0.00  0.00    +0.050 C 
ATOM      6  C   UNL     1     -34.020  25.328   3.912  0.00  0.00    +0.244 C 
ENDROOT
BRANCH   4   7
ATOM      7  N   UNL     1     -33.809  27.652   4.458  0.00  0.00    -0.299 N 
ATOM      8  N   UNL     1     -32.328  29.465   4.315  0.00  0.00    -0.148 N 
ATOM      9  N   UNL     1     -31.861  27.758   5.773  0.00  0.00    -0.215 NA
ATOM     10  N   UNL     1     -33.070  30.085   3.380  0.00  0.00    -0.179 NA
ATOM     11  N   UNL     1     -30.363  29.628   5.607  0.00  0.00    -0.231 NA
ATOM     12  C   UNL     1     -32.672  28.241   4.877  0.00  0.00    +0.207 C 
ATOM     13  C   UNL     1     -31.196  30.146   4.672  0.00  0.00    +0.137 C 
ATOM     14  C   UNL     1     -32.375  31.202   3.138  0.00  0.00    +0.061 C 
ATOM     15  C   UNL     1     -31.201  31.293   3.912  0.00  0.00    +0.106 C 
ATOM     16  C   UNL     1     -30.729  28.481   6.103  0.00  0.00    +0.254 C 
ATOM     17  H   UNL     1     -34.348  28.108   3.772  0.00  0.00    +0.150 HD
BRANCH  14  18
ATOM     18  C   UNL     1     -32.872  32.170   2.146  0.00  0.00    +0.034 C 
ATOM     19  C   UNL     1     -34.435  32.309   2.039  0.00  0.00    +0.006 C 
ATOM     20  C   UNL     1     -32.363  33.623   2.441  0.00  0.00    +0.006 C 
ATOM     21  C   UNL     1     -32.404  31.811   0.693  0.00  0.00    +0.006 C 
ENDBRANCH  14  18
ENDBRANCH   4   7
BRANCH   2  22
ATOM     22  C   UNL     1     -35.430  24.192   2.159  0.00  0.00    +0.093 C 
ATOM     23  C   UNL     1     -36.030  22.839   2.578  0.00  0.00    +0.088 C 
ATOM     24  C   UNL     1     -34.911  21.753   0.515  0.00  0.00    -0.060 C 
ATOM     25  C   UNL     1     -34.129  24.037   1.366  0.00  0.00    +0.019 C 
ATOM     26  C   UNL     1     -36.183  21.904   1.368  0.00  0.00    -0.000 C 
ATOM     27  C   UNL     1     -34.322  23.123   0.156  0.00  0.00    -0.020 C 
BRANCH  23  29
ATOM     28  O   UNL     1     -36.537  22.981   5.433  0.00  0.00    -0.275 OA
ATOM     29  N   UNL     1     -35.278  22.204   3.636  0.00  0.00    -0.304 N 
ATOM     30  C   UNL     1     -35.600  22.333   4.977  0.00  0.00    +0.223 C 
ATOM     31  C   UNL     1     -34.669  21.550   5.864  0.00  0.00    +0.095 C 
ATOM     32  H   UNL     1     -34.499  21.654   3.392  0.00  0.00    +0.149 HD
ENDBRANCH  23  29
BRANCH  24  33
ATOM     33  N   UNL     1     -33.906  20.923   1.182  0.00  0.00    +0.388 N 
ATOM     34  H   UNL     1     -34.337  20.447   1.974  0.00  0.00    -0.084 HD
ATOM     35  H   UNL     1     -33.145  21.524   1.502  0.00  0.00    -0.084 HD
BRANCH  33  36
ATOM     36  C   UNL     1     -33.365  19.932   0.265  0.00  0.00    -0.046 C 
ATOM     37  C   UNL     1     -34.333  19.742  -0.908  0.00  0.00    -0.022 C 
ATOM     38  C   UNL     1     -33.190  18.611   1.023  0.00  0.00    -0.022 C 
ATOM     39  C   UNL     1     -32.009  20.428  -0.246  0.00  0.00    -0.022 C 
ENDBRANCH  33  36
ENDBRANCH  24  33
ENDBRANCH   2  22
TORSDOF 6
ENDMDL
MODEL 4
REMARK VINA RESULT:      -6.4      3.433      7.184
REMARK  Name = 51039119
REMARK  6 active torsions:
REMARK  status: ('A' for Active; 'I' for Inactive)
REMARK    1  A    between atoms: N_2  and  C_22
REMARK    2  A    between atoms: C_4  and  N_7
REMARK    3  A    between atoms: C_14  and  C_18
REMARK    4  A    between atoms: C_23  and  N_29
REMARK    5  A    between atoms: C_24  and  N_33
REMARK    6  A    between atoms: N_33  and  C_36
REMARK                            x       y       z     vdW  Elec       q    Type
REMARK                         _______ _______ _______ _____ _____    ______ ____
ROOT
ATOM      1  O   UNL     1     -33.823  24.897   2.597  0.00  0.00    -0.273 OA
ATOM      2  N   UNL     1     -35.764  25.260   3.876  0.00  0.00    -0.278 N 
ATOM      3  C   UNL     1     -36.105  25.929   5.109  0.00  0.00    +0.096 C 
ATOM      4  C   UNL     1     -33.728  26.012   4.751  0.00  0.00    +0.150 C 
ATOM      5  C   UNL     1     -34.783  25.985   5.855  0.00  0.00    +0.050 C 
ATOM      6  C   UNL     1     -34.399  25.301   3.596  0.00  0.00    +0.244 C 
ENDROOT
BRANCH   4   7
ATOM      7  N   UNL     1     -33.425  27.361   4.339  0.00  0.00    -0.299 N 
ATOM      8  N   UNL     1     -32.272  29.401   4.443  0.00  0.00    -0.148 N 
ATOM      9  N   UNL     1     -31.720  27.732   5.917  0.00  0.00    -0.215 NA
ATOM     10  N   UNL     1     -32.976  29.929   3.426  0.00  0.00    -0.179 NA
ATOM     11  N   UNL     1     -30.557  29.832   6.001  0.00  0.00    -0.231 NA
ATOM     12  C   UNL     1     -32.473  28.113   4.926  0.00  0.00    +0.207 C 
ATOM     13  C   UNL     1     -31.332  30.245   4.970  0.00  0.00    +0.137 C 
ATOM     14  C   UNL     1     -32.457  31.155   3.308  0.00  0.00    +0.061 C 
ATOM     15  C   UNL     1     -31.432  31.407   4.241  0.00  0.00    +0.106 C 
ATOM     16  C   UNL     1     -30.784  28.619   6.418  0.00  0.00    +0.254 C 
ATOM     17  H   UNL     1     -33.938  27.751   3.594  0.00  0.00    +0.150 HD
BRANCH  14  18
ATOM     18  C   UNL     1     -32.975  32.070   2.276  0.00  0.00    +0.034 C 
ATOM     19  C   UNL     1     -34.536  32.254   2.236  0.00  0.00    +0.006 C 
ATOM     20  C   UNL     1     -32.407  33.521   2.444  0.00  0.00    +0.006 C 
ATOM     21  C   UNL     1     -32.593  31.597   0.831  0.00  0.00    +0.006 C 
ENDBRANCH  14  18
ENDBRANCH   4   7
BRANCH   2  22
ATOM     22  C   UNL     1     -36.783  24.759   2.984  0.00  0.00    +0.093 C 
ATOM     23  C   UNL     1     -36.752  25.481   1.626  0.00  0.00    +0.088 C 
ATOM     24  C   UNL     1     -39.269  24.960   1.341  0.00  0.00    -0.060 C 
ATOM     25  C   UNL     1     -38.164  24.810   3.645  0.00  0.00    +0.019 C 
ATOM     26  C   UNL     1     -37.869  24.968   0.703  0.00  0.00    -0.000 C 
ATOM     27  C   UNL     1     -39.247  24.270   2.711  0.00  0.00    -0.020 C 
BRANCH  23  29
ATOM     28  O   UNL     1     -34.869  27.423   0.573  0.00  0.00    -0.275 OA
ATOM     29  N   UNL     1     -36.806  26.917   1.761  0.00  0.00    -0.304 N 
ATOM     30  C   UNL     1     -35.854  27.766   1.220  0.00  0.00    +0.223 C 
ATOM     31  C   UNL     1     -36.163  29.214   1.489  0.00  0.00    +0.095 C 
ATOM     32  H   UNL     1     -37.555  27.313   2.262  0.00  0.00    +0.149 HD
ENDBRANCH  23  29
BRANCH  24  33
ATOM     33  N   UNL     1     -39.820  26.311   1.458  0.00  0.00    +0.388 N 
ATOM     34  H   UNL     1     -39.234  26.959   0.932  0.00  0.00    -0.084 HD
ATOM     35  H   UNL     1     -39.838  26.573   2.444  0.00  0.00    -0.084 HD
BRANCH  33  36
ATOM     36  C   UNL     1     -41.177  26.363   0.936  0.00  0.00    -0.046 C 
ATOM     37  C   UNL     1     -42.173  26.324   2.100  0.00  0.00    -0.022 C 
ATOM     38  C   UNL     1     -41.391  25.154   0.018  0.00  0.00    -0.022 C 
ATOM     39  C   UNL     1     -41.345  27.662   0.142  0.00  0.00    -0.022 C 
ENDBRANCH  33  36
ENDBRANCH  24  33
ENDBRANCH   2  22
TORSDOF 6
ENDMDL
MODEL 5
REMARK VINA RESULT:      -6.3      5.280      8.367
REMARK  Name = 51039119
REMARK  6 active torsions:
REMARK  status: ('A' for Active; 'I' for Inactive)
REMARK    1  A    between atoms: N_2  and  C_22
REMARK    2  A    between atoms: C_4  and  N_7
REMARK    3  A    between atoms: C_14  and  C_18
REMARK    4  A    between atoms: C_23  and  N_29
REMARK    5  A    between atoms: C_24  and  N_33
REMARK    6  A    between atoms: N_33  and  C_36
REMARK                            x       y       z     vdW  Elec       q    Type
REMARK                         _______ _______ _______ _____ _____    ______ ____
ROOT
ATOM      1  O   UNL     1     -36.897  25.426   2.897  0.00  0.00    -0.273 OA
ATOM      2  N   UNL     1     -35.082  25.502   4.392  0.00  0.00    -0.278 N 
ATOM      3  C   UNL     1     -34.442  24.602   5.320  0.00  0.00    +0.096 C 
ATOM      4  C   UNL     1     -36.388  23.561   4.364  0.00  0.00    +0.150 C 
ATOM      5  C   UNL     1     -35.527  23.583   5.625  0.00  0.00    +0.050 C 
ATOM      6  C   UNL     1     -36.203  24.944   3.779  0.00  0.00    +0.244 C 
ENDROOT
BRANCH   4   7
ATOM      7  N   UNL     1     -35.904  22.595   3.409  0.00  0.00    -0.299 N 
ATOM      8  N   UNL     1     -36.127  21.054   1.654  0.00  0.00    -0.148 N 
ATOM      9  N   UNL     1     -37.993  22.145   2.423  0.00  0.00    -0.215 NA
ATOM     10  N   UNL     1     -34.813  20.768   1.648  0.00  0.00    -0.179 NA
ATOM     11  N   UNL     1     -38.190  20.560   0.628  0.00  0.00    -0.231 NA
ATOM     12  C   UNL     1     -36.707  21.967   2.527  0.00  0.00    +0.207 C 
ATOM     13  C   UNL     1     -36.854  20.363   0.723  0.00  0.00    +0.137 C 
ATOM     14  C   UNL     1     -34.708  19.861   0.672  0.00  0.00    +0.061 C 
ATOM     15  C   UNL     1     -35.945  19.571   0.061  0.00  0.00    +0.106 C 
ATOM     16  C   UNL     1     -38.686  21.424   1.467  0.00  0.00    +0.254 C 
ATOM     17  H   UNL     1     -34.943  22.384   3.400  0.00  0.00    +0.150 HD
BRANCH  14  18
ATOM     18  C   UNL     1     -33.391  19.287   0.346  0.00  0.00    +0.034 C 
ATOM     19  C   UNL     1     -32.236  20.319   0.077  0.00  0.00    +0.006 C 
ATOM     20  C   UNL     1     -32.850  18.375   1.500  0.00  0.00    +0.006 C 
ATOM     21  C   UNL     1     -33.443  18.402  -0.947  0.00  0.00    +0.006 C 
ENDBRANCH  14  18
ENDBRANCH   4   7
BRANCH   2  22
ATOM     22  C   UNL     1     -34.493  26.776   4.048  0.00  0.00    +0.093 C 
ATOM     23  C   UNL     1     -34.315  26.927   2.528  0.00  0.00    +0.088 C 
ATOM     24  C   UNL     1     -32.354  28.555   2.963  0.00  0.00    -0.060 C 
ATOM     25  C   UNL     1     -33.187  27.000   4.817  0.00  0.00    +0.019 C 
ATOM     26  C   UNL     1     -33.648  28.267   2.181  0.00  0.00    -0.000 C 
ATOM     27  C   UNL     1     -32.563  28.351   4.469  0.00  0.00    -0.020 C 
BRANCH  23  29
ATOM     28  O   UNL     1     -34.986  25.475   0.105  0.00  0.00    -0.275 OA
ATOM     29  N   UNL     1     -33.598  25.819   1.942  0.00  0.00    -0.304 N 
ATOM     30  C   UNL     1     -33.999  25.187   0.777  0.00  0.00    +0.223 C 
ATOM     31  C   UNL     1     -33.060  24.082   0.375  0.00  0.00    +0.095 C 
ATOM     32  H   UNL     1     -32.783  25.497   2.392  0.00  0.00    +0.149 HD
ENDBRANCH  23  29
BRANCH  24  33
ATOM     33  N   UNL     1     -31.237  27.737   2.486  0.00  0.00    +0.388 N 
ATOM     34  H   UNL     1     -31.520  27.246   1.638  0.00  0.00    -0.084 HD
ATOM     35  H   UNL     1     -30.987  27.068   3.215  0.00  0.00    -0.084 HD
BRANCH  33  36
ATOM     36  C   UNL     1     -30.078  28.565   2.194  0.00  0.00    -0.046 C 
ATOM     37  C   UNL     1     -29.006  28.336   3.265  0.00  0.00    -0.022 C 
ATOM     38  C   UNL     1     -30.516  30.034   2.193  0.00  0.00    -0.022 C 
ATOM     39  C   UNL     1     -29.536  28.178   0.814  0.00  0.00    -0.022 C 
ENDBRANCH  33  36
ENDBRANCH  24  33
ENDBRANCH   2  22
TORSDOF 6
ENDMDL
MODEL 6
REMARK VINA RESULT:      -6.3      2.965      8.817
REMARK  Name = 51039119
REMARK  6 active torsions:
REMARK  status: ('A' for Active; 'I' for Inactive)
REMARK    1  A    between atoms: N_2  and  C_22
REMARK    2  A    between atoms: C_4  and  N_7
REMARK    3  A    between atoms: C_14  and  C_18
REMARK    4  A    between atoms: C_23  and  N_29
REMARK    5  A    between atoms: C_24  and  N_33
REMARK    6  A    between atoms: N_33  and  C_36
REMARK                            x       y       z     vdW  Elec       q    Type
REMARK                         _______ _______ _______ _____ _____    ______ ____
ROOT
ATOM      1  O   UNL     1     -32.704  25.340   3.238  0.00  0.00    -0.273 OA
ATOM      2  N   UNL     1     -34.852  24.557   3.791  0.00  0.00    -0.278 N 
ATOM      3  C   UNL     1     -35.968  25.012   4.585  0.00  0.00    +0.096 C 
ATOM      4  C   UNL     1     -34.117  26.530   4.812  0.00  0.00    +0.150 C 
ATOM      5  C   UNL     1     -35.330  25.985   5.561  0.00  0.00    +0.050 C 
ATOM      6  C   UNL     1     -33.754  25.414   3.857  0.00  0.00    +0.244 C 
ENDROOT
BRANCH   4   7
ATOM      7  N   UNL     1     -34.452  27.700   4.037  0.00  0.00    -0.299 N 
ATOM      8  N   UNL     1     -34.100  29.865   3.208  0.00  0.00    -0.148 N 
ATOM      9  N   UNL     1     -32.542  28.945   4.617  0.00  0.00    -0.215 NA
ATOM     10  N   UNL     1     -35.247  29.855   2.504  0.00  0.00    -0.179 NA
ATOM     11  N   UNL     1     -32.209  31.161   3.753  0.00  0.00    -0.231 NA
ATOM     12  C   UNL     1     -33.672  28.798   3.988  0.00  0.00    +0.207 C 
ATOM     13  C   UNL     1     -33.383  31.025   3.092  0.00  0.00    +0.137 C 
ATOM     14  C   UNL     1     -35.251  31.058   1.921  0.00  0.00    +0.061 C 
ATOM     15  C   UNL     1     -34.117  31.828   2.250  0.00  0.00    +0.106 C 
ATOM     16  C   UNL     1     -31.852  30.135   4.471  0.00  0.00    +0.254 C 
ATOM     17  H   UNL     1     -35.289  27.695   3.520  0.00  0.00    +0.150 HD
BRANCH  14  18
ATOM     18  C   UNL     1     -36.370  31.441   1.043  0.00  0.00    +0.034 C 
ATOM     19  C   UNL     1     -37.170  30.255   0.389  0.00  0.00    +0.006 C 
ATOM     20  C   UNL     1     -37.453  32.277   1.808  0.00  0.00    +0.006 C 
ATOM     21  C   UNL     1     -35.892  32.314  -0.167  0.00  0.00    +0.006 C 
ENDBRANCH  14  18
ENDBRANCH   4   7
BRANCH   2  22
ATOM     22  C   UNL     1     -34.966  23.415   2.914  0.00  0.00    +0.093 C 
ATOM     23  C   UNL     1     -35.284  23.839   1.470  0.00  0.00    +0.088 C 
ATOM     24  C   UNL     1     -36.417  21.546   1.092  0.00  0.00    -0.060 C 
ATOM     25  C   UNL     1     -35.974  22.401   3.464  0.00  0.00    +0.019 C 
ATOM     26  C   UNL     1     -35.446  22.613   0.558  0.00  0.00    -0.000 C 
ATOM     27  C   UNL     1     -36.093  21.184   2.547  0.00  0.00    -0.020 C 
BRANCH  23  29
ATOM     28  O   UNL     1     -35.303  26.713   1.062  0.00  0.00    -0.275 OA
ATOM     29  N   UNL     1     -36.436  24.706   1.388  0.00  0.00    -0.304 N 
ATOM     30  C   UNL     1     -36.343  26.074   1.191  0.00  0.00    +0.223 C 
ATOM     31  C   UNL     1     -37.694  26.733   1.122  0.00  0.00    +0.095 C 
ATOM     32  H   UNL     1     -37.331  24.306   1.478  0.00  0.00    +0.149 HD
ENDBRANCH  23  29
BRANCH  24  33
ATOM     33  N   UNL     1     -37.813  21.973   0.971  0.00  0.00    +0.388 N 
ATOM     34  H   UNL     1     -37.841  22.971   0.762  0.00  0.00    -0.084 HD
ATOM     35  H   UNL     1     -38.291  21.783   1.852  0.00  0.00    -0.084 HD
BRANCH  33  36
ATOM     36  C   UNL     1     -38.484  21.243  -0.093  0.00  0.00    -0.046 C 
ATOM     37  C   UNL     1     -37.872  19.842  -0.215  0.00  0.00    -0.022 C 
ATOM     38  C   UNL     1     -38.301  22.013  -1.405  0.00  0.00    -0.022 C 
ATOM     39  C   UNL     1     -39.974  21.138   0.251  0.00  0.00    -0.022 C 
ENDBRANCH  33  36
ENDBRANCH  24  33
ENDBRANCH   2  22
TORSDOF 6
ENDMDL
MODEL 7
REMARK VINA RESULT:      -6.1      3.811      8.611
REMARK  Name = 51039119
REMARK  6 active torsions:
REMARK  status: ('A' for Active; 'I' for Inactive)
REMARK    1  A    between atoms: N_2  and  C_22
REMARK    2  A    between atoms: C_4  and  N_7
REMARK    3  A    between atoms: C_14  and  C_18
REMARK    4  A    between atoms: C_23  and  N_29
REMARK    5  A    between atoms: C_24  and  N_33
REMARK    6  A    between atoms: N_33  and  C_36
REMARK                            x       y       z     vdW  Elec       q    Type
REMARK                         _______ _______ _______ _____ _____    ______ ____
ROOT
ATOM      1  O   UNL     1     -34.807  25.635   1.992  0.00  0.00    -0.273 OA
ATOM      2  N   UNL     1     -36.119  25.901   3.927  0.00  0.00    -0.278 N 
ATOM      3  C   UNL     1     -35.901  26.263   5.307  0.00  0.00    +0.096 C 
ATOM      4  C   UNL     1     -33.800  26.126   4.145  0.00  0.00    +0.150 C 
ATOM      5  C   UNL     1     -34.431  25.949   5.525  0.00  0.00    +0.050 C 
ATOM      6  C   UNL     1     -34.937  25.836   3.191  0.00  0.00    +0.244 C 
ENDROOT
BRANCH   4   7
ATOM      7  N   UNL     1     -33.364  27.484   3.932  0.00  0.00    -0.299 N 
ATOM      8  N   UNL     1     -32.120  29.412   4.419  0.00  0.00    -0.148 N 
ATOM      9  N   UNL     1     -31.882  27.565   5.757  0.00  0.00    -0.215 NA
ATOM     10  N   UNL     1     -32.640  30.092   3.381  0.00  0.00    -0.179 NA
ATOM     11  N   UNL     1     -30.622  29.554   6.233  0.00  0.00    -0.231 NA
ATOM     12  C   UNL     1     -32.463  28.100   4.722  0.00  0.00    +0.207 C 
ATOM     13  C   UNL     1     -31.217  30.126   5.159  0.00  0.00    +0.137 C 
ATOM     14  C   UNL     1     -32.039  31.283   3.472  0.00  0.00    +0.061 C 
ATOM     15  C   UNL     1     -31.144  31.361   4.558  0.00  0.00    +0.106 C 
ATOM     16  C   UNL     1     -30.976  28.325   6.476  0.00  0.00    +0.254 C 
ATOM     17  H   UNL     1     -33.741  27.984   3.173  0.00  0.00    +0.150 HD
BRANCH  14  18
ATOM     18  C   UNL     1     -32.350  32.335   2.489  0.00  0.00    +0.034 C 
ATOM     19  C   UNL     1     -33.875  32.661   2.286  0.00  0.00    +0.006 C 
ATOM     20  C   UNL     1     -31.697  33.706   2.874  0.00  0.00    +0.006 C 
ATOM     21  C   UNL     1     -31.827  31.969   1.057  0.00  0.00    +0.006 C 
ENDBRANCH  14  18
ENDBRANCH   4   7
BRANCH   2  22
ATOM     22  C   UNL     1     -37.450  25.788   3.378  0.00  0.00    +0.093 C 
ATOM     23  C   UNL     1     -37.997  24.356   3.509  0.00  0.00    +0.088 C 
ATOM     24  C   UNL     1     -39.497  24.787   1.447  0.00  0.00    -0.060 C 
ATOM     25  C   UNL     1     -37.493  26.303   1.936  0.00  0.00    +0.019 C 
ATOM     26  C   UNL     1     -39.395  24.240   2.882  0.00  0.00    -0.000 C 
ATOM     27  C   UNL     1     -38.901  26.197   1.351  0.00  0.00    -0.020 C 
BRANCH  23  29
ATOM     28  O   UNL     1     -36.206  22.604   4.975  0.00  0.00    -0.275 OA
ATOM     29  N   UNL     1     -37.097  23.367   2.964  0.00  0.00    -0.304 N 
ATOM     30  C   UNL     1     -36.276  22.575   3.749  0.00  0.00    +0.223 C 
ATOM     31  C   UNL     1     -35.458  21.613   2.929  0.00  0.00    +0.095 C 
ATOM     32  H   UNL     1     -37.065  23.250   1.987  0.00  0.00    +0.149 HD
ENDBRANCH  23  29
BRANCH  24  33
ATOM     33  N   UNL     1     -38.855  23.894   0.479  0.00  0.00    +0.388 N 
ATOM     34  H   UNL     1     -38.204  23.281   0.970  0.00  0.00    -0.084 HD
ATOM     35  H   UNL     1     -38.358  24.460  -0.208  0.00  0.00    -0.084 HD
BRANCH  33  36
ATOM     36  C   UNL     1     -39.847  23.084  -0.211  0.00  0.00    -0.046 C 
ATOM     37  C   UNL     1     -39.442  22.928  -1.681  0.00  0.00    -0.022 C 
ATOM     38  C   UNL     1     -41.206  23.785  -0.109  0.00  0.00    -0.022 C 
ATOM     39  C   UNL     1     -39.912  21.711   0.466  0.00  0.00    -0.022 C 
ENDBRANCH  33  36
ENDBRANCH  24  33
ENDBRANCH   2  22
TORSDOF 6
ENDMDL
MODEL 8
REMARK VINA RESULT:      -6.1      3.504      8.545
REMARK  Name = 51039119
REMARK  6 active torsions:
REMARK  status: ('A' for Active; 'I' for Inactive)
REMARK    1  A    between atoms: N_2  and  C_22
REMARK    2  A    between atoms: C_4  and  N_7
REMARK    3  A    between atoms: C_14  and  C_18
REMARK    4  A    between atoms: C_23  and  N_29
REMARK    5  A    between atoms: C_24  and  N_33
REMARK    6  A    between atoms: N_33  and  C_36
REMARK                            x       y       z     vdW  Elec       q    Type
REMARK                         _______ _______ _______ _____ _____    ______ ____
ROOT
ATOM      1  O   UNL     1     -33.187  24.337   4.653  0.00  0.00    -0.273 OA
ATOM      2  N   UNL     1     -35.490  24.389   4.176  0.00  0.00    -0.278 N 
ATOM      3  C   UNL     1     -36.607  25.255   4.464  0.00  0.00    +0.096 C 
ATOM      4  C   UNL     1     -34.634  26.046   5.588  0.00  0.00    +0.150 C 
ATOM      5  C   UNL     1     -36.156  26.009   5.703  0.00  0.00    +0.050 C 
ATOM      6  C   UNL     1     -34.305  24.813   4.776  0.00  0.00    +0.244 C 
ENDROOT
BRANCH   4   7
ATOM      7  N   UNL     1     -34.185  27.205   4.856  0.00  0.00    -0.299 N 
ATOM      8  N   UNL     1     -32.691  28.937   4.337  0.00  0.00    -0.148 N 
ATOM      9  N   UNL     1     -32.160  27.475   6.023  0.00  0.00    -0.215 NA
ATOM     10  N   UNL     1     -33.480  29.417   3.359  0.00  0.00    -0.179 NA
ATOM     11  N   UNL     1     -30.650  29.259   5.470  0.00  0.00    -0.231 NA
ATOM     12  C   UNL     1     -33.017  27.828   5.108  0.00  0.00    +0.207 C 
ATOM     13  C   UNL     1     -31.530  29.641   4.514  0.00  0.00    +0.137 C 
ATOM     14  C   UNL     1     -32.786  30.463   2.901  0.00  0.00    +0.061 C 
ATOM     15  C   UNL     1     -31.566  30.650   3.581  0.00  0.00    +0.106 C 
ATOM     16  C   UNL     1     -31.000  28.216   6.166  0.00  0.00    +0.254 C 
ATOM     17  H   UNL     1     -34.759  27.558   4.138  0.00  0.00    +0.150 HD
BRANCH  14  18
ATOM     18  C   UNL     1     -33.329  31.272   1.795  0.00  0.00    +0.034 C 
ATOM     19  C   UNL     1     -32.462  32.507   1.352  0.00  0.00    +0.006 C 
ATOM     20  C   UNL     1     -33.514  30.426   0.489  0.00  0.00    +0.006 C 
ATOM     21  C   UNL     1     -34.732  31.877   2.148  0.00  0.00    +0.006 C 
ENDBRANCH  14  18
ENDBRANCH   4   7
BRANCH   2  22
ATOM     22  C   UNL     1     -35.602  23.302   3.231  0.00  0.00    +0.093 C 
ATOM     23  C   UNL     1     -34.939  23.649   1.887  0.00  0.00    +0.088 C 
ATOM     24  C   UNL     1     -36.550  22.000   0.716  0.00  0.00    -0.060 C 
ATOM     25  C   UNL     1     -37.062  22.866   3.070  0.00  0.00    +0.019 C 
ATOM     26  C   UNL     1     -35.104  22.502   0.877  0.00  0.00    -0.000 C 
ATOM     27  C   UNL     1     -37.189  21.708   2.079  0.00  0.00    -0.020 C 
BRANCH  23  29
ATOM     28  O   UNL     1     -33.529  26.185   1.794  0.00  0.00    -0.275 OA
ATOM     29  N   UNL     1     -35.415  24.898   1.340  0.00  0.00    -0.304 N 
ATOM     30  C   UNL     1     -34.664  26.062   1.343  0.00  0.00    +0.223 C 
ATOM     31  C   UNL     1     -35.388  27.209   0.691  0.00  0.00    +0.095 C 
ATOM     32  H   UNL     1     -36.317  24.924   0.946  0.00  0.00    +0.149 HD
ENDBRANCH  23  29
BRANCH  24  33
ATOM     33  N   UNL     1     -37.372  22.947  -0.041  0.00  0.00    +0.388 N 
ATOM     34  H   UNL     1     -36.779  23.699  -0.392  0.00  0.00    -0.084 HD
ATOM     35  H   UNL     1     -38.091  23.324   0.577  0.00  0.00    -0.084 HD
BRANCH  33  36
ATOM     36  C   UNL     1     -38.019  22.286  -1.163  0.00  0.00    -0.046 C 
ATOM     37  C   UNL     1     -37.966  23.200  -2.393  0.00  0.00    -0.022 C 
ATOM     38  C   UNL     1     -39.476  21.997  -0.785  0.00  0.00    -0.022 C 
ATOM     39  C   UNL     1     -37.280  20.975  -1.450  0.00  0.00    -0.022 C 
ENDBRANCH  33  36
ENDBRANCH  24  33
ENDBRANCH   2  22
TORSDOF 6
ENDMDL
MODEL 9
REMARK VINA RESULT:      -6.1      4.466      9.537
REMARK  Name = 51039119
REMARK  6 active torsions:
REMARK  status: ('A' for Active; 'I' for Inactive)
REMARK    1  A    between atoms: N_2  and  C_22
REMARK    2  A    between atoms: C_4  and  N_7
REMARK    3  A    between atoms: C_14  and  C_18
REMARK    4  A    between atoms: C_23  and  N_29
REMARK    5  A    between atoms: C_24  and  N_33
REMARK    6  A    between atoms: N_33  and  C_36
REMARK                            x       y       z     vdW  Elec       q    Type
REMARK                         _______ _______ _______ _____ _____    ______ ____
ROOT
ATOM      1  O   UNL     1     -34.615  23.226   5.057  0.00  0.00    -0.273 OA
ATOM      2  N   UNL     1     -36.277  23.283   3.393  0.00  0.00    -0.278 N 
ATOM      3  C   UNL     1     -37.226  24.243   2.883  0.00  0.00    +0.096 C 
ATOM      4  C   UNL     1     -36.048  25.162   4.768  0.00  0.00    +0.150 C 
ATOM      5  C   UNL     1     -37.385  25.223   4.032  0.00  0.00    +0.050 C 
ATOM      6  C   UNL     1     -35.539  23.769   4.471  0.00  0.00    +0.244 C 
ENDROOT
BRANCH   4   7
ATOM      7  N   UNL     1     -35.105  26.114   4.234  0.00  0.00    -0.299 N 
ATOM      8  N   UNL     1     -33.260  27.558   4.340  0.00  0.00    -0.148 N 
ATOM      9  N   UNL     1     -33.867  26.386   6.216  0.00  0.00    -0.215 NA
ATOM     10  N   UNL     1     -33.387  27.927   3.053  0.00  0.00    -0.179 NA
ATOM     11  N   UNL     1     -31.983  27.873   6.296  0.00  0.00    -0.231 NA
ATOM     12  C   UNL     1     -34.107  26.649   4.963  0.00  0.00    +0.207 C 
ATOM     13  C   UNL     1     -32.218  28.160   4.993  0.00  0.00    +0.137 C 
ATOM     14  C   UNL     1     -32.384  28.795   2.889  0.00  0.00    +0.061 C 
ATOM     15  C   UNL     1     -31.623  28.977   4.061  0.00  0.00    +0.106 C 
ATOM     16  C   UNL     1     -32.803  27.018   6.835  0.00  0.00    +0.254 C 
ATOM     17  H   UNL     1     -35.194  26.385   3.291  0.00  0.00    +0.150 HD
BRANCH  14  18
ATOM     18  C   UNL     1     -32.180  29.436   1.578  0.00  0.00    +0.034 C 
ATOM     19  C   UNL     1     -30.842  30.244   1.406  0.00  0.00    +0.006 C 
ATOM     20  C   UNL     1     -32.167  28.390   0.411  0.00  0.00    +0.006 C 
ATOM     21  C   UNL     1     -33.313  30.469   1.251  0.00  0.00    +0.006 C 
ENDBRANCH  14  18
ENDBRANCH   4   7
BRANCH   2  22
ATOM     22  C   UNL     1     -36.042  22.025   2.723  0.00  0.00    +0.093 C 
ATOM     23  C   UNL     1     -34.837  22.106   1.770  0.00  0.00    +0.088 C 
ATOM     24  C   UNL     1     -35.889  20.219   0.349  0.00  0.00    -0.060 C 
ATOM     25  C   UNL     1     -37.313  21.533   2.022  0.00  0.00    +0.019 C 
ATOM     26  C   UNL     1     -34.627  20.775   1.032  0.00  0.00    -0.000 C 
ATOM     27  C   UNL     1     -37.077  20.196   1.319  0.00  0.00    -0.020 C 
BRANCH  23  29
ATOM     28  O   UNL     1     -33.475  24.666   1.915  0.00  0.00    -0.275 OA
ATOM     29  N   UNL     1     -34.939  23.208   0.842  0.00  0.00    -0.304 N 
ATOM     30  C   UNL     1     -34.246  24.396   0.998  0.00  0.00    +0.223 C 
ATOM     31  C   UNL     1     -34.515  25.364  -0.123  0.00  0.00    +0.095 C 
ATOM     32  H   UNL     1     -35.530  23.109   0.060  0.00  0.00    +0.149 HD
ENDBRANCH  23  29
BRANCH  24  33
ATOM     33  N   UNL     1     -36.231  20.975  -0.858  0.00  0.00    +0.388 N 
ATOM     34  H   UNL     1     -35.497  21.659  -1.044  0.00  0.00    -0.084 HD
ATOM     35  H   UNL     1     -37.123  21.446  -0.708  0.00  0.00    -0.084 HD
BRANCH  33  36
ATOM     36  C   UNL     1     -36.357  20.088  -2.004  0.00  0.00    -0.046 C 
ATOM     37  C   UNL     1     -35.679  20.728  -3.221  0.00  0.00    -0.022 C 
ATOM     38  C   UNL     1     -37.846  19.865  -2.287  0.00  0.00    -0.022 C 
ATOM     39  C   UNL     1     -35.682  18.754  -1.665  0.00  0.00    -0.022 C 
ENDBRANCH  33  36
ENDBRANCH  24  33
ENDBRANCH   2  22
TORSDOF 6
ENDMDL
