MODEL 1
REMARK VINA RESULT:      -5.9      0.000      0.000
REMARK  Name = 5362
REMARK  12 active torsions:
REMARK  status: ('A' for Active; 'I' for Inactive)
REMARK    1  A    between atoms: N_3  and  C_8
REMARK    2  A    between atoms: N_4  and  C_14
REMARK    3  A    between atoms: C_5  and  C_20
REMARK    4  A    between atoms: C_5  and  C_24
REMARK    5  A    between atoms: C_20  and  C_21
REMARK    6  A    between atoms: C_21  and  C_22
REMARK    7  A    between atoms: C_24  and  O_25
REMARK    8  A    between atoms: O_25  and  C_27
REMARK    9  A    between atoms: C_27  and  C_28
REMARK   10  A    between atoms: C_28  and  C_29
REMARK   11  A    between atoms: C_29  and  C_31
REMARK   12  A    between atoms: C_31  and  O_32
REMARK                            x       y       z     vdW  Elec       q    Type
REMARK                         _______ _______ _______ _____ _____    ______ ____
ROOT
ATOM      1  O   UNL     1     -36.280  22.437  -0.555  0.00  0.00    -0.272 OA
ATOM      2  O   UNL     1     -35.347  21.121   3.892  0.00  0.00    -0.272 OA
ATOM      3  N   UNL     1     -35.311  23.522   1.329  0.00  0.00    -0.179 N 
ATOM      4  N   UNL     1     -35.139  23.162   2.687  0.00  0.00    -0.179 N 
ATOM      5  C   UNL     1     -35.995  21.299   1.564  0.00  0.00    +0.181 C 
ATOM      6  C   UNL     1     -35.933  22.484   0.616  0.00  0.00    +0.257 C 
ATOM      7  C   UNL     1     -35.422  21.801   2.878  0.00  0.00    +0.257 C 
ENDROOT
BRANCH   3   8
ATOM      8  C   UNL     1     -34.593  24.571   0.679  0.00  0.00    +0.073 C 
ATOM      9  C   UNL     1     -33.248  24.397   0.352  0.00  0.00    +0.017 C 
ATOM     10  C   UNL     1     -35.237  25.769   0.370  0.00  0.00    +0.017 C 
ATOM     11  C   UNL     1     -32.546  25.422  -0.283  0.00  0.00    +0.001 C 
ATOM     12  C   UNL     1     -34.535  26.794  -0.266  0.00  0.00    +0.001 C 
ATOM     13  C   UNL     1     -33.190  26.620  -0.592  0.00  0.00    +0.000 C 
ENDBRANCH   3   8
BRANCH   4  14
ATOM     14  C   UNL     1     -35.112  24.096   3.766  0.00  0.00    +0.073 C 
ATOM     15  C   UNL     1     -33.913  24.710   4.127  0.00  0.00    +0.017 C 
ATOM     16  C   UNL     1     -36.286  24.397   4.459  0.00  0.00    +0.017 C 
ATOM     17  C   UNL     1     -33.887  25.623   5.181  0.00  0.00    +0.001 C 
ATOM     18  C   UNL     1     -36.260  25.310   5.513  0.00  0.00    +0.001 C 
ATOM     19  C   UNL     1     -35.060  25.923   5.874  0.00  0.00    +0.000 C 
ENDBRANCH   4  14
BRANCH   5  20
ATOM     20  C   UNL     1     -35.134  20.156   1.031  0.00  0.00    +0.021 C 
BRANCH  20  21
ATOM     21  C   UNL     1     -33.700  20.613   0.778  0.00  0.00    +0.001 C 
BRANCH  21  22
ATOM     22  C   UNL     1     -32.789  19.425   0.471  0.00  0.00    +0.000 C 
ATOM     23  C   UNL     1     -32.959  18.312   1.491  0.00  0.00    +0.000 C 
ENDBRANCH  21  22
ENDBRANCH  20  21
ENDBRANCH   5  20
BRANCH   5  24
ATOM     24  C   UNL     1     -37.447  20.869   1.756  0.00  0.00    +0.226 C 
BRANCH  24  25
ATOM     25  O   UNL     1     -38.182  21.974   2.249  0.00  0.00    -0.447 OA
BRANCH  25  27
ATOM     26  O   UNL     1     -40.280  21.040   2.038  0.00  0.00    -0.250 OA
ATOM     27  C   UNL     1     -39.521  21.994   1.943  0.00  0.00    +0.318 C 
BRANCH  27  28
ATOM     28  C   UNL     1     -39.906  23.379   1.468  0.00  0.00    +0.121 C 
BRANCH  28  29
ATOM     29  C   UNL     1     -38.885  24.446   1.845  0.00  0.00    +0.121 C 
BRANCH  29  31
ATOM     30  O   UNL     1     -39.646  26.631   2.542  0.00  0.00    -0.250 OA
ATOM     31  C   UNL     1     -39.472  25.449   2.808  0.00  0.00    +0.314 C 
BRANCH  31  32
ATOM     32  O   UNL     1     -39.810  24.895   3.998  0.00  0.00    -0.480 OA
ATOM     33  H   UNL     1     -40.436  24.197   4.029  0.00  0.00    +0.295 HD
ENDBRANCH  31  32
ENDBRANCH  29  31
ENDBRANCH  28  29
ENDBRANCH  27  28
ENDBRANCH  25  27
ENDBRANCH  24  25
ENDBRANCH   5  24
TORSDOF 12
ENDMDL
MODEL 2
REMARK VINA RESULT:      -5.9      1.922      5.356
REMARK  Name = 5362
REMARK  12 active torsions:
REMARK  status: ('A' for Active; 'I' for Inactive)
REMARK    1  A    between atoms: N_3  and  C_8
REMARK    2  A    between atoms: N_4  and  C_14
REMARK    3  A    between atoms: C_5  and  C_20
REMARK    4  A    between atoms: C_5  and  C_24
REMARK    5  A    between atoms: C_20  and  C_21
REMARK    6  A    between atoms: C_21  and  C_22
REMARK    7  A    between atoms: C_24  and  O_25
REMARK    8  A    between atoms: O_25  and  C_27
REMARK    9  A    between atoms: C_27  and  C_28
REMARK   10  A    between atoms: C_28  and  C_29
REMARK   11  A    between atoms: C_29  and  C_31
REMARK   12  A    between atoms: C_31  and  O_32
REMARK                            x       y       z     vdW  Elec       q    Type
REMARK                         _______ _______ _______ _____ _____    ______ ____
ROOT
ATOM      1  O   UNL     1     -35.147  20.608   3.507  0.00  0.00    -0.272 OA
ATOM      2  O   UNL     1     -36.217  24.225   0.651  0.00  0.00    -0.272 OA
ATOM      3  N   UNL     1     -34.782  21.067   1.200  0.00  0.00    -0.179 N 
ATOM      4  N   UNL     1     -35.203  22.097   0.326  0.00  0.00    -0.179 N 
ATOM      5  C   UNL     1     -35.895  22.673   2.484  0.00  0.00    +0.181 C 
ATOM      6  C   UNL     1     -35.265  21.291   2.499  0.00  0.00    +0.257 C 
ATOM      7  C   UNL     1     -35.780  23.154   1.048  0.00  0.00    +0.257 C 
ENDROOT
BRANCH   3   8
ATOM      8  C   UNL     1     -33.693  20.183   0.932  0.00  0.00    +0.073 C 
ATOM      9  C   UNL     1     -32.565  20.649   0.256  0.00  0.00    +0.017 C 
ATOM     10  C   UNL     1     -33.758  18.853   1.347  0.00  0.00    +0.017 C 
ATOM     11  C   UNL     1     -31.502  19.785  -0.004  0.00  0.00    +0.001 C 
ATOM     12  C   UNL     1     -32.695  17.988   1.086  0.00  0.00    +0.001 C 
ATOM     13  C   UNL     1     -31.567  18.454   0.411  0.00  0.00    +0.000 C 
ENDBRANCH   3   8
BRANCH   4  14
ATOM     14  C   UNL     1     -35.416  21.923  -1.075  0.00  0.00    +0.073 C 
ATOM     15  C   UNL     1     -36.357  20.998  -1.527  0.00  0.00    +0.017 C 
ATOM     16  C   UNL     1     -34.686  22.680  -1.992  0.00  0.00    +0.017 C 
ATOM     17  C   UNL     1     -36.567  20.829  -2.895  0.00  0.00    +0.001 C 
ATOM     18  C   UNL     1     -34.895  22.511  -3.360  0.00  0.00    +0.001 C 
ATOM     19  C   UNL     1     -35.836  21.584  -3.812  0.00  0.00    +0.000 C 
ENDBRANCH   4  14
BRANCH   5  20
ATOM     20  C   UNL     1     -35.120  23.612   3.405  0.00  0.00    +0.021 C 
BRANCH  20  21
ATOM     21  C   UNL     1     -35.920  23.938   4.664  0.00  0.00    +0.001 C 
BRANCH  21  22
ATOM     22  C   UNL     1     -35.145  23.557   5.924  0.00  0.00    +0.000 C 
ATOM     23  C   UNL     1     -35.462  22.138   6.366  0.00  0.00    +0.000 C 
ENDBRANCH  21  22
ENDBRANCH  20  21
ENDBRANCH   5  20
BRANCH   5  24
ATOM     24  C   UNL     1     -37.364  22.573   2.887  0.00  0.00    +0.226 C 
BRANCH  24  25
ATOM     25  O   UNL     1     -38.019  21.700   1.985  0.00  0.00    -0.447 OA
BRANCH  25  27
ATOM     26  O   UNL     1     -40.272  21.205   1.944  0.00  0.00    -0.250 OA
ATOM     27  C   UNL     1     -39.343  21.972   1.735  0.00  0.00    +0.318 C 
BRANCH  27  28
ATOM     28  C   UNL     1     -39.467  23.367   1.160  0.00  0.00    +0.121 C 
BRANCH  28  29
ATOM     29  C   UNL     1     -40.549  24.199   1.838  0.00  0.00    +0.121 C 
BRANCH  29  31
ATOM     30  O   UNL     1     -39.685  26.406   2.308  0.00  0.00    -0.250 OA
ATOM     31  C   UNL     1     -39.947  25.278   2.704  0.00  0.00    +0.314 C 
BRANCH  31  32
ATOM     32  O   UNL     1     -39.747  24.871   3.982  0.00  0.00    -0.480 OA
ATOM     33  H   UNL     1     -40.450  24.909   4.601  0.00  0.00    +0.295 HD
ENDBRANCH  31  32
ENDBRANCH  29  31
ENDBRANCH  28  29
ENDBRANCH  27  28
ENDBRANCH  25  27
ENDBRANCH  24  25
ENDBRANCH   5  24
TORSDOF 12
ENDMDL
MODEL 3
REMARK VINA RESULT:      -5.7      2.715      6.310
REMARK  Name = 5362
REMARK  12 active torsions:
REMARK  status: ('A' for Active; 'I' for Inactive)
REMARK    1  A    between atoms: N_3  and  C_8
REMARK    2  A    between atoms: N_4  and  C_14
REMARK    3  A    between atoms: C_5  and  C_20
REMARK    4  A    between atoms: C_5  and  C_24
REMARK    5  A    between atoms: C_20  and  C_21
REMARK    6  A    between atoms: C_21  and  C_22
REMARK    7  A    between atoms: C_24  and  O_25
REMARK    8  A    between atoms: O_25  and  C_27
REMARK    9  A    between atoms: C_27  and  C_28
REMARK   10  A    between atoms: C_28  and  C_29
REMARK   11  A    between atoms: C_29  and  C_31
REMARK   12  A    between atoms: C_31  and  O_32
REMARK                            x       y       z     vdW  Elec       q    Type
REMARK                         _______ _______ _______ _____ _____    ______ ____
ROOT
ATOM      1  O   UNL     1     -38.635  22.446   2.555  0.00  0.00    -0.272 OA
ATOM      2  O   UNL     1     -36.134  21.883  -1.421  0.00  0.00    -0.272 OA
ATOM      3  N   UNL     1     -36.348  21.985   2.083  0.00  0.00    -0.179 N 
ATOM      4  N   UNL     1     -35.628  21.704   0.897  0.00  0.00    -0.179 N 
ATOM      5  C   UNL     1     -37.814  22.262   0.283  0.00  0.00    +0.181 C 
ATOM      6  C   UNL     1     -37.703  22.215   1.797  0.00  0.00    +0.257 C 
ATOM      7  C   UNL     1     -36.418  21.964  -0.234  0.00  0.00    +0.257 C 
ENDROOT
BRANCH   3   8
ATOM      8  C   UNL     1     -35.745  22.399   3.309  0.00  0.00    +0.073 C 
ATOM      9  C   UNL     1     -35.684  21.519   4.389  0.00  0.00    +0.017 C 
ATOM     10  C   UNL     1     -35.215  23.684   3.425  0.00  0.00    +0.017 C 
ATOM     11  C   UNL     1     -35.094  21.924   5.587  0.00  0.00    +0.001 C 
ATOM     12  C   UNL     1     -34.624  24.089   4.622  0.00  0.00    +0.001 C 
ATOM     13  C   UNL     1     -34.564  23.209   5.703  0.00  0.00    +0.000 C 
ENDBRANCH   3   8
BRANCH   4  14
ATOM     14  C   UNL     1     -34.461  20.884   0.842  0.00  0.00    +0.073 C 
ATOM     15  C   UNL     1     -33.322  21.335   0.175  0.00  0.00    +0.017 C 
ATOM     16  C   UNL     1     -34.458  19.632   1.458  0.00  0.00    +0.017 C 
ATOM     17  C   UNL     1     -32.182  20.534   0.122  0.00  0.00    +0.001 C 
ATOM     18  C   UNL     1     -33.318  18.831   1.405  0.00  0.00    +0.001 C 
ATOM     19  C   UNL     1     -32.179  19.283   0.737  0.00  0.00    +0.000 C 
ENDBRANCH   4  14
BRANCH   5  20
ATOM     20  C   UNL     1     -38.243  23.656  -0.168  0.00  0.00    +0.021 C 
BRANCH  20  21
ATOM     21  C   UNL     1     -37.300  24.728   0.372  0.00  0.00    +0.001 C 
BRANCH  21  22
ATOM     22  C   UNL     1     -38.080  25.915   0.937  0.00  0.00    +0.000 C 
ATOM     23  C   UNL     1     -37.986  25.974   2.453  0.00  0.00    +0.000 C 
ENDBRANCH  21  22
ENDBRANCH  20  21
ENDBRANCH   5  20
BRANCH   5  24
ATOM     24  C   UNL     1     -38.791  21.190  -0.194  0.00  0.00    +0.226 C 
BRANCH  24  25
ATOM     25  O   UNL     1     -38.339  19.931   0.271  0.00  0.00    -0.447 OA
BRANCH  25  27
ATOM     26  O   UNL     1     -39.496  18.523  -1.142  0.00  0.00    -0.250 OA
ATOM     27  C   UNL     1     -38.455  18.884  -0.610  0.00  0.00    +0.318 C 
BRANCH  27  28
ATOM     28  C   UNL     1     -37.097  18.250  -0.817  0.00  0.00    +0.121 C 
BRANCH  28  29
ATOM     29  C   UNL     1     -37.177  16.827  -1.356  0.00  0.00    +0.121 C 
BRANCH  29  31
ATOM     30  O   UNL     1     -38.502  15.321  -0.008  0.00  0.00    -0.250 OA
ATOM     31  C   UNL     1     -37.416  15.833  -0.246  0.00  0.00    +0.314 C 
BRANCH  31  32
ATOM     32  O   UNL     1     -36.289  15.548   0.451  0.00  0.00    -0.480 OA
ATOM     33  H   UNL     1     -35.494  16.011   0.267  0.00  0.00    +0.295 HD
ENDBRANCH  31  32
ENDBRANCH  29  31
ENDBRANCH  28  29
ENDBRANCH  27  28
ENDBRANCH  25  27
ENDBRANCH  24  25
ENDBRANCH   5  24
TORSDOF 12
ENDMDL
MODEL 4
REMARK VINA RESULT:      -5.7      2.537      4.289
REMARK  Name = 5362
REMARK  12 active torsions:
REMARK  status: ('A' for Active; 'I' for Inactive)
REMARK    1  A    between atoms: N_3  and  C_8
REMARK    2  A    between atoms: N_4  and  C_14
REMARK    3  A    between atoms: C_5  and  C_20
REMARK    4  A    between atoms: C_5  and  C_24
REMARK    5  A    between atoms: C_20  and  C_21
REMARK    6  A    between atoms: C_21  and  C_22
REMARK    7  A    between atoms: C_24  and  O_25
REMARK    8  A    between atoms: O_25  and  C_27
REMARK    9  A    between atoms: C_27  and  C_28
REMARK   10  A    between atoms: C_28  and  C_29
REMARK   11  A    between atoms: C_29  and  C_31
REMARK   12  A    between atoms: C_31  and  O_32
REMARK                            x       y       z     vdW  Elec       q    Type
REMARK                         _______ _______ _______ _____ _____    ______ ____
ROOT
ATOM      1  O   UNL     1     -34.567  23.490   1.966  0.00  0.00    -0.272 OA
ATOM      2  O   UNL     1     -35.576  26.827   5.164  0.00  0.00    -0.272 OA
ATOM      3  N   UNL     1     -34.204  25.839   2.085  0.00  0.00    -0.179 N 
ATOM      4  N   UNL     1     -34.608  26.850   2.990  0.00  0.00    -0.179 N 
ATOM      5  C   UNL     1     -35.276  24.794   3.880  0.00  0.00    +0.181 C 
ATOM      6  C   UNL     1     -34.676  24.584   2.501  0.00  0.00    +0.257 C 
ATOM      7  C   UNL     1     -35.158  26.284   4.151  0.00  0.00    +0.257 C 
ENDROOT
BRANCH   3   8
ATOM      8  C   UNL     1     -33.136  25.982   1.149  0.00  0.00    +0.073 C 
ATOM      9  C   UNL     1     -31.826  26.139   1.602  0.00  0.00    +0.017 C 
ATOM     10  C   UNL     1     -33.402  25.963  -0.220  0.00  0.00    +0.017 C 
ATOM     11  C   UNL     1     -30.782  26.277   0.687  0.00  0.00    +0.001 C 
ATOM     12  C   UNL     1     -32.359  26.101  -1.136  0.00  0.00    +0.001 C 
ATOM     13  C   UNL     1     -31.049  26.258  -0.682  0.00  0.00    +0.000 C 
ENDBRANCH   3   8
BRANCH   4  14
ATOM     14  C   UNL     1     -34.832  28.211   2.624  0.00  0.00    +0.073 C 
ATOM     15  C   UNL     1     -33.953  29.204   3.056  0.00  0.00    +0.017 C 
ATOM     16  C   UNL     1     -35.930  28.549   1.832  0.00  0.00    +0.017 C 
ATOM     17  C   UNL     1     -34.171  30.534   2.697  0.00  0.00    +0.001 C 
ATOM     18  C   UNL     1     -36.149  29.879   1.473  0.00  0.00    +0.001 C 
ATOM     19  C   UNL     1     -35.269  30.872   1.906  0.00  0.00    +0.000 C 
ENDBRANCH   4  14
BRANCH   5  20
ATOM     20  C   UNL     1     -34.477  24.017   4.924  0.00  0.00    +0.021 C 
BRANCH  20  21
ATOM     21  C   UNL     1     -35.394  23.397   5.975  0.00  0.00    +0.001 C 
BRANCH  21  22
ATOM     22  C   UNL     1     -35.103  21.907   6.151  0.00  0.00    +0.000 C 
ATOM     23  C   UNL     1     -35.121  21.174   4.820  0.00  0.00    +0.000 C 
ENDBRANCH  21  22
ENDBRANCH  20  21
ENDBRANCH   5  20
BRANCH   5  24
ATOM     24  C   UNL     1     -36.745  24.378   3.870  0.00  0.00    +0.226 C 
BRANCH  24  25
ATOM     25  O   UNL     1     -37.317  24.777   2.638  0.00  0.00    -0.447 OA
BRANCH  25  27
ATOM     26  O   UNL     1     -38.793  26.548   2.565  0.00  0.00    -0.250 OA
ATOM     27  C   UNL     1     -38.561  25.356   2.709  0.00  0.00    +0.318 C 
BRANCH  27  28
ATOM     28  C   UNL     1     -39.595  24.288   2.995  0.00  0.00    +0.121 C 
BRANCH  28  29
ATOM     29  C   UNL     1     -39.937  23.444   1.773  0.00  0.00    +0.121 C 
BRANCH  29  31
ATOM     30  O   UNL     1     -40.393  21.071   1.784  0.00  0.00    -0.250 OA
ATOM     31  C   UNL     1     -39.613  21.989   2.005  0.00  0.00    +0.314 C 
BRANCH  31  32
ATOM     32  O   UNL     1     -38.352  21.801   2.464  0.00  0.00    -0.480 OA
ATOM     33  H   UNL     1     -37.619  22.056   1.938  0.00  0.00    +0.295 HD
ENDBRANCH  31  32
ENDBRANCH  29  31
ENDBRANCH  28  29
ENDBRANCH  27  28
ENDBRANCH  25  27
ENDBRANCH  24  25
ENDBRANCH   5  24
TORSDOF 12
ENDMDL
MODEL 5
REMARK VINA RESULT:      -5.6      2.536      5.730
REMARK  Name = 5362
REMARK  12 active torsions:
REMARK  status: ('A' for Active; 'I' for Inactive)
REMARK    1  A    between atoms: N_3  and  C_8
REMARK    2  A    between atoms: N_4  and  C_14
REMARK    3  A    between atoms: C_5  and  C_20
REMARK    4  A    between atoms: C_5  and  C_24
REMARK    5  A    between atoms: C_20  and  C_21
REMARK    6  A    between atoms: C_21  and  C_22
REMARK    7  A    between atoms: C_24  and  O_25
REMARK    8  A    between atoms: O_25  and  C_27
REMARK    9  A    between atoms: C_27  and  C_28
REMARK   10  A    between atoms: C_28  and  C_29
REMARK   11  A    between atoms: C_29  and  C_31
REMARK   12  A    between atoms: C_31  and  O_32
REMARK                            x       y       z     vdW  Elec       q    Type
REMARK                         _______ _______ _______ _____ _____    ______ ____
ROOT
ATOM      1  O   UNL     1     -36.591  23.817   0.157  0.00  0.00    -0.272 OA
ATOM      2  O   UNL     1     -35.130  20.754   3.452  0.00  0.00    -0.272 OA
ATOM      3  N   UNL     1     -35.374  21.773   0.100  0.00  0.00    -0.179 N 
ATOM      4  N   UNL     1     -34.841  20.920   1.096  0.00  0.00    -0.179 N 
ATOM      5  C   UNL     1     -36.092  22.575   2.175  0.00  0.00    +0.181 C 
ATOM      6  C   UNL     1     -36.043  22.860   0.684  0.00  0.00    +0.257 C 
ATOM      7  C   UNL     1     -35.328  21.276   2.364  0.00  0.00    +0.257 C 
ENDROOT
BRANCH   3   8
ATOM      8  C   UNL     1     -35.586  21.386  -1.258  0.00  0.00    +0.073 C 
ATOM      9  C   UNL     1     -34.824  21.961  -2.275  0.00  0.00    +0.017 C 
ATOM     10  C   UNL     1     -36.555  20.431  -1.567  0.00  0.00    +0.017 C 
ATOM     11  C   UNL     1     -35.031  21.582  -3.601  0.00  0.00    +0.001 C 
ATOM     12  C   UNL     1     -36.762  20.052  -2.893  0.00  0.00    +0.001 C 
ATOM     13  C   UNL     1     -36.000  20.628  -3.910  0.00  0.00    +0.000 C 
ENDBRANCH   3   8
BRANCH   4  14
ATOM     14  C   UNL     1     -33.673  20.118   0.924  0.00  0.00    +0.073 C 
ATOM     15  C   UNL     1     -33.643  18.815   1.423  0.00  0.00    +0.017 C 
ATOM     16  C   UNL     1     -32.563  20.634   0.255  0.00  0.00    +0.017 C 
ATOM     17  C   UNL     1     -32.502  18.030   1.253  0.00  0.00    +0.001 C 
ATOM     18  C   UNL     1     -31.423  19.850   0.085  0.00  0.00    +0.001 C 
ATOM     19  C   UNL     1     -31.393  18.547   0.585  0.00  0.00    +0.000 C 
ENDBRANCH   4  14
BRANCH   5  20
ATOM     20  C   UNL     1     -37.539  22.390   2.627  0.00  0.00    +0.021 C 
BRANCH  20  21
ATOM     21  C   UNL     1     -38.245  21.319   1.800  0.00  0.00    +0.001 C 
BRANCH  21  22
ATOM     22  C   UNL     1     -39.697  21.704   1.523  0.00  0.00    +0.000 C 
ATOM     23  C   UNL     1     -39.942  23.181   1.784  0.00  0.00    +0.000 C 
ENDBRANCH  21  22
ENDBRANCH  20  21
ENDBRANCH   5  20
BRANCH   5  24
ATOM     24  C   UNL     1     -35.403  23.704   2.938  0.00  0.00    +0.226 C 
BRANCH  24  25
ATOM     25  O   UNL     1     -36.334  24.269   3.842  0.00  0.00    -0.447 OA
BRANCH  25  27
ATOM     26  O   UNL     1     -35.909  23.222   5.853  0.00  0.00    -0.250 OA
ATOM     27  C   UNL     1     -35.983  24.234   5.170  0.00  0.00    +0.318 C 
BRANCH  27  28
ATOM     28  C   UNL     1     -35.705  25.642   5.653  0.00  0.00    +0.121 C 
BRANCH  28  29
ATOM     29  C   UNL     1     -34.218  25.945   5.789  0.00  0.00    +0.121 C 
BRANCH  29  31
ATOM     30  O   UNL     1     -32.556  26.884   4.307  0.00  0.00    -0.250 OA
ATOM     31  C   UNL     1     -33.729  26.804   4.648  0.00  0.00    +0.314 C 
BRANCH  31  32
ATOM     32  O   UNL     1     -34.734  27.463   4.022  0.00  0.00    -0.480 OA
ATOM     33  H   UNL     1     -35.553  27.032   3.868  0.00  0.00    +0.295 HD
ENDBRANCH  31  32
ENDBRANCH  29  31
ENDBRANCH  28  29
ENDBRANCH  27  28
ENDBRANCH  25  27
ENDBRANCH  24  25
ENDBRANCH   5  24
TORSDOF 12
ENDMDL
MODEL 6
REMARK VINA RESULT:      -5.6      2.292      3.821
REMARK  Name = 5362
REMARK  12 active torsions:
REMARK  status: ('A' for Active; 'I' for Inactive)
REMARK    1  A    between atoms: N_3  and  C_8
REMARK    2  A    between atoms: N_4  and  C_14
REMARK    3  A    between atoms: C_5  and  C_20
REMARK    4  A    between atoms: C_5  and  C_24
REMARK    5  A    between atoms: C_20  and  C_21
REMARK    6  A    between atoms: C_21  and  C_22
REMARK    7  A    between atoms: C_24  and  O_25
REMARK    8  A    between atoms: O_25  and  C_27
REMARK    9  A    between atoms: C_27  and  C_28
REMARK   10  A    between atoms: C_28  and  C_29
REMARK   11  A    between atoms: C_29  and  C_31
REMARK   12  A    between atoms: C_31  and  O_32
REMARK                            x       y       z     vdW  Elec       q    Type
REMARK                         _______ _______ _______ _____ _____    ______ ____
ROOT
ATOM      1  O   UNL     1     -36.198  21.321  -1.634  0.00  0.00    -0.272 OA
ATOM      2  O   UNL     1     -38.732  21.722   2.341  0.00  0.00    -0.272 OA
ATOM      3  N   UNL     1     -35.659  21.337   0.685  0.00  0.00    -0.179 N 
ATOM      4  N   UNL     1     -36.406  21.571   1.864  0.00  0.00    -0.179 N 
ATOM      5  C   UNL     1     -37.905  21.543   0.070  0.00  0.00    +0.181 C 
ATOM      6  C   UNL     1     -36.483  21.422  -0.449  0.00  0.00    +0.257 C 
ATOM      7  C   UNL     1     -37.781  21.590   1.583  0.00  0.00    +0.257 C 
ENDROOT
BRANCH   3   8
ATOM      8  C   UNL     1     -34.386  20.692   0.656  0.00  0.00    +0.073 C 
ATOM      9  C   UNL     1     -33.302  21.314   0.035  0.00  0.00    +0.017 C 
ATOM     10  C   UNL     1     -34.225  19.441   1.251  0.00  0.00    +0.017 C 
ATOM     11  C   UNL     1     -32.058  20.684   0.008  0.00  0.00    +0.001 C 
ATOM     12  C   UNL     1     -32.980  18.811   1.224  0.00  0.00    +0.001 C 
ATOM     13  C   UNL     1     -31.897  19.432   0.603  0.00  0.00    +0.000 C 
ENDBRANCH   3   8
BRANCH   4  14
ATOM     14  C   UNL     1     -35.862  22.131   3.059  0.00  0.00    +0.073 C 
ATOM     15  C   UNL     1     -35.603  21.312   4.158  0.00  0.00    +0.017 C 
ATOM     16  C   UNL     1     -35.589  23.498   3.128  0.00  0.00    +0.017 C 
ATOM     17  C   UNL     1     -35.070  21.859   5.325  0.00  0.00    +0.001 C 
ATOM     18  C   UNL     1     -35.057  24.045   4.296  0.00  0.00    +0.001 C 
ATOM     19  C   UNL     1     -34.798  23.224   5.395  0.00  0.00    +0.000 C 
ENDBRANCH   4  14
BRANCH   5  20
ATOM     20  C   UNL     1     -38.719  20.318  -0.341  0.00  0.00    +0.021 C 
BRANCH  20  21
ATOM     21  C   UNL     1     -37.893  19.039  -0.225  0.00  0.00    +0.001 C 
BRANCH  21  22
ATOM     22  C   UNL     1     -38.574  17.876  -0.944  0.00  0.00    +0.000 C 
ATOM     23  C   UNL     1     -38.066  16.535  -0.440  0.00  0.00    +0.000 C 
ENDBRANCH  21  22
ENDBRANCH  20  21
ENDBRANCH   5  20
BRANCH   5  24
ATOM     24  C   UNL     1     -38.533  22.836  -0.445  0.00  0.00    +0.226 C 
BRANCH  24  25
ATOM     25  O   UNL     1     -39.941  22.722  -0.348  0.00  0.00    -0.447 OA
BRANCH  25  27
ATOM     26  O   UNL     1     -41.771  23.751   0.607  0.00  0.00    -0.250 OA
ATOM     27  C   UNL     1     -40.585  23.743   0.308  0.00  0.00    +0.318 C 
BRANCH  27  28
ATOM     28  C   UNL     1     -39.598  24.853   0.599  0.00  0.00    +0.121 C 
BRANCH  28  29
ATOM     29  C   UNL     1     -40.081  25.814   1.678  0.00  0.00    +0.121 C 
BRANCH  29  31
ATOM     30  O   UNL     1     -39.694  24.528   3.687  0.00  0.00    -0.250 OA
ATOM     31  C   UNL     1     -39.435  25.513   3.008  0.00  0.00    +0.314 C 
BRANCH  31  32
ATOM     32  O   UNL     1     -38.513  26.442   3.364  0.00  0.00    -0.480 OA
ATOM     33  H   UNL     1     -38.116  26.407   4.212  0.00  0.00    +0.295 HD
ENDBRANCH  31  32
ENDBRANCH  29  31
ENDBRANCH  28  29
ENDBRANCH  27  28
ENDBRANCH  25  27
ENDBRANCH  24  25
ENDBRANCH   5  24
TORSDOF 12
ENDMDL
MODEL 7
REMARK VINA RESULT:      -5.6      2.140      4.126
REMARK  Name = 5362
REMARK  12 active torsions:
REMARK  status: ('A' for Active; 'I' for Inactive)
REMARK    1  A    between atoms: N_3  and  C_8
REMARK    2  A    between atoms: N_4  and  C_14
REMARK    3  A    between atoms: C_5  and  C_20
REMARK    4  A    between atoms: C_5  and  C_24
REMARK    5  A    between atoms: C_20  and  C_21
REMARK    6  A    between atoms: C_21  and  C_22
REMARK    7  A    between atoms: C_24  and  O_25
REMARK    8  A    between atoms: O_25  and  C_27
REMARK    9  A    between atoms: C_27  and  C_28
REMARK   10  A    between atoms: C_28  and  C_29
REMARK   11  A    between atoms: C_29  and  C_31
REMARK   12  A    between atoms: C_31  and  O_32
REMARK                            x       y       z     vdW  Elec       q    Type
REMARK                         _______ _______ _______ _____ _____    ______ ____
ROOT
ATOM      1  O   UNL     1     -36.418  21.295  -1.461  0.00  0.00    -0.272 OA
ATOM      2  O   UNL     1     -38.597  22.433   2.580  0.00  0.00    -0.272 OA
ATOM      3  N   UNL     1     -35.700  21.575   0.790  0.00  0.00    -0.179 N 
ATOM      4  N   UNL     1     -36.332  22.027   1.973  0.00  0.00    -0.179 N 
ATOM      5  C   UNL     1     -37.966  21.884   0.306  0.00  0.00    +0.181 C 
ATOM      6  C   UNL     1     -36.601  21.577  -0.286  0.00  0.00    +0.257 C 
ATOM      7  C   UNL     1     -37.721  22.123   1.786  0.00  0.00    +0.257 C 
ENDROOT
BRANCH   3   8
ATOM      8  C   UNL     1     -34.483  20.828   0.766  0.00  0.00    +0.073 C 
ATOM      9  C   UNL     1     -34.412  19.590   1.404  0.00  0.00    +0.017 C 
ATOM     10  C   UNL     1     -33.366  21.337   0.104  0.00  0.00    +0.017 C 
ATOM     11  C   UNL     1     -33.223  18.860   1.380  0.00  0.00    +0.001 C 
ATOM     12  C   UNL     1     -32.177  20.608   0.080  0.00  0.00    +0.001 C 
ATOM     13  C   UNL     1     -32.106  19.369   0.718  0.00  0.00    +0.000 C 
ENDBRANCH   3   8
BRANCH   4  14
ATOM     14  C   UNL     1     -35.657  22.694   3.039  0.00  0.00    +0.073 C 
ATOM     15  C   UNL     1     -35.002  23.903   2.802  0.00  0.00    +0.017 C 
ATOM     16  C   UNL     1     -35.655  22.140   4.320  0.00  0.00    +0.017 C 
ATOM     17  C   UNL     1     -34.344  24.555   3.844  0.00  0.00    +0.001 C 
ATOM     18  C   UNL     1     -34.997  22.792   5.362  0.00  0.00    +0.001 C 
ATOM     19  C   UNL     1     -34.341  24.001   5.123  0.00  0.00    +0.000 C 
ENDBRANCH   4  14
BRANCH   5  20
ATOM     20  C   UNL     1     -38.897  20.687   0.126  0.00  0.00    +0.021 C 
BRANCH  20  21
ATOM     21  C   UNL     1     -40.295  21.132  -0.298  0.00  0.00    +0.001 C 
BRANCH  21  22
ATOM     22  C   UNL     1     -40.817  20.280  -1.454  0.00  0.00    +0.000 C 
ATOM     23  C   UNL     1     -39.794  19.244  -1.890  0.00  0.00    +0.000 C 
ENDBRANCH  21  22
ENDBRANCH  20  21
ENDBRANCH   5  20
BRANCH   5  24
ATOM     24  C   UNL     1     -38.535  23.144  -0.341  0.00  0.00    +0.226 C 
BRANCH  24  25
ATOM     25  O   UNL     1     -37.899  24.271   0.233  0.00  0.00    -0.447 OA
BRANCH  25  27
ATOM     26  O   UNL     1     -39.623  25.640  -0.455  0.00  0.00    -0.250 OA
ATOM     27  C   UNL     1     -38.608  25.447   0.200  0.00  0.00    +0.318 C 
BRANCH  27  28
ATOM     28  C   UNL     1     -37.936  26.463   1.098  0.00  0.00    +0.121 C 
BRANCH  28  29
ATOM     29  C   UNL     1     -37.945  26.061   2.567  0.00  0.00    +0.121 C 
BRANCH  29  31
ATOM     30  O   UNL     1     -40.258  26.694   2.860  0.00  0.00    -0.250 OA
ATOM     31  C   UNL     1     -39.354  25.900   3.082  0.00  0.00    +0.314 C 
BRANCH  31  32
ATOM     32  O   UNL     1     -39.521  24.762   3.801  0.00  0.00    -0.480 OA
ATOM     33  H   UNL     1     -38.883  24.515   4.442  0.00  0.00    +0.295 HD
ENDBRANCH  31  32
ENDBRANCH  29  31
ENDBRANCH  28  29
ENDBRANCH  27  28
ENDBRANCH  25  27
ENDBRANCH  24  25
ENDBRANCH   5  24
TORSDOF 12
ENDMDL
MODEL 8
REMARK VINA RESULT:      -5.6      2.513      5.937
REMARK  Name = 5362
REMARK  12 active torsions:
REMARK  status: ('A' for Active; 'I' for Inactive)
REMARK    1  A    between atoms: N_3  and  C_8
REMARK    2  A    between atoms: N_4  and  C_14
REMARK    3  A    between atoms: C_5  and  C_20
REMARK    4  A    between atoms: C_5  and  C_24
REMARK    5  A    between atoms: C_20  and  C_21
REMARK    6  A    between atoms: C_21  and  C_22
REMARK    7  A    between atoms: C_24  and  O_25
REMARK    8  A    between atoms: O_25  and  C_27
REMARK    9  A    between atoms: C_27  and  C_28
REMARK   10  A    between atoms: C_28  and  C_29
REMARK   11  A    between atoms: C_29  and  C_31
REMARK   12  A    between atoms: C_31  and  O_32
REMARK                            x       y       z     vdW  Elec       q    Type
REMARK                         _______ _______ _______ _____ _____    ______ ____
ROOT
ATOM      1  O   UNL     1     -35.109  20.500   3.385  0.00  0.00    -0.272 OA
ATOM      2  O   UNL     1     -36.443  23.808   0.277  0.00  0.00    -0.272 OA
ATOM      3  N   UNL     1     -34.754  20.828   1.055  0.00  0.00    -0.179 N 
ATOM      4  N   UNL     1     -35.249  21.756   0.108  0.00  0.00    -0.179 N 
ATOM      5  C   UNL     1     -36.014  22.418   2.216  0.00  0.00    +0.181 C 
ATOM      6  C   UNL     1     -35.271  21.099   2.331  0.00  0.00    +0.257 C 
ATOM      7  C   UNL     1     -35.921  22.808   0.751  0.00  0.00    +0.257 C 
ENDROOT
BRANCH   3   8
ATOM      8  C   UNL     1     -33.591  20.023   0.857  0.00  0.00    +0.073 C 
ATOM      9  C   UNL     1     -33.585  18.692   1.274  0.00  0.00    +0.017 C 
ATOM     10  C   UNL     1     -32.462  20.567   0.245  0.00  0.00    +0.017 C 
ATOM     11  C   UNL     1     -32.450  17.905   1.080  0.00  0.00    +0.001 C 
ATOM     12  C   UNL     1     -31.327  19.780   0.050  0.00  0.00    +0.001 C 
ATOM     13  C   UNL     1     -31.321  18.449   0.468  0.00  0.00    +0.000 C 
ENDBRANCH   3   8
BRANCH   4  14
ATOM     14  C   UNL     1     -35.429  21.469  -1.279  0.00  0.00    +0.073 C 
ATOM     15  C   UNL     1     -36.364  20.513  -1.677  0.00  0.00    +0.017 C 
ATOM     16  C   UNL     1     -34.672  22.145  -2.236  0.00  0.00    +0.017 C 
ATOM     17  C   UNL     1     -36.540  20.234  -3.032  0.00  0.00    +0.001 C 
ATOM     18  C   UNL     1     -34.848  21.865  -3.591  0.00  0.00    +0.001 C 
ATOM     19  C   UNL     1     -35.783  20.909  -3.988  0.00  0.00    +0.000 C 
ENDBRANCH   4  14
BRANCH   5  20
ATOM     20  C   UNL     1     -35.333  23.481   3.075  0.00  0.00    +0.021 C 
BRANCH  20  21
ATOM     21  C   UNL     1     -36.051  23.658   4.410  0.00  0.00    +0.001 C 
BRANCH  21  22
ATOM     22  C   UNL     1     -35.098  23.429   5.583  0.00  0.00    +0.000 C 
ATOM     23  C   UNL     1     -35.456  22.170   6.355  0.00  0.00    +0.000 C 
ENDBRANCH  21  22
ENDBRANCH  20  21
ENDBRANCH   5  20
BRANCH   5  24
ATOM     24  C   UNL     1     -37.475  22.222   2.614  0.00  0.00    +0.226 C 
BRANCH  24  25
ATOM     25  O   UNL     1     -38.040  21.229   1.778  0.00  0.00    -0.447 OA
BRANCH  25  27
ATOM     26  O   UNL     1     -40.304  21.198   2.218  0.00  0.00    -0.250 OA
ATOM     27  C   UNL     1     -39.366  21.392   1.458  0.00  0.00    +0.318 C 
BRANCH  27  28
ATOM     28  C   UNL     1     -39.481  21.847   0.018  0.00  0.00    +0.121 C 
BRANCH  28  29
ATOM     29  C   UNL     1     -39.964  20.747  -0.919  0.00  0.00    +0.121 C 
BRANCH  29  31
ATOM     30  O   UNL     1     -42.047  19.537  -1.105  0.00  0.00    -0.250 OA
ATOM     31  C   UNL     1     -41.461  20.578  -0.839  0.00  0.00    +0.314 C 
BRANCH  31  32
ATOM     32  O   UNL     1     -42.092  21.701  -0.416  0.00  0.00    -0.480 OA
ATOM     33  H   UNL     1     -43.029  21.729  -0.386  0.00  0.00    +0.295 HD
ENDBRANCH  31  32
ENDBRANCH  29  31
ENDBRANCH  28  29
ENDBRANCH  27  28
ENDBRANCH  25  27
ENDBRANCH  24  25
ENDBRANCH   5  24
TORSDOF 12
ENDMDL
MODEL 9
REMARK VINA RESULT:      -5.5      2.303      4.418
REMARK  Name = 5362
REMARK  12 active torsions:
REMARK  status: ('A' for Active; 'I' for Inactive)
REMARK    1  A    between atoms: N_3  and  C_8
REMARK    2  A    between atoms: N_4  and  C_14
REMARK    3  A    between atoms: C_5  and  C_20
REMARK    4  A    between atoms: C_5  and  C_24
REMARK    5  A    between atoms: C_20  and  C_21
REMARK    6  A    between atoms: C_21  and  C_22
REMARK    7  A    between atoms: C_24  and  O_25
REMARK    8  A    between atoms: O_25  and  C_27
REMARK    9  A    between atoms: C_27  and  C_28
REMARK   10  A    between atoms: C_28  and  C_29
REMARK   11  A    between atoms: C_29  and  C_31
REMARK   12  A    between atoms: C_31  and  O_32
REMARK                            x       y       z     vdW  Elec       q    Type
REMARK                         _______ _______ _______ _____ _____    ______ ____
ROOT
ATOM      1  O   UNL     1     -36.431  22.741  -1.131  0.00  0.00    -0.272 OA
ATOM      2  O   UNL     1     -38.848  23.055   2.923  0.00  0.00    -0.272 OA
ATOM      3  N   UNL     1     -35.935  22.235   1.141  0.00  0.00    -0.179 N 
ATOM      4  N   UNL     1     -36.620  22.438   2.364  0.00  0.00    -0.179 N 
ATOM      5  C   UNL     1     -38.058  23.071   0.633  0.00  0.00    +0.181 C 
ATOM      6  C   UNL     1     -36.699  22.705   0.062  0.00  0.00    +0.257 C 
ATOM      7  C   UNL     1     -37.946  22.831   2.128  0.00  0.00    +0.257 C 
ENDROOT
BRANCH   3   8
ATOM      8  C   UNL     1     -34.853  21.319   0.970  0.00  0.00    +0.073 C 
ATOM      9  C   UNL     1     -34.985  19.996   1.393  0.00  0.00    +0.017 C 
ATOM     10  C   UNL     1     -33.664  21.748   0.379  0.00  0.00    +0.017 C 
ATOM     11  C   UNL     1     -33.928  19.102   1.224  0.00  0.00    +0.001 C 
ATOM     12  C   UNL     1     -32.607  20.854   0.211  0.00  0.00    +0.001 C 
ATOM     13  C   UNL     1     -32.739  19.530   0.633  0.00  0.00    +0.000 C 
ENDBRANCH   3   8
BRANCH   4  14
ATOM     14  C   UNL     1     -35.974  22.641   3.620  0.00  0.00    +0.073 C 
ATOM     15  C   UNL     1     -35.607  23.928   4.015  0.00  0.00    +0.017 C 
ATOM     16  C   UNL     1     -35.712  21.554   4.455  0.00  0.00    +0.017 C 
ATOM     17  C   UNL     1     -34.977  24.126   5.244  0.00  0.00    +0.001 C 
ATOM     18  C   UNL     1     -35.082  21.753   5.683  0.00  0.00    +0.001 C 
ATOM     19  C   UNL     1     -34.714  23.040   6.077  0.00  0.00    +0.000 C 
ENDBRANCH   4  14
BRANCH   5  20
ATOM     20  C   UNL     1     -39.136  22.164   0.045  0.00  0.00    +0.021 C 
BRANCH  20  21
ATOM     21  C   UNL     1     -38.862  20.697   0.368  0.00  0.00    +0.001 C 
BRANCH  21  22
ATOM     22  C   UNL     1     -38.823  19.850  -0.904  0.00  0.00    +0.000 C 
ATOM     23  C   UNL     1     -38.223  18.479  -0.643  0.00  0.00    +0.000 C 
ENDBRANCH  21  22
ENDBRANCH  20  21
ENDBRANCH   5  20
BRANCH   5  24
ATOM     24  C   UNL     1     -38.351  24.545   0.359  0.00  0.00    +0.226 C 
BRANCH  24  25
ATOM     25  O   UNL     1     -37.205  25.302   0.701  0.00  0.00    -0.447 OA
BRANCH  25  27
ATOM     26  O   UNL     1     -38.379  26.561   2.236  0.00  0.00    -0.250 OA
ATOM     27  C   UNL     1     -37.424  26.407   1.488  0.00  0.00    +0.318 C 
BRANCH  27  28
ATOM     28  C   UNL     1     -36.301  27.400   1.280  0.00  0.00    +0.121 C 
BRANCH  28  29
ATOM     29  C   UNL     1     -35.010  26.999   1.983  0.00  0.00    +0.121 C 
BRANCH  29  31
ATOM     30  O   UNL     1     -34.148  27.400   4.204  0.00  0.00    -0.250 OA
ATOM     31  C   UNL     1     -34.806  27.792   3.250  0.00  0.00    +0.314 C 
BRANCH  31  32
ATOM     32  O   UNL     1     -35.414  29.004   3.211  0.00  0.00    -0.480 OA
ATOM     33  H   UNL     1     -36.211  29.144   3.685  0.00  0.00    +0.295 HD
ENDBRANCH  31  32
ENDBRANCH  29  31
ENDBRANCH  28  29
ENDBRANCH  27  28
ENDBRANCH  25  27
ENDBRANCH  24  25
ENDBRANCH   5  24
TORSDOF 12
ENDMDL
