MODEL 1
REMARK VINA RESULT:      -6.1      0.000      0.000
REMARK  Name = 57332106
REMARK  11 active torsions:
REMARK  status: ('A' for Active; 'I' for Inactive)
REMARK    1  A    between atoms: C_1  and  C_4
REMARK    2  A    between atoms: C_2  and  C_17
REMARK    3  A    between atoms: C_4  and  C_7
REMARK    4  A    between atoms: C_7  and  C_8
REMARK    5  A    between atoms: C_9  and  N_14
REMARK    6  A    between atoms: C_18  and  C_21
REMARK    7  A    between atoms: N_20  and  C_23
REMARK    8  A    between atoms: C_23  and  C_26
REMARK    9  A    between atoms: C_23  and  C_29
REMARK   10  A    between atoms: C_26  and  O_27
REMARK   11  A    between atoms: C_29  and  O_30
REMARK                            x       y       z     vdW  Elec       q    Type
REMARK                         _______ _______ _______ _____ _____    ______ ____
ROOT
ATOM      1  C   UNL     1     -36.003  24.483   4.046  0.00  0.00    -0.023 C 
ATOM      2  C   UNL     1     -35.246  24.066   5.084  0.00  0.00    -0.026 C 
ATOM      3  C   UNL     1     -35.438  22.739   5.774  0.00  0.00    +0.031 C 
ENDROOT
BRANCH   1   4
ATOM      4  C   UNL     1     -37.118  23.727   3.362  0.00  0.00    +0.084 C 
ATOM      5  C   UNL     1     -38.419  24.530   3.376  0.00  0.00    +0.013 C 
BRANCH   4   7
ATOM      6  O   UNL     1     -37.167  24.111   0.975  0.00  0.00    -0.291 OA
ATOM      7  C   UNL     1     -36.693  23.474   1.916  0.00  0.00    +0.177 C 
BRANCH   7   8
ATOM      8  C   UNL     1     -35.672  22.430   1.628  0.00  0.00    +0.035 C 
ATOM      9  C   UNL     1     -33.759  20.473   1.086  0.00  0.00    +0.048 C 
ATOM     10  C   UNL     1     -35.731  21.197   2.280  0.00  0.00    +0.004 C 
ATOM     11  C   UNL     1     -34.657  22.684   0.707  0.00  0.00    +0.004 C 
ATOM     12  C   UNL     1     -34.775  20.220   2.008  0.00  0.00    +0.015 C 
ATOM     13  C   UNL     1     -33.700  21.706   0.435  0.00  0.00    +0.015 C 
BRANCH   9  14
ATOM     14  N   UNL     1     -32.793  19.484   0.813  0.00  0.00    -0.304 N 
ATOM     15  C   UNL     1     -32.987  18.122   1.271  0.00  0.00    +0.112 C 
ATOM     16  C   UNL     1     -31.595  19.813   0.065  0.00  0.00    +0.112 C 
ENDBRANCH   9  14
ENDBRANCH   7   8
ENDBRANCH   4   7
ENDBRANCH   1   4
BRANCH   2  17
ATOM     17  C   UNL     1     -34.191  24.950   5.587  0.00  0.00    +0.000 C 
ATOM     18  C   UNL     1     -34.131  26.282   5.431  0.00  0.00    +0.057 C 
BRANCH  18  21
ATOM     19  O   UNL     1     -32.457  26.749   7.067  0.00  0.00    -0.270 OA
ATOM     20  N   UNL     1     -32.631  28.117   5.196  0.00  0.00    -0.293 N 
ATOM     21  C   UNL     1     -32.990  27.051   6.003  0.00  0.00    +0.246 C 
ATOM     22  H   UNL     1     -33.131  28.265   4.361  0.00  0.00    +0.150 HD
BRANCH  20  23
ATOM     23  C   UNL     1     -31.554  29.024   5.526  0.00  0.00    +0.174 C 
ATOM     24  C   UNL     1     -31.828  29.632   6.905  0.00  0.00    +0.034 C 
BRANCH  23  26
ATOM     25  O   UNL     1     -29.676  27.802   4.575  0.00  0.00    -0.248 OA
ATOM     26  C   UNL     1     -30.232  28.250   5.572  0.00  0.00    +0.332 C 
BRANCH  26  27
ATOM     27  O   UNL     1     -29.749  28.031   6.820  0.00  0.00    -0.479 OA
ATOM     28  H   UNL     1     -28.877  27.709   6.935  0.00  0.00    +0.295 HD
ENDBRANCH  26  27
ENDBRANCH  23  26
BRANCH  23  29
ATOM     29  C   UNL     1     -31.452  30.098   4.431  0.00  0.00    +0.166 C 
BRANCH  29  30
ATOM     30  O   UNL     1     -30.200  30.770   4.484  0.00  0.00    -0.380 OA
ATOM     31  H   UNL     1     -29.667  30.522   3.712  0.00  0.00    +0.211 HD
ENDBRANCH  29  30
ENDBRANCH  23  29
ENDBRANCH  20  23
ENDBRANCH  18  21
ENDBRANCH   2  17
TORSDOF 11
ENDMDL
MODEL 2
REMARK VINA RESULT:      -6.0      1.175      2.102
REMARK  Name = 57332106
REMARK  11 active torsions:
REMARK  status: ('A' for Active; 'I' for Inactive)
REMARK    1  A    between atoms: C_1  and  C_4
REMARK    2  A    between atoms: C_2  and  C_17
REMARK    3  A    between atoms: C_4  and  C_7
REMARK    4  A    between atoms: C_7  and  C_8
REMARK    5  A    between atoms: C_9  and  N_14
REMARK    6  A    between atoms: C_18  and  C_21
REMARK    7  A    between atoms: N_20  and  C_23
REMARK    8  A    between atoms: C_23  and  C_26
REMARK    9  A    between atoms: C_23  and  C_29
REMARK   10  A    between atoms: C_26  and  O_27
REMARK   11  A    between atoms: C_29  and  O_30
REMARK                            x       y       z     vdW  Elec       q    Type
REMARK                         _______ _______ _______ _____ _____    ______ ____
ROOT
ATOM      1  C   UNL     1     -36.055  24.058   3.525  0.00  0.00    -0.023 C 
ATOM      2  C   UNL     1     -35.253  23.852   4.592  0.00  0.00    -0.026 C 
ATOM      3  C   UNL     1     -35.384  22.668   5.515  0.00  0.00    +0.031 C 
ENDROOT
BRANCH   1   4
ATOM      4  C   UNL     1     -37.171  23.168   3.030  0.00  0.00    +0.084 C 
ATOM      5  C   UNL     1     -38.507  23.909   3.022  0.00  0.00    +0.013 C 
BRANCH   4   7
ATOM      6  O   UNL     1     -37.480  23.098   0.633  0.00  0.00    -0.291 OA
ATOM      7  C   UNL     1     -36.824  22.731   1.608  0.00  0.00    +0.177 C 
BRANCH   7   8
ATOM      8  C   UNL     1     -35.654  21.837   1.384  0.00  0.00    +0.035 C 
ATOM      9  C   UNL     1     -33.462  20.164   0.967  0.00  0.00    +0.048 C 
ATOM     10  C   UNL     1     -34.686  22.178   0.438  0.00  0.00    +0.004 C 
ATOM     11  C   UNL     1     -35.526  20.660   2.119  0.00  0.00    +0.004 C 
ATOM     12  C   UNL     1     -33.590  21.341   0.230  0.00  0.00    +0.015 C 
ATOM     13  C   UNL     1     -34.430  19.823   1.911  0.00  0.00    +0.015 C 
BRANCH   9  14
ATOM     14  N   UNL     1     -32.354  19.318   0.754  0.00  0.00    -0.304 N 
ATOM     15  C   UNL     1     -31.216  19.779  -0.015  0.00  0.00    +0.112 C 
ATOM     16  C   UNL     1     -32.335  17.979   1.308  0.00  0.00    +0.112 C 
ENDBRANCH   9  14
ENDBRANCH   7   8
ENDBRANCH   4   7
ENDBRANCH   1   4
BRANCH   2  17
ATOM     17  C   UNL     1     -34.208  24.835   4.888  0.00  0.00    +0.000 C 
ATOM     18  C   UNL     1     -34.381  26.018   5.498  0.00  0.00    +0.057 C 
BRANCH  18  21
ATOM     19  O   UNL     1     -32.444  26.767   6.675  0.00  0.00    -0.270 OA
ATOM     20  N   UNL     1     -33.129  27.910   4.772  0.00  0.00    -0.293 N 
ATOM     21  C   UNL     1     -33.215  26.917   5.732  0.00  0.00    +0.246 C 
ATOM     22  H   UNL     1     -33.806  27.934   4.057  0.00  0.00    +0.150 HD
BRANCH  20  23
ATOM     23  C   UNL     1     -32.088  28.915   4.772  0.00  0.00    +0.174 C 
ATOM     24  C   UNL     1     -30.825  28.315   4.148  0.00  0.00    +0.034 C 
BRANCH  23  26
ATOM     25  O   UNL     1     -31.762  30.869   3.359  0.00  0.00    -0.248 OA
ATOM     26  C   UNL     1     -32.540  30.117   3.936  0.00  0.00    +0.332 C 
BRANCH  26  27
ATOM     27  O   UNL     1     -33.878  30.336   3.939  0.00  0.00    -0.479 OA
ATOM     28  H   UNL     1     -34.212  31.188   4.139  0.00  0.00    +0.295 HD
ENDBRANCH  26  27
ENDBRANCH  23  26
BRANCH  23  29
ATOM     29  C   UNL     1     -31.851  29.387   6.216  0.00  0.00    +0.166 C 
BRANCH  29  30
ATOM     30  O   UNL     1     -32.292  30.726   6.399  0.00  0.00    -0.380 OA
ATOM     31  H   UNL     1     -31.524  31.304   6.535  0.00  0.00    +0.211 HD
ENDBRANCH  29  30
ENDBRANCH  23  29
ENDBRANCH  20  23
ENDBRANCH  18  21
ENDBRANCH   2  17
TORSDOF 11
ENDMDL
MODEL 3
REMARK VINA RESULT:      -5.9      0.835      1.771
REMARK  Name = 57332106
REMARK  11 active torsions:
REMARK  status: ('A' for Active; 'I' for Inactive)
REMARK    1  A    between atoms: C_1  and  C_4
REMARK    2  A    between atoms: C_2  and  C_17
REMARK    3  A    between atoms: C_4  and  C_7
REMARK    4  A    between atoms: C_7  and  C_8
REMARK    5  A    between atoms: C_9  and  N_14
REMARK    6  A    between atoms: C_18  and  C_21
REMARK    7  A    between atoms: N_20  and  C_23
REMARK    8  A    between atoms: C_23  and  C_26
REMARK    9  A    between atoms: C_23  and  C_29
REMARK   10  A    between atoms: C_26  and  O_27
REMARK   11  A    between atoms: C_29  and  O_30
REMARK                            x       y       z     vdW  Elec       q    Type
REMARK                         _______ _______ _______ _____ _____    ______ ____
ROOT
ATOM      1  C   UNL     1     -36.236  24.744   4.095  0.00  0.00    -0.023 C 
ATOM      2  C   UNL     1     -35.450  24.354   5.122  0.00  0.00    -0.026 C 
ATOM      3  C   UNL     1     -35.482  22.969   5.714  0.00  0.00    +0.031 C 
ENDROOT
BRANCH   1   4
ATOM      4  C   UNL     1     -37.232  23.903   3.331  0.00  0.00    +0.084 C 
ATOM      5  C   UNL     1     -38.605  24.573   3.291  0.00  0.00    +0.013 C 
BRANCH   4   7
ATOM      6  O   UNL     1     -37.068  24.469   0.986  0.00  0.00    -0.291 OA
ATOM      7  C   UNL     1     -36.707  23.736   1.906  0.00  0.00    +0.177 C 
BRANCH   7   8
ATOM      8  C   UNL     1     -35.723  22.657   1.613  0.00  0.00    +0.035 C 
ATOM      9  C   UNL     1     -33.880  20.636   1.066  0.00  0.00    +0.048 C 
ATOM     10  C   UNL     1     -34.721  22.865   0.664  0.00  0.00    +0.004 C 
ATOM     11  C   UNL     1     -35.804  21.439   2.287  0.00  0.00    +0.004 C 
ATOM     12  C   UNL     1     -33.800  21.854   0.391  0.00  0.00    +0.015 C 
ATOM     13  C   UNL     1     -34.882  20.428   2.014  0.00  0.00    +0.015 C 
BRANCH   9  14
ATOM     14  N   UNL     1     -32.948  19.615   0.788  0.00  0.00    -0.304 N 
ATOM     15  C   UNL     1     -33.171  18.267   1.271  0.00  0.00    +0.112 C 
ATOM     16  C   UNL     1     -31.759  19.898   0.009  0.00  0.00    +0.112 C 
ENDBRANCH   9  14
ENDBRANCH   7   8
ENDBRANCH   4   7
ENDBRANCH   1   4
BRANCH   2  17
ATOM     17  C   UNL     1     -34.528  25.328   5.712  0.00  0.00    +0.000 C 
ATOM     18  C   UNL     1     -33.813  26.248   5.046  0.00  0.00    +0.057 C 
BRANCH  18  21
ATOM     19  O   UNL     1     -32.926  27.273   7.011  0.00  0.00    -0.270 OA
ATOM     20  N   UNL     1     -32.090  27.890   4.933  0.00  0.00    -0.293 N 
ATOM     21  C   UNL     1     -32.912  27.176   5.788  0.00  0.00    +0.246 C 
ATOM     22  H   UNL     1     -32.166  27.729   3.964  0.00  0.00    +0.150 HD
BRANCH  20  23
ATOM     23  C   UNL     1     -31.125  28.860   5.399  0.00  0.00    +0.174 C 
ATOM     24  C   UNL     1     -30.583  29.634   4.193  0.00  0.00    +0.034 C 
BRANCH  23  26
ATOM     25  O   UNL     1     -32.526  30.762   5.985  0.00  0.00    -0.248 OA
ATOM     26  C   UNL     1     -31.809  29.840   6.359  0.00  0.00    +0.332 C 
BRANCH  26  27
ATOM     27  O   UNL     1     -31.502  29.656   7.667  0.00  0.00    -0.479 OA
ATOM     28  H   UNL     1     -30.722  30.033   8.022  0.00  0.00    +0.295 HD
ENDBRANCH  26  27
ENDBRANCH  23  26
BRANCH  23  29
ATOM     29  C   UNL     1     -30.010  28.127   6.164  0.00  0.00    +0.166 C 
BRANCH  29  30
ATOM     30  O   UNL     1     -29.155  27.420   5.275  0.00  0.00    -0.380 OA
ATOM     31  H   UNL     1     -29.178  26.474   5.487  0.00  0.00    +0.211 HD
ENDBRANCH  29  30
ENDBRANCH  23  29
ENDBRANCH  20  23
ENDBRANCH  18  21
ENDBRANCH   2  17
TORSDOF 11
ENDMDL
MODEL 4
REMARK VINA RESULT:      -5.8      1.844      2.880
REMARK  Name = 57332106
REMARK  11 active torsions:
REMARK  status: ('A' for Active; 'I' for Inactive)
REMARK    1  A    between atoms: C_1  and  C_4
REMARK    2  A    between atoms: C_2  and  C_17
REMARK    3  A    between atoms: C_4  and  C_7
REMARK    4  A    between atoms: C_7  and  C_8
REMARK    5  A    between atoms: C_9  and  N_14
REMARK    6  A    between atoms: C_18  and  C_21
REMARK    7  A    between atoms: N_20  and  C_23
REMARK    8  A    between atoms: C_23  and  C_26
REMARK    9  A    between atoms: C_23  and  C_29
REMARK   10  A    between atoms: C_26  and  O_27
REMARK   11  A    between atoms: C_29  and  O_30
REMARK                            x       y       z     vdW  Elec       q    Type
REMARK                         _______ _______ _______ _____ _____    ______ ____
ROOT
ATOM      1  C   UNL     1     -35.122  22.584   2.834  0.00  0.00    -0.023 C 
ATOM      2  C   UNL     1     -35.021  22.937   4.134  0.00  0.00    -0.026 C 
ATOM      3  C   UNL     1     -35.254  21.982   5.276  0.00  0.00    +0.031 C 
ENDROOT
BRANCH   1   4
ATOM      4  C   UNL     1     -35.430  21.213   2.277  0.00  0.00    +0.084 C 
ATOM      5  C   UNL     1     -36.933  21.026   2.073  0.00  0.00    +0.013 C 
BRANCH   4   7
ATOM      6  O   UNL     1     -35.080  21.706  -0.064  0.00  0.00    -0.291 OA
ATOM      7  C   UNL     1     -34.715  21.083   0.933  0.00  0.00    +0.177 C 
BRANCH   7   8
ATOM      8  C   UNL     1     -33.537  20.180   0.818  0.00  0.00    +0.035 C 
ATOM      9  C   UNL     1     -31.331  18.487   0.600  0.00  0.00    +0.048 C 
ATOM     10  C   UNL     1     -33.546  18.938   1.454  0.00  0.00    +0.004 C 
ATOM     11  C   UNL     1     -32.427  20.575   0.074  0.00  0.00    +0.004 C 
ATOM     12  C   UNL     1     -32.442  18.092   1.345  0.00  0.00    +0.015 C 
ATOM     13  C   UNL     1     -31.323  19.728  -0.036  0.00  0.00    +0.015 C 
BRANCH   9  14
ATOM     14  N   UNL     1     -30.216  17.631   0.491  0.00  0.00    -0.304 N 
ATOM     15  C   UNL     1     -28.901  18.085   0.895  0.00  0.00    +0.112 C 
ATOM     16  C   UNL     1     -30.372  16.283  -0.019  0.00  0.00    +0.112 C 
ENDBRANCH   9  14
ENDBRANCH   7   8
ENDBRANCH   4   7
ENDBRANCH   1   4
BRANCH   2  17
ATOM     17  C   UNL     1     -34.687  24.326   4.462  0.00  0.00    +0.000 C 
ATOM     18  C   UNL     1     -34.175  25.239   3.622  0.00  0.00    +0.057 C 
BRANCH  18  21
ATOM     19  O   UNL     1     -34.768  27.384   4.485  0.00  0.00    -0.270 OA
ATOM     20  N   UNL     1     -32.534  26.908   4.058  0.00  0.00    -0.293 N 
ATOM     21  C   UNL     1     -33.887  26.620   4.103  0.00  0.00    +0.246 C 
ATOM     22  H   UNL     1     -31.915  26.215   3.733  0.00  0.00    +0.150 HD
BRANCH  20  23
ATOM     23  C   UNL     1     -31.989  28.184   4.469  0.00  0.00    +0.174 C 
ATOM     24  C   UNL     1     -32.839  29.301   3.856  0.00  0.00    +0.034 C 
BRANCH  23  26
ATOM     25  O   UNL     1     -32.129  29.360   6.595  0.00  0.00    -0.248 OA
ATOM     26  C   UNL     1     -32.041  28.293   5.997  0.00  0.00    +0.332 C 
BRANCH  26  27
ATOM     27  O   UNL     1     -31.909  27.114   6.652  0.00  0.00    -0.479 OA
ATOM     28  H   UNL     1     -32.601  26.803   7.201  0.00  0.00    +0.295 HD
ENDBRANCH  26  27
ENDBRANCH  23  26
BRANCH  23  29
ATOM     29  C   UNL     1     -30.520  28.266   4.024  0.00  0.00    +0.166 C 
BRANCH  29  30
ATOM     30  O   UNL     1     -29.640  27.933   5.090  0.00  0.00    -0.380 OA
ATOM     31  H   UNL     1     -28.958  27.322   4.768  0.00  0.00    +0.211 HD
ENDBRANCH  29  30
ENDBRANCH  23  29
ENDBRANCH  20  23
ENDBRANCH  18  21
ENDBRANCH   2  17
TORSDOF 11
ENDMDL
MODEL 5
REMARK VINA RESULT:      -5.7      3.896      9.540
REMARK  Name = 57332106
REMARK  11 active torsions:
REMARK  status: ('A' for Active; 'I' for Inactive)
REMARK    1  A    between atoms: C_1  and  C_4
REMARK    2  A    between atoms: C_2  and  C_17
REMARK    3  A    between atoms: C_4  and  C_7
REMARK    4  A    between atoms: C_7  and  C_8
REMARK    5  A    between atoms: C_9  and  N_14
REMARK    6  A    between atoms: C_18  and  C_21
REMARK    7  A    between atoms: N_20  and  C_23
REMARK    8  A    between atoms: C_23  and  C_26
REMARK    9  A    between atoms: C_23  and  C_29
REMARK   10  A    between atoms: C_26  and  O_27
REMARK   11  A    between atoms: C_29  and  O_30
REMARK                            x       y       z     vdW  Elec       q    Type
REMARK                         _______ _______ _______ _____ _____    ______ ____
ROOT
ATOM      1  C   UNL     1     -35.430  21.824   2.102  0.00  0.00    -0.023 C 
ATOM      2  C   UNL     1     -34.529  21.866   1.097  0.00  0.00    -0.026 C 
ATOM      3  C   UNL     1     -34.253  23.100   0.277  0.00  0.00    +0.031 C 
ENDROOT
BRANCH   1   4
ATOM      4  C   UNL     1     -36.278  22.962   2.621  0.00  0.00    +0.084 C 
ATOM      5  C   UNL     1     -37.759  22.584   2.638  0.00  0.00    +0.013 C 
BRANCH   4   7
ATOM      6  O   UNL     1     -36.125  22.565   5.001  0.00  0.00    -0.291 OA
ATOM      7  C   UNL     1     -35.818  23.276   4.044  0.00  0.00    +0.177 C 
BRANCH   7   8
ATOM      8  C   UNL     1     -34.968  24.474   4.288  0.00  0.00    +0.035 C 
ATOM      9  C   UNL     1     -33.375  26.717   4.746  0.00  0.00    +0.048 C 
ATOM     10  C   UNL     1     -34.798  24.955   5.587  0.00  0.00    +0.004 C 
ATOM     11  C   UNL     1     -34.344  25.115   3.220  0.00  0.00    +0.004 C 
ATOM     12  C   UNL     1     -34.001  26.076   5.815  0.00  0.00    +0.015 C 
ATOM     13  C   UNL     1     -33.546  26.236   3.448  0.00  0.00    +0.015 C 
BRANCH   9  14
ATOM     14  N   UNL     1     -32.570  27.852   4.979  0.00  0.00    -0.304 N 
ATOM     15  C   UNL     1     -32.100  28.156   6.315  0.00  0.00    +0.112 C 
ATOM     16  C   UNL     1     -32.197  28.725   3.884  0.00  0.00    +0.112 C 
ENDBRANCH   9  14
ENDBRANCH   7   8
ENDBRANCH   4   7
ENDBRANCH   1   4
BRANCH   2  17
ATOM     17  C   UNL     1     -33.789  20.645   0.764  0.00  0.00    +0.000 C 
ATOM     18  C   UNL     1     -33.799  19.497   1.458  0.00  0.00    +0.057 C 
BRANCH  18  21
ATOM     19  O   UNL     1     -32.212  17.734   1.727  0.00  0.00    -0.270 OA
ATOM     20  N   UNL     1     -33.232  18.039  -0.338  0.00  0.00    -0.293 N 
ATOM     21  C   UNL     1     -32.991  18.334   0.993  0.00  0.00    +0.246 C 
ATOM     22  H   UNL     1     -33.881  18.591  -0.833  0.00  0.00    +0.150 HD
BRANCH  20  23
ATOM     23  C   UNL     1     -32.572  16.957  -1.034  0.00  0.00    +0.174 C 
ATOM     24  C   UNL     1     -31.057  17.125  -0.883  0.00  0.00    +0.034 C 
BRANCH  23  26
ATOM     25  O   UNL     1     -34.129  15.165  -0.498  0.00  0.00    -0.248 OA
ATOM     26  C   UNL     1     -32.993  15.620  -0.415  0.00  0.00    +0.332 C 
BRANCH  26  27
ATOM     27  O   UNL     1     -32.024  15.000   0.303  0.00  0.00    -0.479 OA
ATOM     28  H   UNL     1     -31.165  15.371   0.348  0.00  0.00    +0.295 HD
ENDBRANCH  26  27
ENDBRANCH  23  26
BRANCH  23  29
ATOM     29  C   UNL     1     -33.010  16.970  -2.508  0.00  0.00    +0.166 C 
BRANCH  29  30
ATOM     30  O   UNL     1     -34.427  16.966  -2.624  0.00  0.00    -0.380 OA
ATOM     31  H   UNL     1     -34.824  17.015  -1.740  0.00  0.00    +0.211 HD
ENDBRANCH  29  30
ENDBRANCH  23  29
ENDBRANCH  20  23
ENDBRANCH  18  21
ENDBRANCH   2  17
TORSDOF 11
ENDMDL
MODEL 6
REMARK VINA RESULT:      -5.7      2.187      2.953
REMARK  Name = 57332106
REMARK  11 active torsions:
REMARK  status: ('A' for Active; 'I' for Inactive)
REMARK    1  A    between atoms: C_1  and  C_4
REMARK    2  A    between atoms: C_2  and  C_17
REMARK    3  A    between atoms: C_4  and  C_7
REMARK    4  A    between atoms: C_7  and  C_8
REMARK    5  A    between atoms: C_9  and  N_14
REMARK    6  A    between atoms: C_18  and  C_21
REMARK    7  A    between atoms: N_20  and  C_23
REMARK    8  A    between atoms: C_23  and  C_26
REMARK    9  A    between atoms: C_23  and  C_29
REMARK   10  A    between atoms: C_26  and  O_27
REMARK   11  A    between atoms: C_29  and  O_30
REMARK                            x       y       z     vdW  Elec       q    Type
REMARK                         _______ _______ _______ _____ _____    ______ ____
ROOT
ATOM      1  C   UNL     1     -34.518  24.179   5.204  0.00  0.00    -0.023 C 
ATOM      2  C   UNL     1     -34.089  25.035   4.251  0.00  0.00    -0.026 C 
ATOM      3  C   UNL     1     -34.090  24.710   2.779  0.00  0.00    +0.031 C 
ENDROOT
BRANCH   1   4
ATOM      4  C   UNL     1     -35.103  22.801   5.003  0.00  0.00    +0.084 C 
ATOM      5  C   UNL     1     -35.489  22.165   6.338  0.00  0.00    +0.013 C 
BRANCH   4   7
ATOM      6  O   UNL     1     -37.177  23.834   4.315  0.00  0.00    -0.291 OA
ATOM      7  C   UNL     1     -36.348  22.943   4.129  0.00  0.00    +0.177 C 
BRANCH   7   8
ATOM      8  C   UNL     1     -36.571  21.982   3.014  0.00  0.00    +0.035 C 
ATOM      9  C   UNL     1     -36.987  20.184   0.923  0.00  0.00    +0.048 C 
ATOM     10  C   UNL     1     -37.743  22.048   2.260  0.00  0.00    +0.004 C 
ATOM     11  C   UNL     1     -35.608  21.018   2.723  0.00  0.00    +0.004 C 
ATOM     12  C   UNL     1     -37.951  21.149   1.215  0.00  0.00    +0.015 C 
ATOM     13  C   UNL     1     -35.815  20.118   1.677  0.00  0.00    +0.015 C 
BRANCH   9  14
ATOM     14  N   UNL     1     -37.199  19.274  -0.133  0.00  0.00    -0.304 N 
ATOM     15  C   UNL     1     -38.492  19.193  -0.784  0.00  0.00    +0.112 C 
ATOM     16  C   UNL     1     -36.125  18.413  -0.588  0.00  0.00    +0.112 C 
ENDBRANCH   9  14
ENDBRANCH   7   8
ENDBRANCH   4   7
ENDBRANCH   1   4
BRANCH   2  17
ATOM     17  C   UNL     1     -33.575  26.345   4.660  0.00  0.00    +0.000 C 
ATOM     18  C   UNL     1     -32.988  27.251   3.863  0.00  0.00    +0.057 C 
BRANCH  18  21
ATOM     19  O   UNL     1     -33.072  29.615   4.189  0.00  0.00    -0.270 OA
ATOM     20  N   UNL     1     -31.396  28.384   5.225  0.00  0.00    -0.293 N 
ATOM     21  C   UNL     1     -32.514  28.548   4.427  0.00  0.00    +0.246 C 
ATOM     22  H   UNL     1     -31.032  27.477   5.347  0.00  0.00    +0.150 HD
BRANCH  20  23
ATOM     23  C   UNL     1     -30.737  29.487   5.890  0.00  0.00    +0.174 C 
ATOM     24  C   UNL     1     -31.741  30.169   6.824  0.00  0.00    +0.034 C 
BRANCH  23  26
ATOM     25  O   UNL     1     -28.715  29.680   7.230  0.00  0.00    -0.248 OA
ATOM     26  C   UNL     1     -29.562  28.956   6.717  0.00  0.00    +0.332 C 
BRANCH  26  27
ATOM     27  O   UNL     1     -29.483  27.604   6.784  0.00  0.00    -0.479 OA
ATOM     28  H   UNL     1     -29.022  27.128   6.121  0.00  0.00    +0.295 HD
ENDBRANCH  26  27
ENDBRANCH  23  26
BRANCH  23  29
ATOM     29  C   UNL     1     -30.188  30.454   4.828  0.00  0.00    +0.166 C 
BRANCH  29  30
ATOM     30  O   UNL     1     -28.941  30.001   4.315  0.00  0.00    -0.380 OA
ATOM     31  H   UNL     1     -28.880  30.221   3.373  0.00  0.00    +0.211 HD
ENDBRANCH  29  30
ENDBRANCH  23  29
ENDBRANCH  20  23
ENDBRANCH  18  21
ENDBRANCH   2  17
TORSDOF 11
ENDMDL
MODEL 7
REMARK VINA RESULT:      -5.7      6.628     10.214
REMARK  Name = 57332106
REMARK  11 active torsions:
REMARK  status: ('A' for Active; 'I' for Inactive)
REMARK    1  A    between atoms: C_1  and  C_4
REMARK    2  A    between atoms: C_2  and  C_17
REMARK    3  A    between atoms: C_4  and  C_7
REMARK    4  A    between atoms: C_7  and  C_8
REMARK    5  A    between atoms: C_9  and  N_14
REMARK    6  A    between atoms: C_18  and  C_21
REMARK    7  A    between atoms: N_20  and  C_23
REMARK    8  A    between atoms: C_23  and  C_26
REMARK    9  A    between atoms: C_23  and  C_29
REMARK   10  A    between atoms: C_26  and  O_27
REMARK   11  A    between atoms: C_29  and  O_30
REMARK                            x       y       z     vdW  Elec       q    Type
REMARK                         _______ _______ _______ _____ _____    ______ ____
ROOT
ATOM      1  C   UNL     1     -42.292  26.123   1.739  0.00  0.00    -0.023 C 
ATOM      2  C   UNL     1     -41.564  26.411   2.839  0.00  0.00    -0.026 C 
ATOM      3  C   UNL     1     -42.117  27.146   4.033  0.00  0.00    +0.031 C 
ENDROOT
BRANCH   1   4
ATOM      4  C   UNL     1     -43.754  26.421   1.501  0.00  0.00    +0.084 C 
ATOM      5  C   UNL     1     -43.981  26.987   0.100  0.00  0.00    +0.013 C 
BRANCH   4   7
ATOM      6  O   UNL     1     -44.343  24.154   0.903  0.00  0.00    -0.291 OA
ATOM      7  C   UNL     1     -44.529  25.113   1.652  0.00  0.00    +0.177 C 
BRANCH   7   8
ATOM      8  C   UNL     1     -45.539  24.985   2.739  0.00  0.00    +0.035 C 
ATOM      9  C   UNL     1     -47.429  24.743   4.776  0.00  0.00    +0.048 C 
ATOM     10  C   UNL     1     -46.510  23.985   2.674  0.00  0.00    +0.004 C 
ATOM     11  C   UNL     1     -45.514  25.864   3.820  0.00  0.00    +0.004 C 
ATOM     12  C   UNL     1     -47.455  23.864   3.692  0.00  0.00    +0.015 C 
ATOM     13  C   UNL     1     -46.459  25.743   4.840  0.00  0.00    +0.015 C 
BRANCH   9  14
ATOM     14  N   UNL     1     -48.386  24.620   5.804  0.00  0.00    -0.304 N 
ATOM     15  C   UNL     1     -48.892  25.799   6.480  0.00  0.00    +0.112 C 
ATOM     16  C   UNL     1     -48.882  23.316   6.194  0.00  0.00    +0.112 C 
ENDBRANCH   9  14
ENDBRANCH   7   8
ENDBRANCH   4   7
ENDBRANCH   1   4
BRANCH   2  17
ATOM     17  C   UNL     1     -40.156  26.010   2.877  0.00  0.00    +0.000 C 
ATOM     18  C   UNL     1     -39.688  24.777   3.129  0.00  0.00    +0.057 C 
BRANCH  18  21
ATOM     19  O   UNL     1     -37.644  23.965   2.202  0.00  0.00    -0.270 OA
ATOM     20  N   UNL     1     -37.620  24.977   4.293  0.00  0.00    -0.293 N 
ATOM     21  C   UNL     1     -38.220  24.520   3.132  0.00  0.00    +0.246 C 
ATOM     22  H   UNL     1     -38.183  25.410   4.975  0.00  0.00    +0.150 HD
BRANCH  20  23
ATOM     23  C   UNL     1     -36.202  24.848   4.547  0.00  0.00    +0.174 C 
ATOM     24  C   UNL     1     -35.798  25.869   5.615  0.00  0.00    +0.034 C 
BRANCH  23  26
ATOM     25  O   UNL     1     -35.026  23.188   5.884  0.00  0.00    -0.248 OA
ATOM     26  C   UNL     1     -35.903  23.436   5.064  0.00  0.00    +0.332 C 
BRANCH  26  27
ATOM     27  O   UNL     1     -36.642  22.456   4.487  0.00  0.00    -0.479 OA
ATOM     28  H   UNL     1     -37.484  22.238   4.835  0.00  0.00    +0.295 HD
ENDBRANCH  26  27
ENDBRANCH  23  26
BRANCH  23  29
ATOM     29  C   UNL     1     -35.437  25.057   3.230  0.00  0.00    +0.166 C 
BRANCH  29  30
ATOM     30  O   UNL     1     -34.726  23.884   2.856  0.00  0.00    -0.380 OA
ATOM     31  H   UNL     1     -34.143  24.083   2.107  0.00  0.00    +0.211 HD
ENDBRANCH  29  30
ENDBRANCH  23  29
ENDBRANCH  20  23
ENDBRANCH  18  21
ENDBRANCH   2  17
TORSDOF 11
ENDMDL
MODEL 8
REMARK VINA RESULT:      -5.6      4.512      7.761
REMARK  Name = 57332106
REMARK  11 active torsions:
REMARK  status: ('A' for Active; 'I' for Inactive)
REMARK    1  A    between atoms: C_1  and  C_4
REMARK    2  A    between atoms: C_2  and  C_17
REMARK    3  A    between atoms: C_4  and  C_7
REMARK    4  A    between atoms: C_7  and  C_8
REMARK    5  A    between atoms: C_9  and  N_14
REMARK    6  A    between atoms: C_18  and  C_21
REMARK    7  A    between atoms: N_20  and  C_23
REMARK    8  A    between atoms: C_23  and  C_26
REMARK    9  A    between atoms: C_23  and  C_29
REMARK   10  A    between atoms: C_26  and  O_27
REMARK   11  A    between atoms: C_29  and  O_30
REMARK                            x       y       z     vdW  Elec       q    Type
REMARK                         _______ _______ _______ _____ _____    ______ ____
ROOT
ATOM      1  C   UNL     1     -37.200  25.226   3.887  0.00  0.00    -0.023 C 
ATOM      2  C   UNL     1     -37.532  25.911   2.771  0.00  0.00    -0.026 C 
ATOM      3  C   UNL     1     -36.526  26.379   1.752  0.00  0.00    +0.031 C 
ENDROOT
BRANCH   1   4
ATOM      4  C   UNL     1     -35.823  24.769   4.307  0.00  0.00    +0.084 C 
ATOM      5  C   UNL     1     -35.436  25.358   5.664  0.00  0.00    +0.013 C 
BRANCH   4   7
ATOM      6  O   UNL     1     -36.210  22.659   5.424  0.00  0.00    -0.291 OA
ATOM      7  C   UNL     1     -35.846  23.245   4.403  0.00  0.00    +0.177 C 
BRANCH   7   8
ATOM      8  C   UNL     1     -35.420  22.433   3.230  0.00  0.00    +0.035 C 
ATOM      9  C   UNL     1     -34.619  20.913   1.033  0.00  0.00    +0.048 C 
ATOM     10  C   UNL     1     -34.961  23.066   2.074  0.00  0.00    +0.004 C 
ATOM     11  C   UNL     1     -35.479  21.042   3.287  0.00  0.00    +0.004 C 
ATOM     12  C   UNL     1     -34.561  22.305   0.976  0.00  0.00    +0.015 C 
ATOM     13  C   UNL     1     -35.078  20.281   2.188  0.00  0.00    +0.015 C 
BRANCH   9  14
ATOM     14  N   UNL     1     -34.215  20.145  -0.079  0.00  0.00    -0.304 N 
ATOM     15  C   UNL     1     -33.209  20.650  -0.993  0.00  0.00    +0.112 C 
ATOM     16  C   UNL     1     -34.795  18.838  -0.319  0.00  0.00    +0.112 C 
ENDBRANCH   9  14
ENDBRANCH   7   8
ENDBRANCH   4   7
ENDBRANCH   1   4
BRANCH   2  17
ATOM     17  C   UNL     1     -38.942  26.238   2.539  0.00  0.00    +0.000 C 
ATOM     18  C   UNL     1     -40.001  25.582   3.038  0.00  0.00    +0.057 C 
BRANCH  18  21
ATOM     19  O   UNL     1     -42.044  25.541   1.803  0.00  0.00    -0.270 OA
ATOM     20  N   UNL     1     -41.799  27.059   3.545  0.00  0.00    -0.293 N 
ATOM     21  C   UNL     1     -41.383  26.036   2.711  0.00  0.00    +0.246 C 
ATOM     22  H   UNL     1     -41.183  27.378   4.243  0.00  0.00    +0.150 HD
BRANCH  20  23
ATOM     23  C   UNL     1     -43.101  27.680   3.437  0.00  0.00    +0.174 C 
ATOM     24  C   UNL     1     -44.176  26.598   3.588  0.00  0.00    +0.034 C 
BRANCH  23  26
ATOM     25  O   UNL     1     -42.328  29.306   5.074  0.00  0.00    -0.248 OA
ATOM     26  C   UNL     1     -43.269  28.714   4.556  0.00  0.00    +0.332 C 
BRANCH  26  27
ATOM     27  O   UNL     1     -44.544  28.878   4.987  0.00  0.00    -0.479 OA
ATOM     28  H   UNL     1     -44.947  29.722   4.946  0.00  0.00    +0.295 HD
ENDBRANCH  26  27
ENDBRANCH  23  26
BRANCH  23  29
ATOM     29  C   UNL     1     -43.198  28.405   2.085  0.00  0.00    +0.166 C 
BRANCH  29  30
ATOM     30  O   UNL     1     -42.334  29.533   2.043  0.00  0.00    -0.380 OA
ATOM     31  H   UNL     1     -41.412  29.238   2.107  0.00  0.00    +0.211 HD
ENDBRANCH  29  30
ENDBRANCH  23  29
ENDBRANCH  20  23
ENDBRANCH  18  21
ENDBRANCH   2  17
TORSDOF 11
ENDMDL
MODEL 9
REMARK VINA RESULT:      -5.6      7.526     11.788
REMARK  Name = 57332106
REMARK  11 active torsions:
REMARK  status: ('A' for Active; 'I' for Inactive)
REMARK    1  A    between atoms: C_1  and  C_4
REMARK    2  A    between atoms: C_2  and  C_17
REMARK    3  A    between atoms: C_4  and  C_7
REMARK    4  A    between atoms: C_7  and  C_8
REMARK    5  A    between atoms: C_9  and  N_14
REMARK    6  A    between atoms: C_18  and  C_21
REMARK    7  A    between atoms: N_20  and  C_23
REMARK    8  A    between atoms: C_23  and  C_26
REMARK    9  A    between atoms: C_23  and  C_29
REMARK   10  A    between atoms: C_26  and  O_27
REMARK   11  A    between atoms: C_29  and  O_30
REMARK                            x       y       z     vdW  Elec       q    Type
REMARK                         _______ _______ _______ _____ _____    ______ ____
ROOT
ATOM      1  C   UNL     1     -42.371  27.245   3.699  0.00  0.00    -0.023 C 
ATOM      2  C   UNL     1     -42.095  26.384   2.696  0.00  0.00    -0.026 C 
ATOM      3  C   UNL     1     -43.127  25.889   1.716  0.00  0.00    +0.031 C 
ENDROOT
BRANCH   1   4
ATOM      4  C   UNL     1     -43.699  27.897   4.009  0.00  0.00    +0.084 C 
ATOM      5  C   UNL     1     -44.598  26.960   4.816  0.00  0.00    +0.013 C 
BRANCH   4   7
ATOM      6  O   UNL     1     -42.319  29.384   5.325  0.00  0.00    -0.291 OA
ATOM      7  C   UNL     1     -43.421  29.159   4.823  0.00  0.00    +0.177 C 
BRANCH   7   8
ATOM      8  C   UNL     1     -44.510  30.156   5.017  0.00  0.00    +0.035 C 
ATOM      9  C   UNL     1     -46.550  32.023   5.382  0.00  0.00    +0.048 C 
ATOM     10  C   UNL     1     -45.485  30.325   4.033  0.00  0.00    +0.004 C 
ATOM     11  C   UNL     1     -44.554  30.921   6.181  0.00  0.00    +0.004 C 
ATOM     12  C   UNL     1     -46.505  31.258   4.216  0.00  0.00    +0.015 C 
ATOM     13  C   UNL     1     -45.575  31.855   6.364  0.00  0.00    +0.015 C 
BRANCH   9  14
ATOM     14  N   UNL     1     -47.581  32.967   5.564  0.00  0.00    -0.304 N 
ATOM     15  C   UNL     1     -48.548  33.211   4.512  0.00  0.00    +0.112 C 
ATOM     16  C   UNL     1     -47.694  33.700   6.810  0.00  0.00    +0.112 C 
ENDBRANCH   9  14
ENDBRANCH   7   8
ENDBRANCH   4   7
ENDBRANCH   1   4
BRANCH   2  17
ATOM     17  C   UNL     1     -40.725  25.884   2.554  0.00  0.00    +0.000 C 
ATOM     18  C   UNL     1     -40.157  24.909   3.282  0.00  0.00    +0.057 C 
BRANCH  18  21
ATOM     19  O   UNL     1     -38.425  23.808   2.063  0.00  0.00    -0.270 OA
ATOM     20  N   UNL     1     -37.881  25.008   3.977  0.00  0.00    -0.293 N 
ATOM     21  C   UNL     1     -38.746  24.506   3.021  0.00  0.00    +0.246 C 
ATOM     22  H   UNL     1     -38.251  25.559   4.704  0.00  0.00    +0.150 HD
BRANCH  20  23
ATOM     23  C   UNL     1     -36.456  24.760   3.955  0.00  0.00    +0.174 C 
ATOM     24  C   UNL     1     -35.866  25.394   2.692  0.00  0.00    +0.034 C 
BRANCH  23  26
ATOM     25  O   UNL     1     -34.815  24.940   5.743  0.00  0.00    -0.248 OA
ATOM     26  C   UNL     1     -35.808  25.399   5.188  0.00  0.00    +0.332 C 
BRANCH  26  27
ATOM     27  O   UNL     1     -36.462  26.483   5.672  0.00  0.00    -0.479 OA
ATOM     28  H   UNL     1     -36.205  27.343   5.404  0.00  0.00    +0.295 HD
ENDBRANCH  26  27
ENDBRANCH  23  26
BRANCH  23  29
ATOM     29  C   UNL     1     -36.213  23.243   4.008  0.00  0.00    +0.166 C 
BRANCH  29  30
ATOM     30  O   UNL     1     -36.360  22.743   5.331  0.00  0.00    -0.380 OA
ATOM     31  H   UNL     1     -36.572  23.475   5.931  0.00  0.00    +0.211 HD
ENDBRANCH  29  30
ENDBRANCH  23  29
ENDBRANCH  20  23
ENDBRANCH  18  21
ENDBRANCH   2  17
TORSDOF 11
ENDMDL
