MODEL 1
REMARK VINA RESULT:      -5.3      0.000      0.000
REMARK  Name = 54202706
REMARK  15 active torsions:
REMARK  status: ('A' for Active; 'I' for Inactive)
REMARK    1  A    between atoms: C_1  and  O_2
REMARK    2  A    between atoms: C_1  and  C_8
REMARK    3  A    between atoms: C_1  and  C_22
REMARK    4  A    between atoms: O_2  and  C_4
REMARK    5  A    between atoms: C_4  and  C_5
REMARK    6  A    between atoms: C_8  and  O_9
REMARK    7  A    between atoms: C_8  and  C_15
REMARK    8  A    between atoms: O_9  and  C_11
REMARK    9  A    between atoms: C_11  and  C_12
REMARK   10  A    between atoms: C_15  and  O_16
REMARK   11  A    between atoms: O_16  and  C_18
REMARK   12  A    between atoms: C_18  and  C_19
REMARK   13  A    between atoms: C_22  and  O_23
REMARK   14  A    between atoms: O_23  and  C_25
REMARK   15  A    between atoms: C_25  and  C_26
REMARK                            x       y       z     vdW  Elec       q    Type
REMARK                         _______ _______ _______ _____ _____    ______ ____
ROOT
ATOM      1  C   UNL     1     -33.639  26.886   4.337  0.00  0.00    +0.256 C 
ENDROOT
BRANCH   1   2
ATOM      2  O   UNL     1     -34.807  27.436   3.725  0.00  0.00    -0.442 OA
BRANCH   2   4
ATOM      3  O   UNL     1     -34.408  27.830   1.492  0.00  0.00    -0.245 OA
ATOM      4  C   UNL     1     -34.944  27.197   2.390  0.00  0.00    +0.337 C 
BRANCH   4   5
ATOM      5  C   UNL     1     -35.854  26.037   2.180  0.00  0.00    +0.054 C 
ATOM      6  C   UNL     1     -37.321  26.167   2.458  0.00  0.00    +0.038 C 
ATOM      7  C   UNL     1     -35.305  24.896   1.739  0.00  0.00    +0.002 C 
ENDBRANCH   4   5
ENDBRANCH   2   4
ENDBRANCH   1   2
BRANCH   1   8
ATOM      8  C   UNL     1     -32.621  27.994   4.637  0.00  0.00    +0.256 C 
BRANCH   8   9
ATOM      9  O   UNL     1     -33.242  29.267   4.444  0.00  0.00    -0.442 OA
BRANCH   9  11
ATOM     10  O   UNL     1     -31.506  29.978   3.110  0.00  0.00    -0.245 OA
ATOM     11  C   UNL     1     -32.651  30.082   3.527  0.00  0.00    +0.337 C 
BRANCH  11  12
ATOM     12  C   UNL     1     -33.615  31.134   3.097  0.00  0.00    +0.054 C 
ATOM     13  C   UNL     1     -35.089  30.908   3.229  0.00  0.00    +0.038 C 
ATOM     14  C   UNL     1     -33.103  32.269   2.598  0.00  0.00    +0.002 C 
ENDBRANCH  11  12
ENDBRANCH   9  11
ENDBRANCH   8   9
BRANCH   8  15
ATOM     15  C   UNL     1     -32.077  27.932   6.063  0.00  0.00    +0.256 C 
BRANCH  15  16
ATOM     16  O   UNL     1     -30.659  27.823   6.008  0.00  0.00    -0.442 OA
BRANCH  16  18
ATOM     17  O   UNL     1     -30.284  30.088   6.166  0.00  0.00    -0.245 OA
ATOM     18  C   UNL     1     -29.959  28.930   6.388  0.00  0.00    +0.337 C 
BRANCH  18  19
ATOM     19  C   UNL     1     -28.729  28.524   7.122  0.00  0.00    +0.054 C 
ATOM     20  C   UNL     1     -28.176  27.141   6.965  0.00  0.00    +0.038 C 
ATOM     21  C   UNL     1     -28.152  29.441   7.912  0.00  0.00    +0.002 C 
ENDBRANCH  18  19
ENDBRANCH  16  18
ENDBRANCH  15  16
ENDBRANCH   8  15
ENDBRANCH   1   8
BRANCH   1  22
ATOM     22  C   UNL     1     -34.086  26.159   5.605  0.00  0.00    +0.256 C 
BRANCH  22  23
ATOM     23  O   UNL     1     -34.221  24.771   5.317  0.00  0.00    -0.442 OA
BRANCH  23  25
ATOM     24  O   UNL     1     -36.509  24.924   5.518  0.00  0.00    -0.245 OA
ATOM     25  C   UNL     1     -35.486  24.266   5.385  0.00  0.00    +0.337 C 
BRANCH  25  26
ATOM     26  C   UNL     1     -35.446  22.781   5.274  0.00  0.00    +0.054 C 
ATOM     27  C   UNL     1     -35.656  22.117   3.947  0.00  0.00    +0.038 C 
ATOM     28  C   UNL     1     -35.217  22.086   6.397  0.00  0.00    +0.002 C 
ENDBRANCH  25  26
ENDBRANCH  23  25
ENDBRANCH  22  23
ENDBRANCH   1  22
TORSDOF 15
ENDMDL
MODEL 2
REMARK VINA RESULT:      -5.3      4.767      7.834
REMARK  Name = 54202706
REMARK  15 active torsions:
REMARK  status: ('A' for Active; 'I' for Inactive)
REMARK    1  A    between atoms: C_1  and  O_2
REMARK    2  A    between atoms: C_1  and  C_8
REMARK    3  A    between atoms: C_1  and  C_22
REMARK    4  A    between atoms: O_2  and  C_4
REMARK    5  A    between atoms: C_4  and  C_5
REMARK    6  A    between atoms: C_8  and  O_9
REMARK    7  A    between atoms: C_8  and  C_15
REMARK    8  A    between atoms: O_9  and  C_11
REMARK    9  A    between atoms: C_11  and  C_12
REMARK   10  A    between atoms: C_15  and  O_16
REMARK   11  A    between atoms: O_16  and  C_18
REMARK   12  A    between atoms: C_18  and  C_19
REMARK   13  A    between atoms: C_22  and  O_23
REMARK   14  A    between atoms: O_23  and  C_25
REMARK   15  A    between atoms: C_25  and  C_26
REMARK                            x       y       z     vdW  Elec       q    Type
REMARK                         _______ _______ _______ _____ _____    ______ ____
ROOT
ATOM      1  C   UNL     1     -37.182  22.959   2.534  0.00  0.00    +0.256 C 
ENDROOT
BRANCH   1   2
ATOM      2  O   UNL     1     -37.004  23.028   3.950  0.00  0.00    -0.442 OA
BRANCH   2   4
ATOM      3  O   UNL     1     -37.116  25.315   4.183  0.00  0.00    -0.245 OA
ATOM      4  C   UNL     1     -36.604  24.235   4.439  0.00  0.00    +0.337 C 
BRANCH   4   5
ATOM      5  C   UNL     1     -35.435  24.048   5.343  0.00  0.00    +0.054 C 
ATOM      6  C   UNL     1     -35.172  22.713   5.970  0.00  0.00    +0.038 C 
ATOM      7  C   UNL     1     -34.649  25.112   5.562  0.00  0.00    +0.002 C 
ENDBRANCH   4   5
ENDBRANCH   2   4
ENDBRANCH   1   2
BRANCH   1   8
ATOM      8  C   UNL     1     -36.062  22.126   1.895  0.00  0.00    +0.256 C 
BRANCH   8   9
ATOM      9  O   UNL     1     -34.818  22.810   2.059  0.00  0.00    -0.442 OA
BRANCH   9  11
ATOM     10  O   UNL     1     -34.181  23.195  -0.119  0.00  0.00    -0.245 OA
ATOM     11  C   UNL     1     -34.427  23.589   1.013  0.00  0.00    +0.337 C 
BRANCH  11  12
ATOM     12  C   UNL     1     -34.342  25.010   1.451  0.00  0.00    +0.054 C 
ATOM     13  C   UNL     1     -33.147  25.497   2.210  0.00  0.00    +0.038 C 
ATOM     14  C   UNL     1     -35.368  25.813   1.134  0.00  0.00    +0.002 C 
ENDBRANCH  11  12
ENDBRANCH   9  11
ENDBRANCH   8   9
BRANCH   8  15
ATOM     15  C   UNL     1     -35.934  20.733   2.509  0.00  0.00    +0.256 C 
BRANCH  15  16
ATOM     16  O   UNL     1     -34.614  20.252   2.281  0.00  0.00    -0.442 OA
BRANCH  16  18
ATOM     17  O   UNL     1     -35.350  18.987   0.505  0.00  0.00    -0.245 OA
ATOM     18  C   UNL     1     -34.450  19.452   1.188  0.00  0.00    +0.337 C 
BRANCH  18  19
ATOM     19  C   UNL     1     -32.999  19.225   0.941  0.00  0.00    +0.054 C 
ATOM     20  C   UNL     1     -32.184  20.254   0.219  0.00  0.00    +0.038 C 
ATOM     21  C   UNL     1     -32.470  18.077   1.389  0.00  0.00    +0.002 C 
ENDBRANCH  18  19
ENDBRANCH  16  18
ENDBRANCH  15  16
ENDBRANCH   8  15
ENDBRANCH   1   8
BRANCH   1  22
ATOM     22  C   UNL     1     -38.563  22.358   2.275  0.00  0.00    +0.256 C 
BRANCH  22  23
ATOM     23  O   UNL     1     -39.552  23.227   2.818  0.00  0.00    -0.442 OA
BRANCH  23  25
ATOM     24  O   UNL     1     -41.004  23.453   1.046  0.00  0.00    -0.245 OA
ATOM     25  C   UNL     1     -40.288  23.934   1.913  0.00  0.00    +0.337 C 
BRANCH  25  26
ATOM     26  C   UNL     1     -40.095  25.395   2.134  0.00  0.00    +0.054 C 
ATOM     27  C   UNL     1     -40.893  26.113   3.178  0.00  0.00    +0.038 C 
ATOM     28  C   UNL     1     -39.190  26.019   1.366  0.00  0.00    +0.002 C 
ENDBRANCH  25  26
ENDBRANCH  23  25
ENDBRANCH  22  23
ENDBRANCH   1  22
TORSDOF 15
ENDMDL
MODEL 3
REMARK VINA RESULT:      -5.2      1.970      4.269
REMARK  Name = 54202706
REMARK  15 active torsions:
REMARK  status: ('A' for Active; 'I' for Inactive)
REMARK    1  A    between atoms: C_1  and  O_2
REMARK    2  A    between atoms: C_1  and  C_8
REMARK    3  A    between atoms: C_1  and  C_22
REMARK    4  A    between atoms: O_2  and  C_4
REMARK    5  A    between atoms: C_4  and  C_5
REMARK    6  A    between atoms: C_8  and  O_9
REMARK    7  A    between atoms: C_8  and  C_15
REMARK    8  A    between atoms: O_9  and  C_11
REMARK    9  A    between atoms: C_11  and  C_12
REMARK   10  A    between atoms: C_15  and  O_16
REMARK   11  A    between atoms: O_16  and  C_18
REMARK   12  A    between atoms: C_18  and  C_19
REMARK   13  A    between atoms: C_22  and  O_23
REMARK   14  A    between atoms: O_23  and  C_25
REMARK   15  A    between atoms: C_25  and  C_26
REMARK                            x       y       z     vdW  Elec       q    Type
REMARK                         _______ _______ _______ _____ _____    ______ ____
ROOT
ATOM      1  C   UNL     1     -36.005  26.336   3.236  0.00  0.00    +0.256 C 
ENDROOT
BRANCH   1   2
ATOM      2  O   UNL     1     -35.357  25.127   3.634  0.00  0.00    -0.442 OA
BRANCH   2   4
ATOM      3  O   UNL     1     -35.870  25.411   5.860  0.00  0.00    -0.245 OA
ATOM      4  C   UNL     1     -35.631  24.696   4.898  0.00  0.00    +0.337 C 
BRANCH   4   5
ATOM      5  C   UNL     1     -35.596  23.208   4.939  0.00  0.00    +0.054 C 
ATOM      6  C   UNL     1     -35.808  22.412   3.687  0.00  0.00    +0.038 C 
ATOM      7  C   UNL     1     -35.371  22.629   6.128  0.00  0.00    +0.002 C 
ENDBRANCH   4   5
ENDBRANCH   2   4
ENDBRANCH   1   2
BRANCH   1   8
ATOM      8  C   UNL     1     -34.979  27.333   2.680  0.00  0.00    +0.256 C 
BRANCH   8   9
ATOM      9  O   UNL     1     -35.376  28.660   3.030  0.00  0.00    -0.442 OA
BRANCH   9  11
ATOM     10  O   UNL     1     -36.170  29.079   0.911  0.00  0.00    -0.245 OA
ATOM     11  C   UNL     1     -35.749  29.461   1.994  0.00  0.00    +0.337 C 
BRANCH  11  12
ATOM     12  C   UNL     1     -35.569  30.889   2.374  0.00  0.00    +0.054 C 
ATOM     13  C   UNL     1     -34.375  31.314   3.173  0.00  0.00    +0.038 C 
ATOM     14  C   UNL     1     -36.510  31.756   1.973  0.00  0.00    +0.002 C 
ENDBRANCH  11  12
ENDBRANCH   9  11
ENDBRANCH   8   9
BRANCH   8  15
ATOM     15  C   UNL     1     -33.568  27.092   3.213  0.00  0.00    +0.256 C 
BRANCH  15  16
ATOM     16  O   UNL     1     -33.292  28.052   4.228  0.00  0.00    -0.442 OA
BRANCH  16  18
ATOM     17  O   UNL     1     -31.001  27.851   4.150  0.00  0.00    -0.245 OA
ATOM     18  C   UNL     1     -32.042  28.005   4.772  0.00  0.00    +0.337 C 
BRANCH  18  19
ATOM     19  C   UNL     1     -32.127  28.170   6.249  0.00  0.00    +0.054 C 
ATOM     20  C   UNL     1     -32.749  27.102   7.096  0.00  0.00    +0.038 C 
ATOM     21  C   UNL     1     -31.627  29.299   6.772  0.00  0.00    +0.002 C 
ENDBRANCH  18  19
ENDBRANCH  16  18
ENDBRANCH  15  16
ENDBRANCH   8  15
ENDBRANCH   1   8
BRANCH   1  22
ATOM     22  C   UNL     1     -37.066  25.966   2.201  0.00  0.00    +0.256 C 
BRANCH  22  23
ATOM     23  O   UNL     1     -38.339  26.397   2.673  0.00  0.00    -0.442 OA
BRANCH  23  25
ATOM     24  O   UNL     1     -38.877  24.404   3.691  0.00  0.00    -0.245 OA
ATOM     25  C   UNL     1     -39.192  25.413   3.076  0.00  0.00    +0.337 C 
BRANCH  25  26
ATOM     26  C   UNL     1     -40.583  25.744   2.654  0.00  0.00    +0.054 C 
ATOM     27  C   UNL     1     -41.455  26.592   3.529  0.00  0.00    +0.038 C 
ATOM     28  C   UNL     1     -41.003  25.255   1.479  0.00  0.00    +0.002 C 
ENDBRANCH  25  26
ENDBRANCH  23  25
ENDBRANCH  22  23
ENDBRANCH   1  22
TORSDOF 15
ENDMDL
MODEL 4
REMARK VINA RESULT:      -5.2      1.687      3.641
REMARK  Name = 54202706
REMARK  15 active torsions:
REMARK  status: ('A' for Active; 'I' for Inactive)
REMARK    1  A    between atoms: C_1  and  O_2
REMARK    2  A    between atoms: C_1  and  C_8
REMARK    3  A    between atoms: C_1  and  C_22
REMARK    4  A    between atoms: O_2  and  C_4
REMARK    5  A    between atoms: C_4  and  C_5
REMARK    6  A    between atoms: C_8  and  O_9
REMARK    7  A    between atoms: C_8  and  C_15
REMARK    8  A    between atoms: O_9  and  C_11
REMARK    9  A    between atoms: C_11  and  C_12
REMARK   10  A    between atoms: C_15  and  O_16
REMARK   11  A    between atoms: O_16  and  C_18
REMARK   12  A    between atoms: C_18  and  C_19
REMARK   13  A    between atoms: C_22  and  O_23
REMARK   14  A    between atoms: O_23  and  C_25
REMARK   15  A    between atoms: C_25  and  C_26
REMARK                            x       y       z     vdW  Elec       q    Type
REMARK                         _______ _______ _______ _____ _____    ______ ____
ROOT
ATOM      1  C   UNL     1     -34.502  25.798   3.918  0.00  0.00    +0.256 C 
ENDROOT
BRANCH   1   2
ATOM      2  O   UNL     1     -34.465  24.724   4.859  0.00  0.00    -0.442 OA
BRANCH   2   4
ATOM      3  O   UNL     1     -36.731  24.675   5.261  0.00  0.00    -0.245 OA
ATOM      4  C   UNL     1     -35.657  24.112   5.108  0.00  0.00    +0.337 C 
BRANCH   4   5
ATOM      5  C   UNL     1     -35.460  22.637   5.167  0.00  0.00    +0.054 C 
ATOM      6  C   UNL     1     -35.498  21.818   3.913  0.00  0.00    +0.038 C 
ATOM      7  C   UNL     1     -35.252  22.091   6.375  0.00  0.00    +0.002 C 
ENDBRANCH   4   5
ENDBRANCH   2   4
ENDBRANCH   1   2
BRANCH   1   8
ATOM      8  C   UNL     1     -33.527  26.907   4.335  0.00  0.00    +0.256 C 
BRANCH   8   9
ATOM      9  O   UNL     1     -34.147  28.178   4.132  0.00  0.00    -0.442 OA
BRANCH   9  11
ATOM     10  O   UNL     1     -32.757  28.706   2.375  0.00  0.00    -0.245 OA
ATOM     11  C   UNL     1     -33.813  28.824   2.981  0.00  0.00    +0.337 C 
BRANCH  11  12
ATOM     12  C   UNL     1     -34.935  29.707   2.558  0.00  0.00    +0.054 C 
ATOM     13  C   UNL     1     -35.948  29.221   1.567  0.00  0.00    +0.038 C 
ATOM     14  C   UNL     1     -34.991  30.933   3.100  0.00  0.00    +0.002 C 
ENDBRANCH  11  12
ENDBRANCH   9  11
ENDBRANCH   8   9
BRANCH   8  15
ATOM     15  C   UNL     1     -33.100  26.803   5.798  0.00  0.00    +0.256 C 
BRANCH  15  16
ATOM     16  O   UNL     1     -32.633  28.077   6.230  0.00  0.00    -0.442 OA
BRANCH  16  18
ATOM     17  O   UNL     1     -30.388  27.571   6.260  0.00  0.00    -0.245 OA
ATOM     18  C   UNL     1     -31.311  28.334   6.013  0.00  0.00    +0.337 C 
BRANCH  18  19
ATOM     19  C   UNL     1     -31.150  29.692   5.425  0.00  0.00    +0.054 C 
ATOM     20  C   UNL     1     -32.102  30.791   5.785  0.00  0.00    +0.038 C 
ATOM     21  C   UNL     1     -30.131  29.877   4.573  0.00  0.00    +0.002 C 
ENDBRANCH  18  19
ENDBRANCH  16  18
ENDBRANCH  15  16
ENDBRANCH   8  15
ENDBRANCH   1   8
BRANCH   1  22
ATOM     22  C   UNL     1     -34.159  25.217   2.547  0.00  0.00    +0.256 C 
BRANCH  22  23
ATOM     23  O   UNL     1     -35.226  25.499   1.647  0.00  0.00    -0.442 OA
BRANCH  23  25
ATOM     24  O   UNL     1     -35.698  23.449   0.713  0.00  0.00    -0.245 OA
ATOM     25  C   UNL     1     -36.036  24.448   1.331  0.00  0.00    +0.337 C 
BRANCH  25  26
ATOM     26  C   UNL     1     -37.410  24.693   1.853  0.00  0.00    +0.054 C 
ATOM     27  C   UNL     1     -37.858  26.085   2.177  0.00  0.00    +0.038 C 
ATOM     28  C   UNL     1     -38.206  23.626   2.014  0.00  0.00    +0.002 C 
ENDBRANCH  25  26
ENDBRANCH  23  25
ENDBRANCH  22  23
ENDBRANCH   1  22
TORSDOF 15
ENDMDL
MODEL 5
REMARK VINA RESULT:      -5.2      1.784      6.532
REMARK  Name = 54202706
REMARK  15 active torsions:
REMARK  status: ('A' for Active; 'I' for Inactive)
REMARK    1  A    between atoms: C_1  and  O_2
REMARK    2  A    between atoms: C_1  and  C_8
REMARK    3  A    between atoms: C_1  and  C_22
REMARK    4  A    between atoms: O_2  and  C_4
REMARK    5  A    between atoms: C_4  and  C_5
REMARK    6  A    between atoms: C_8  and  O_9
REMARK    7  A    between atoms: C_8  and  C_15
REMARK    8  A    between atoms: O_9  and  C_11
REMARK    9  A    between atoms: C_11  and  C_12
REMARK   10  A    between atoms: C_15  and  O_16
REMARK   11  A    between atoms: O_16  and  C_18
REMARK   12  A    between atoms: C_18  and  C_19
REMARK   13  A    between atoms: C_22  and  O_23
REMARK   14  A    between atoms: O_23  and  C_25
REMARK   15  A    between atoms: C_25  and  C_26
REMARK                            x       y       z     vdW  Elec       q    Type
REMARK                         _______ _______ _______ _____ _____    ______ ____
ROOT
ATOM      1  C   UNL     1     -33.646  27.260   3.126  0.00  0.00    +0.256 C 
ENDROOT
BRANCH   1   2
ATOM      2  O   UNL     1     -32.482  27.859   2.553  0.00  0.00    -0.442 OA
BRANCH   2   4
ATOM      3  O   UNL     1     -31.294  25.893   2.412  0.00  0.00    -0.245 OA
ATOM      4  C   UNL     1     -31.350  27.102   2.582  0.00  0.00    +0.337 C 
BRANCH   4   5
ATOM      5  C   UNL     1     -30.172  27.972   2.855  0.00  0.00    +0.054 C 
ATOM      6  C   UNL     1     -28.858  27.365   3.241  0.00  0.00    +0.038 C 
ATOM      7  C   UNL     1     -30.345  29.297   2.738  0.00  0.00    +0.002 C 
ENDBRANCH   4   5
ENDBRANCH   2   4
ENDBRANCH   1   2
BRANCH   1   8
ATOM      8  C   UNL     1     -33.404  26.934   4.606  0.00  0.00    +0.256 C 
BRANCH   8   9
ATOM      9  O   UNL     1     -33.080  28.137   5.305  0.00  0.00    -0.442 OA
BRANCH   9  11
ATOM     10  O   UNL     1     -31.625  27.061   6.728  0.00  0.00    -0.245 OA
ATOM     11  C   UNL     1     -32.010  28.066   6.145  0.00  0.00    +0.337 C 
BRANCH  11  12
ATOM     12  C   UNL     1     -31.366  29.404   6.252  0.00  0.00    +0.054 C 
ATOM     13  C   UNL     1     -32.099  30.633   5.811  0.00  0.00    +0.038 C 
ATOM     14  C   UNL     1     -30.123  29.450   6.753  0.00  0.00    +0.002 C 
ENDBRANCH  11  12
ENDBRANCH   9  11
ENDBRANCH   8   9
BRANCH   8  15
ATOM     15  C   UNL     1     -34.617  26.294   5.278  0.00  0.00    +0.256 C 
BRANCH  15  16
ATOM     16  O   UNL     1     -34.538  24.882   5.118  0.00  0.00    -0.442 OA
BRANCH  16  18
ATOM     17  O   UNL     1     -36.822  24.748   4.873  0.00  0.00    -0.245 OA
ATOM     18  C   UNL     1     -35.728  24.223   5.024  0.00  0.00    +0.337 C 
BRANCH  18  19
ATOM     19  C   UNL     1     -35.504  22.755   5.131  0.00  0.00    +0.054 C 
ATOM     20  C   UNL     1     -35.532  21.893   3.906  0.00  0.00    +0.038 C 
ATOM     21  C   UNL     1     -35.281  22.253   6.355  0.00  0.00    +0.002 C 
ENDBRANCH  18  19
ENDBRANCH  16  18
ENDBRANCH  15  16
ENDBRANCH   8  15
ENDBRANCH   1   8
BRANCH   1  22
ATOM     22  C   UNL     1     -34.805  28.237   2.935  0.00  0.00    +0.256 C 
BRANCH  22  23
ATOM     23  O   UNL     1     -34.324  29.397   2.263  0.00  0.00    -0.442 OA
BRANCH  23  25
ATOM     24  O   UNL     1     -35.233  30.741   3.897  0.00  0.00    -0.245 OA
ATOM     25  C   UNL     1     -34.593  30.591   2.865  0.00  0.00    +0.337 C 
BRANCH  25  26
ATOM     26  C   UNL     1     -33.989  31.702   2.078  0.00  0.00    +0.054 C 
ATOM     27  C   UNL     1     -34.696  32.247   0.874  0.00  0.00    +0.038 C 
ATOM     28  C   UNL     1     -32.807  32.180   2.493  0.00  0.00    +0.002 C 
ENDBRANCH  25  26
ENDBRANCH  23  25
ENDBRANCH  22  23
ENDBRANCH   1  22
TORSDOF 15
ENDMDL
MODEL 6
REMARK VINA RESULT:      -5.2      1.491      7.175
REMARK  Name = 54202706
REMARK  15 active torsions:
REMARK  status: ('A' for Active; 'I' for Inactive)
REMARK    1  A    between atoms: C_1  and  O_2
REMARK    2  A    between atoms: C_1  and  C_8
REMARK    3  A    between atoms: C_1  and  C_22
REMARK    4  A    between atoms: O_2  and  C_4
REMARK    5  A    between atoms: C_4  and  C_5
REMARK    6  A    between atoms: C_8  and  O_9
REMARK    7  A    between atoms: C_8  and  C_15
REMARK    8  A    between atoms: O_9  and  C_11
REMARK    9  A    between atoms: C_11  and  C_12
REMARK   10  A    between atoms: C_15  and  O_16
REMARK   11  A    between atoms: O_16  and  C_18
REMARK   12  A    between atoms: C_18  and  C_19
REMARK   13  A    between atoms: C_22  and  O_23
REMARK   14  A    between atoms: O_23  and  C_25
REMARK   15  A    between atoms: C_25  and  C_26
REMARK                            x       y       z     vdW  Elec       q    Type
REMARK                         _______ _______ _______ _____ _____    ______ ____
ROOT
ATOM      1  C   UNL     1     -32.984  27.381   3.960  0.00  0.00    +0.256 C 
ENDROOT
BRANCH   1   2
ATOM      2  O   UNL     1     -33.184  28.125   5.162  0.00  0.00    -0.442 OA
BRANCH   2   4
ATOM      3  O   UNL     1     -32.313  26.889   6.897  0.00  0.00    -0.245 OA
ATOM      4  C   UNL     1     -32.303  27.871   6.170  0.00  0.00    +0.337 C 
BRANCH   4   5
ATOM      5  C   UNL     1     -31.311  28.978   6.260  0.00  0.00    +0.054 C 
ATOM      6  C   UNL     1     -29.844  28.677   6.300  0.00  0.00    +0.038 C 
ATOM      7  C   UNL     1     -31.789  30.231   6.301  0.00  0.00    +0.002 C 
ENDBRANCH   4   5
ENDBRANCH   2   4
ENDBRANCH   1   2
BRANCH   1   8
ATOM      8  C   UNL     1     -34.128  26.378   3.756  0.00  0.00    +0.256 C 
BRANCH   8   9
ATOM      9  O   UNL     1     -34.322  26.165   2.356  0.00  0.00    -0.442 OA
BRANCH   9  11
ATOM     10  O   UNL     1     -36.568  26.613   2.127  0.00  0.00    -0.245 OA
ATOM     11  C   UNL     1     -35.598  25.885   1.970  0.00  0.00    +0.337 C 
BRANCH  11  12
ATOM     12  C   UNL     1     -35.642  24.546   1.319  0.00  0.00    +0.054 C 
ATOM     13  C   UNL     1     -34.375  23.864   0.906  0.00  0.00    +0.038 C 
ATOM     14  C   UNL     1     -36.850  23.996   1.127  0.00  0.00    +0.002 C 
ENDBRANCH  11  12
ENDBRANCH   9  11
ENDBRANCH   8   9
BRANCH   8  15
ATOM     15  C   UNL     1     -33.860  25.029   4.420  0.00  0.00    +0.256 C 
BRANCH  15  16
ATOM     16  O   UNL     1     -34.835  24.815   5.434  0.00  0.00    -0.442 OA
BRANCH  16  18
ATOM     17  O   UNL     1     -37.009  24.472   4.762  0.00  0.00    -0.245 OA
ATOM     18  C   UNL     1     -35.907  24.049   5.081  0.00  0.00    +0.337 C 
BRANCH  18  19
ATOM     19  C   UNL     1     -35.541  22.607   5.141  0.00  0.00    +0.054 C 
ATOM     20  C   UNL     1     -35.525  21.779   3.892  0.00  0.00    +0.038 C 
ATOM     21  C   UNL     1     -35.234  22.098   6.343  0.00  0.00    +0.002 C 
ENDBRANCH  18  19
ENDBRANCH  16  18
ENDBRANCH  15  16
ENDBRANCH   8  15
ENDBRANCH   1   8
BRANCH   1  22
ATOM     22  C   UNL     1     -32.888  28.383   2.811  0.00  0.00    +0.256 C 
BRANCH  22  23
ATOM     23  O   UNL     1     -33.317  29.659   3.276  0.00  0.00    -0.442 OA
BRANCH  23  25
ATOM     24  O   UNL     1     -35.396  29.652   2.288  0.00  0.00    -0.245 OA
ATOM     25  C   UNL     1     -34.360  30.222   2.602  0.00  0.00    +0.337 C 
BRANCH  25  26
ATOM     26  C   UNL     1     -34.056  31.648   2.296  0.00  0.00    +0.054 C 
ATOM     27  C   UNL     1     -32.731  32.236   2.675  0.00  0.00    +0.038 C 
ATOM     28  C   UNL     1     -35.007  32.361   1.676  0.00  0.00    +0.002 C 
ENDBRANCH  25  26
ENDBRANCH  23  25
ENDBRANCH  22  23
ENDBRANCH   1  22
TORSDOF 15
ENDMDL
MODEL 7
REMARK VINA RESULT:      -5.2      1.684      5.374
REMARK  Name = 54202706
REMARK  15 active torsions:
REMARK  status: ('A' for Active; 'I' for Inactive)
REMARK    1  A    between atoms: C_1  and  O_2
REMARK    2  A    between atoms: C_1  and  C_8
REMARK    3  A    between atoms: C_1  and  C_22
REMARK    4  A    between atoms: O_2  and  C_4
REMARK    5  A    between atoms: C_4  and  C_5
REMARK    6  A    between atoms: C_8  and  O_9
REMARK    7  A    between atoms: C_8  and  C_15
REMARK    8  A    between atoms: O_9  and  C_11
REMARK    9  A    between atoms: C_11  and  C_12
REMARK   10  A    between atoms: C_15  and  O_16
REMARK   11  A    between atoms: O_16  and  C_18
REMARK   12  A    between atoms: C_18  and  C_19
REMARK   13  A    between atoms: C_22  and  O_23
REMARK   14  A    between atoms: O_23  and  C_25
REMARK   15  A    between atoms: C_25  and  C_26
REMARK                            x       y       z     vdW  Elec       q    Type
REMARK                         _______ _______ _______ _____ _____    ______ ____
ROOT
ATOM      1  C   UNL     1     -33.880  26.865   4.569  0.00  0.00    +0.256 C 
ENDROOT
BRANCH   1   2
ATOM      2  O   UNL     1     -32.523  27.147   4.913  0.00  0.00    -0.442 OA
BRANCH   2   4
ATOM      3  O   UNL     1     -32.838  27.130   7.194  0.00  0.00    -0.245 OA
ATOM      4  C   UNL     1     -32.312  27.583   6.187  0.00  0.00    +0.337 C 
BRANCH   4   5
ATOM      5  C   UNL     1     -31.335  28.707   6.177  0.00  0.00    +0.054 C 
ATOM      6  C   UNL     1     -29.950  28.500   5.644  0.00  0.00    +0.038 C 
ATOM      7  C   UNL     1     -31.750  29.888   6.659  0.00  0.00    +0.002 C 
ENDBRANCH   4   5
ENDBRANCH   2   4
ENDBRANCH   1   2
BRANCH   1   8
ATOM      8  C   UNL     1     -34.345  27.786   3.432  0.00  0.00    +0.256 C 
BRANCH   8   9
ATOM      9  O   UNL     1     -33.245  28.591   3.002  0.00  0.00    -0.442 OA
BRANCH   9  11
ATOM     10  O   UNL     1     -34.190  30.436   4.002  0.00  0.00    -0.245 OA
ATOM     11  C   UNL     1     -33.313  29.911   3.329  0.00  0.00    +0.337 C 
BRANCH  11  12
ATOM     12  C   UNL     1     -32.151  30.634   2.742  0.00  0.00    +0.054 C 
ATOM     13  C   UNL     1     -32.182  32.124   2.596  0.00  0.00    +0.038 C 
ATOM     14  C   UNL     1     -31.097  29.896   2.361  0.00  0.00    +0.002 C 
ENDBRANCH  11  12
ENDBRANCH   9  11
ENDBRANCH   8   9
BRANCH   8  15
ATOM     15  C   UNL     1     -34.882  27.015   2.228  0.00  0.00    +0.256 C 
BRANCH  15  16
ATOM     16  O   UNL     1     -35.027  27.916   1.135  0.00  0.00    -0.442 OA
BRANCH  16  18
ATOM     17  O   UNL     1     -37.300  28.229   1.312  0.00  0.00    -0.245 OA
ATOM     18  C   UNL     1     -36.172  28.658   1.120  0.00  0.00    +0.337 C 
BRANCH  18  19
ATOM     19  C   UNL     1     -35.847  30.083   0.833  0.00  0.00    +0.054 C 
ATOM     20  C   UNL     1     -36.576  31.182   1.544  0.00  0.00    +0.038 C 
ATOM     21  C   UNL     1     -34.890  30.327  -0.073  0.00  0.00    +0.002 C 
ENDBRANCH  18  19
ENDBRANCH  16  18
ENDBRANCH  15  16
ENDBRANCH   8  15
ENDBRANCH   1   8
BRANCH   1  22
ATOM     22  C   UNL     1     -33.958  25.390   4.182  0.00  0.00    +0.256 C 
BRANCH  22  23
ATOM     23  O   UNL     1     -34.478  24.651   5.283  0.00  0.00    -0.442 OA
BRANCH  23  25
ATOM     24  O   UNL     1     -36.747  24.631   4.896  0.00  0.00    -0.245 OA
ATOM     25  C   UNL     1     -35.686  24.051   5.083  0.00  0.00    +0.337 C 
BRANCH  25  26
ATOM     26  C   UNL     1     -35.530  22.570   5.127  0.00  0.00    +0.054 C 
ATOM     27  C   UNL     1     -35.531  21.773   3.859  0.00  0.00    +0.038 C 
ATOM     28  C   UNL     1     -35.392  22.001   6.333  0.00  0.00    +0.002 C 
ENDBRANCH  25  26
ENDBRANCH  23  25
ENDBRANCH  22  23
ENDBRANCH   1  22
TORSDOF 15
ENDMDL
MODEL 8
REMARK VINA RESULT:      -5.1      3.738      7.819
REMARK  Name = 54202706
REMARK  15 active torsions:
REMARK  status: ('A' for Active; 'I' for Inactive)
REMARK    1  A    between atoms: C_1  and  O_2
REMARK    2  A    between atoms: C_1  and  C_8
REMARK    3  A    between atoms: C_1  and  C_22
REMARK    4  A    between atoms: O_2  and  C_4
REMARK    5  A    between atoms: C_4  and  C_5
REMARK    6  A    between atoms: C_8  and  O_9
REMARK    7  A    between atoms: C_8  and  C_15
REMARK    8  A    between atoms: O_9  and  C_11
REMARK    9  A    between atoms: C_11  and  C_12
REMARK   10  A    between atoms: C_15  and  O_16
REMARK   11  A    between atoms: O_16  and  C_18
REMARK   12  A    between atoms: C_18  and  C_19
REMARK   13  A    between atoms: C_22  and  O_23
REMARK   14  A    between atoms: O_23  and  C_25
REMARK   15  A    between atoms: C_25  and  C_26
REMARK                            x       y       z     vdW  Elec       q    Type
REMARK                         _______ _______ _______ _____ _____    ______ ____
ROOT
ATOM      1  C   UNL     1     -35.262  23.197   2.404  0.00  0.00    +0.256 C 
ENDROOT
BRANCH   1   2
ATOM      2  O   UNL     1     -35.711  24.400   1.779  0.00  0.00    -0.442 OA
BRANCH   2   4
ATOM      3  O   UNL     1     -33.650  25.425   1.850  0.00  0.00    -0.245 OA
ATOM      4  C   UNL     1     -34.872  25.470   1.881  0.00  0.00    +0.337 C 
BRANCH   4   5
ATOM      5  C   UNL     1     -35.668  26.718   2.039  0.00  0.00    +0.054 C 
ATOM      6  C   UNL     1     -35.002  27.992   2.459  0.00  0.00    +0.038 C 
ATOM      7  C   UNL     1     -36.984  26.644   1.790  0.00  0.00    +0.002 C 
ENDBRANCH   4   5
ENDBRANCH   2   4
ENDBRANCH   1   2
BRANCH   1   8
ATOM      8  C   UNL     1     -36.349  22.644   3.336  0.00  0.00    +0.256 C 
BRANCH   8   9
ATOM      9  O   UNL     1     -36.598  23.588   4.380  0.00  0.00    -0.442 OA
BRANCH   9  11
ATOM     10  O   UNL     1     -34.983  22.867   5.853  0.00  0.00    -0.245 OA
ATOM     11  C   UNL     1     -35.588  23.761   5.277  0.00  0.00    +0.337 C 
BRANCH  11  12
ATOM     12  C   UNL     1     -35.321  25.215   5.458  0.00  0.00    +0.054 C 
ATOM     13  C   UNL     1     -33.916  25.714   5.596  0.00  0.00    +0.038 C 
ATOM     14  C   UNL     1     -36.381  26.035   5.488  0.00  0.00    +0.002 C 
ENDBRANCH  11  12
ENDBRANCH   9  11
ENDBRANCH   8   9
BRANCH   8  15
ATOM     15  C   UNL     1     -37.665  22.362   2.613  0.00  0.00    +0.256 C 
BRANCH  15  16
ATOM     16  O   UNL     1     -38.625  23.332   3.017  0.00  0.00    -0.442 OA
BRANCH  16  18
ATOM     17  O   UNL     1     -40.393  22.408   1.869  0.00  0.00    -0.245 OA
ATOM     18  C   UNL     1     -39.774  23.378   2.282  0.00  0.00    +0.337 C 
BRANCH  18  19
ATOM     19  C   UNL     1     -40.172  24.794   2.052  0.00  0.00    +0.054 C 
ATOM     20  C   UNL     1     -40.360  25.311   0.659  0.00  0.00    +0.038 C 
ATOM     21  C   UNL     1     -40.349  25.567   3.133  0.00  0.00    +0.002 C 
ENDBRANCH  18  19
ENDBRANCH  16  18
ENDBRANCH  15  16
ENDBRANCH   8  15
ENDBRANCH   1   8
BRANCH   1  22
ATOM     22  C   UNL     1     -34.901  22.211   1.295  0.00  0.00    +0.256 C 
BRANCH  22  23
ATOM     23  O   UNL     1     -34.556  20.961   1.883  0.00  0.00    -0.442 OA
BRANCH  23  25
ATOM     24  O   UNL     1     -35.478  19.392   0.474  0.00  0.00    -0.245 OA
ATOM     25  C   UNL     1     -34.515  19.893   1.037  0.00  0.00    +0.337 C 
BRANCH  25  26
ATOM     26  C   UNL     1     -33.111  19.414   0.893  0.00  0.00    +0.054 C 
ATOM     27  C   UNL     1     -32.104  20.239   0.151  0.00  0.00    +0.038 C 
ATOM     28  C   UNL     1     -32.802  18.234   1.449  0.00  0.00    +0.002 C 
ENDBRANCH  25  26
ENDBRANCH  23  25
ENDBRANCH  22  23
ENDBRANCH   1  22
TORSDOF 15
ENDMDL
MODEL 9
REMARK VINA RESULT:      -5.1      4.901      7.990
REMARK  Name = 54202706
REMARK  15 active torsions:
REMARK  status: ('A' for Active; 'I' for Inactive)
REMARK    1  A    between atoms: C_1  and  O_2
REMARK    2  A    between atoms: C_1  and  C_8
REMARK    3  A    between atoms: C_1  and  C_22
REMARK    4  A    between atoms: O_2  and  C_4
REMARK    5  A    between atoms: C_4  and  C_5
REMARK    6  A    between atoms: C_8  and  O_9
REMARK    7  A    between atoms: C_8  and  C_15
REMARK    8  A    between atoms: O_9  and  C_11
REMARK    9  A    between atoms: C_11  and  C_12
REMARK   10  A    between atoms: C_15  and  O_16
REMARK   11  A    between atoms: O_16  and  C_18
REMARK   12  A    between atoms: C_18  and  C_19
REMARK   13  A    between atoms: C_22  and  O_23
REMARK   14  A    between atoms: O_23  and  C_25
REMARK   15  A    between atoms: C_25  and  C_26
REMARK                            x       y       z     vdW  Elec       q    Type
REMARK                         _______ _______ _______ _____ _____    ______ ____
ROOT
ATOM      1  C   UNL     1     -37.461  22.956   2.452  0.00  0.00    +0.256 C 
ENDROOT
BRANCH   1   2
ATOM      2  O   UNL     1     -38.301  23.905   3.111  0.00  0.00    -0.442 OA
BRANCH   2   4
ATOM      3  O   UNL     1     -37.438  26.003   2.723  0.00  0.00    -0.245 OA
ATOM      4  C   UNL     1     -38.310  25.159   2.578  0.00  0.00    +0.337 C 
BRANCH   4   5
ATOM      5  C   UNL     1     -39.553  25.357   1.781  0.00  0.00    +0.054 C 
ATOM      6  C   UNL     1     -39.521  26.163   0.519  0.00  0.00    +0.038 C 
ATOM      7  C   UNL     1     -40.677  24.787   2.242  0.00  0.00    +0.002 C 
ENDBRANCH   4   5
ENDBRANCH   2   4
ENDBRANCH   1   2
BRANCH   1   8
ATOM      8  C   UNL     1     -36.230  22.645   3.314  0.00  0.00    +0.256 C 
BRANCH   8   9
ATOM      9  O   UNL     1     -36.550  22.867   4.689  0.00  0.00    -0.442 OA
BRANCH   9  11
ATOM     10  O   UNL     1     -34.976  22.429   6.310  0.00  0.00    -0.245 OA
ATOM     11  C   UNL     1     -35.502  23.180   5.499  0.00  0.00    +0.337 C 
BRANCH  11  12
ATOM     12  C   UNL     1     -35.079  24.587   5.253  0.00  0.00    +0.054 C 
ATOM     13  C   UNL     1     -35.949  25.724   5.690  0.00  0.00    +0.038 C 
ATOM     14  C   UNL     1     -33.905  24.776   4.634  0.00  0.00    +0.002 C 
ENDBRANCH  11  12
ENDBRANCH   9  11
ENDBRANCH   8   9
BRANCH   8  15
ATOM     15  C   UNL     1     -35.744  21.205   3.157  0.00  0.00    +0.256 C 
BRANCH  15  16
ATOM     16  O   UNL     1     -34.792  21.156   2.099  0.00  0.00    -0.442 OA
BRANCH  16  18
ATOM     17  O   UNL     1     -35.815  19.426   0.978  0.00  0.00    -0.245 OA
ATOM     18  C   UNL     1     -34.812  20.030   1.329  0.00  0.00    +0.337 C 
BRANCH  18  19
ATOM     19  C   UNL     1     -33.421  19.638   0.970  0.00  0.00    +0.054 C 
ATOM     20  C   UNL     1     -32.860  18.329   1.437  0.00  0.00    +0.038 C 
ATOM     21  C   UNL     1     -32.712  20.496   0.224  0.00  0.00    +0.002 C 
ENDBRANCH  18  19
ENDBRANCH  16  18
ENDBRANCH  15  16
ENDBRANCH   8  15
ENDBRANCH   1   8
BRANCH   1  22
ATOM     22  C   UNL     1     -38.302  21.710   2.181  0.00  0.00    +0.256 C 
BRANCH  22  23
ATOM     23  O   UNL     1     -38.568  21.628   0.784  0.00  0.00    -0.442 OA
BRANCH  23  25
ATOM     24  O   UNL     1     -40.755  20.928   0.943  0.00  0.00    -0.245 OA
ATOM     25  C   UNL     1     -39.883  21.612   0.426  0.00  0.00    +0.337 C 
BRANCH  25  26
ATOM     26  C   UNL     1     -40.112  22.560  -0.701  0.00  0.00    +0.054 C 
ATOM     27  C   UNL     1     -38.955  23.080  -1.498  0.00  0.00    +0.038 C 
ATOM     28  C   UNL     1     -41.379  22.914  -0.959  0.00  0.00    +0.002 C 
ENDBRANCH  25  26
ENDBRANCH  23  25
ENDBRANCH  22  23
ENDBRANCH   1  22
TORSDOF 15
ENDMDL
