MODEL 1
REMARK VINA RESULT:      -6.6      0.000      0.000
REMARK  Name = 52936986
REMARK  7 active torsions:
REMARK  status: ('A' for Active; 'I' for Inactive)
REMARK    1  A    between atoms: N_2  and  CA_5
REMARK    2  A    between atoms: C_3  and  C_18
REMARK    3  A    between atoms: CA_5  and  C_7
REMARK    4  A    between atoms: CA_5  and  CB_10
REMARK    5  A    between atoms: C_7  and  O_8
REMARK    6  A    between atoms: CB_10  and  CG_13
REMARK    7  A    between atoms: C_18  and  C_21
REMARK                            x       y       z     vdW  Elec       q    Type
REMARK                         _______ _______ _______ _____ _____    ______ ____
ROOT
ATOM      1  O   UNL     1     -35.643  21.580   3.524  0.00  0.00    -0.275 OA
ATOM      2  N   UNL     1     -37.339  21.425   1.946  0.00  0.00    -0.296 N 
ATOM      3  C   ACE A   0     -36.125  21.069   2.516  0.00  0.00    +0.227 C 
ATOM      4  H   UNL     1     -37.636  20.953   1.136  0.00  0.00    +0.150 HD
ENDROOT
BRANCH   2   5
ATOM      5  CA  UNL     1     -38.182  22.463   2.494  0.00  0.00    +0.177 C 
BRANCH   5   7
ATOM      6  OXT UNL     1     -40.395  23.157   1.809  0.00  0.00    -0.248 OA
ATOM      7  C   UNL     1     -39.638  22.241   2.116  0.00  0.00    +0.332 C 
BRANCH   7   8
ATOM      8  O   UNL     1     -40.043  20.949   2.139  0.00  0.00    -0.479 OA
ATOM      9  H   UNL     1     -39.732  20.373   2.810  0.00  0.00    +0.295 HD
ENDBRANCH   7   8
ENDBRANCH   5   7
BRANCH   5  10
ATOM     10  CB  UNL     1     -37.725  23.850   2.027  0.00  0.00    +0.073 C 
BRANCH  10  13
ATOM     11  ND1 UNL     1     -36.834  24.199   4.363  0.00  0.00    -0.319 N 
ATOM     12  NE2 UNL     1     -36.517  26.393   4.508  0.00  0.00    -0.315 N 
ATOM     13  CG  UNL     1     -37.211  24.712   3.155  0.00  0.00    +0.040 C 
ATOM     14  CD2 UNL     1     -37.007  26.067   3.267  0.00  0.00    +0.069 C 
ATOM     15  CE1 UNL     1     -36.424  25.246   5.144  0.00  0.00    +0.182 C 
ATOM     16  HD1 UNL     1     -36.853  23.250   4.626  0.00  0.00    +0.148 HD
ATOM     17  HE2 UNL     1     -36.286  27.288   4.847  0.00  0.00    +0.148 HD
ENDBRANCH  10  13
ENDBRANCH   5  10
ENDBRANCH   2   5
BRANCH   3  18
ATOM     18  C   UNL     1     -35.427  19.945   1.753  0.00  0.00    +0.113 C 
BRANCH  18  21
ATOM     19 BR   UNL     1     -28.731  18.075  -0.266  0.00  0.00    -0.049 Br
ATOM     20  N   UNL     1     -32.802  21.575  -0.192  0.00  0.00    -0.312 N 
ATOM     21  C   UNL     1     -34.218  20.368   1.017  0.00  0.00    +0.003 C 
ATOM     22  C   UNL     1     -33.019  19.619   0.857  0.00  0.00    +0.011 C 
ATOM     23  C   UNL     1     -32.147  20.400   0.095  0.00  0.00    +0.049 C 
ATOM     24  C   UNL     1     -34.054  21.566   0.361  0.00  0.00    +0.058 C 
ATOM     25  C   UNL     1     -32.590  18.348   1.290  0.00  0.00    +0.001 C 
ATOM     26  C   UNL     1     -30.862  19.971  -0.258  0.00  0.00    +0.021 C 
ATOM     27  C   UNL     1     -31.308  17.907   0.943  0.00  0.00    +0.007 C 
ATOM     28  C   UNL     1     -30.459  18.706   0.182  0.00  0.00    +0.036 C 
ATOM     29  H   UNL     1     -32.424  22.316  -0.719  0.00  0.00    +0.152 HD
ENDBRANCH  18  21
ENDBRANCH   3  18
TORSDOF 7
ENDMDL
MODEL 2
REMARK VINA RESULT:      -6.4      2.696      3.418
REMARK  Name = 52936986
REMARK  7 active torsions:
REMARK  status: ('A' for Active; 'I' for Inactive)
REMARK    1  A    between atoms: N_2  and  CA_5
REMARK    2  A    between atoms: C_3  and  C_18
REMARK    3  A    between atoms: CA_5  and  C_7
REMARK    4  A    between atoms: CA_5  and  CB_10
REMARK    5  A    between atoms: C_7  and  O_8
REMARK    6  A    between atoms: CB_10  and  CG_13
REMARK    7  A    between atoms: C_18  and  C_21
REMARK                            x       y       z     vdW  Elec       q    Type
REMARK                         _______ _______ _______ _____ _____    ______ ____
ROOT
ATOM      1  O   UNL     1     -34.374  23.787   1.911  0.00  0.00    -0.275 OA
ATOM      2  N   UNL     1     -35.660  22.397   3.255  0.00  0.00    -0.296 N 
ATOM      3  C   ACE A   0     -35.195  22.882   2.040  0.00  0.00    +0.227 C 
ATOM      4  H   UNL     1     -36.320  21.667   3.250  0.00  0.00    +0.150 HD
ENDROOT
BRANCH   2   5
ATOM      5  CA  UNL     1     -35.215  22.924   4.524  0.00  0.00    +0.177 C 
BRANCH   5   7
ATOM      6  OXT UNL     1     -35.913  22.239   6.737  0.00  0.00    -0.248 OA
ATOM      7  C   UNL     1     -35.451  21.922   5.645  0.00  0.00    +0.332 C 
BRANCH   7   8
ATOM      8  O   UNL     1     -35.116  20.644   5.347  0.00  0.00    -0.479 OA
ATOM      9  H   UNL     1     -34.228  20.430   5.139  0.00  0.00    +0.295 HD
ENDBRANCH   7   8
ENDBRANCH   5   7
BRANCH   5  10
ATOM     10  CB  UNL     1     -35.916  24.249   4.850  0.00  0.00    +0.073 C 
BRANCH  10  13
ATOM     11  ND1 UNL     1     -34.636  26.150   3.791  0.00  0.00    -0.319 N 
ATOM     12  NE2 UNL     1     -33.516  27.064   5.478  0.00  0.00    -0.315 N 
ATOM     13  CG  UNL     1     -34.966  25.421   4.898  0.00  0.00    +0.040 C 
ATOM     14  CD2 UNL     1     -34.262  26.002   5.927  0.00  0.00    +0.069 C 
ATOM     15  CE1 UNL     1     -33.763  27.126   4.188  0.00  0.00    +0.182 C 
ATOM     16  HD1 UNL     1     -34.966  26.002   2.875  0.00  0.00    +0.148 HD
ATOM     17  HE2 UNL     1     -32.926  27.649   6.006  0.00  0.00    +0.148 HD
ENDBRANCH  10  13
ENDBRANCH   5  10
ENDBRANCH   2   5
BRANCH   3  18
ATOM     18  C   UNL     1     -35.814  22.159   0.846  0.00  0.00    +0.113 C 
BRANCH  18  21
ATOM     19 BR   UNL     1     -30.518  17.280   0.111  0.00  0.00    -0.049 Br
ATOM     20  N   UNL     1     -35.705  18.511   0.737  0.00  0.00    -0.312 N 
ATOM     21  C   UNL     1     -35.491  20.720   0.771  0.00  0.00    +0.003 C 
ATOM     22  C   UNL     1     -34.198  20.150   0.608  0.00  0.00    +0.011 C 
ATOM     23  C   UNL     1     -34.361  18.762   0.590  0.00  0.00    +0.049 C 
ATOM     24  C   UNL     1     -36.397  19.687   0.847  0.00  0.00    +0.058 C 
ATOM     25  C   UNL     1     -32.900  20.682   0.473  0.00  0.00    +0.001 C 
ATOM     26  C   UNL     1     -33.286  17.878   0.443  0.00  0.00    +0.021 C 
ATOM     27  C   UNL     1     -31.816  19.809   0.327  0.00  0.00    +0.007 C 
ATOM     28  C   UNL     1     -32.008  18.429   0.312  0.00  0.00    +0.036 C 
ATOM     29  H   UNL     1     -36.112  17.615   0.759  0.00  0.00    +0.152 HD
ENDBRANCH  18  21
ENDBRANCH   3  18
TORSDOF 7
ENDMDL
MODEL 3
REMARK VINA RESULT:      -6.4      2.512      3.086
REMARK  Name = 52936986
REMARK  7 active torsions:
REMARK  status: ('A' for Active; 'I' for Inactive)
REMARK    1  A    between atoms: N_2  and  CA_5
REMARK    2  A    between atoms: C_3  and  C_18
REMARK    3  A    between atoms: CA_5  and  C_7
REMARK    4  A    between atoms: CA_5  and  CB_10
REMARK    5  A    between atoms: C_7  and  O_8
REMARK    6  A    between atoms: CB_10  and  CG_13
REMARK    7  A    between atoms: C_18  and  C_21
REMARK                            x       y       z     vdW  Elec       q    Type
REMARK                         _______ _______ _______ _____ _____    ______ ____
ROOT
ATOM      1  O   UNL     1     -34.438  23.136   1.490  0.00  0.00    -0.275 OA
ATOM      2  N   UNL     1     -35.354  21.684   3.052  0.00  0.00    -0.296 N 
ATOM      3  C   ACE A   0     -34.867  22.028   1.799  0.00  0.00    +0.227 C 
ATOM      4  H   UNL     1     -35.676  20.766   3.198  0.00  0.00    +0.150 HD
ENDROOT
BRANCH   2   5
ATOM      5  CA  UNL     1     -35.409  22.622   4.149  0.00  0.00    +0.177 C 
BRANCH   5   7
ATOM      6  OXT UNL     1     -35.950  22.436   6.500  0.00  0.00    -0.248 OA
ATOM      7  C   UNL     1     -35.522  21.898   5.483  0.00  0.00    +0.332 C 
BRANCH   7   8
ATOM      8  O   UNL     1     -35.118  20.606   5.466  0.00  0.00    -0.479 OA
ATOM      9  H   UNL     1     -35.023  20.156   4.649  0.00  0.00    +0.295 HD
ENDBRANCH   7   8
ENDBRANCH   5   7
BRANCH   5  10
ATOM     10  CB  UNL     1     -36.580  23.599   3.984  0.00  0.00    +0.073 C 
BRANCH  10  13
ATOM     11  ND1 UNL     1     -35.820  25.681   2.773  0.00  0.00    -0.319 N 
ATOM     12  NE2 UNL     1     -35.543  27.183   4.386  0.00  0.00    -0.315 N 
ATOM     13  CG  UNL     1     -36.140  25.043   3.938  0.00  0.00    +0.040 C 
ATOM     14  CD2 UNL     1     -35.960  25.989   4.920  0.00  0.00    +0.069 C 
ATOM     15  CE1 UNL     1     -35.467  26.964   3.092  0.00  0.00    +0.182 C 
ATOM     16  HD1 UNL     1     -35.839  25.290   1.870  0.00  0.00    +0.148 HD
ATOM     17  HE2 UNL     1     -35.343  28.019   4.867  0.00  0.00    +0.148 HD
ENDBRANCH  10  13
ENDBRANCH   5  10
ENDBRANCH   2   5
BRANCH   3  18
ATOM     18  C   UNL     1     -34.911  20.861   0.814  0.00  0.00    +0.113 C 
BRANCH  18  21
ATOM     19 BR   UNL     1     -28.048  20.390  -1.440  0.00  0.00    -0.049 Br
ATOM     20  N   UNL     1     -32.282  18.351   1.156  0.00  0.00    -0.312 N 
ATOM     21  C   UNL     1     -33.692  20.028   0.801  0.00  0.00    +0.003 C 
ATOM     22  C   UNL     1     -32.452  20.351   0.183  0.00  0.00    +0.011 C 
ATOM     23  C   UNL     1     -31.585  19.282   0.421  0.00  0.00    +0.049 C 
ATOM     24  C   UNL     1     -33.556  18.792   1.391  0.00  0.00    +0.058 C 
ATOM     25  C   UNL     1     -31.982  21.453  -0.559  0.00  0.00    +0.001 C 
ATOM     26  C   UNL     1     -30.266  19.261  -0.049  0.00  0.00    +0.021 C 
ATOM     27  C   UNL     1     -30.666  21.445  -1.033  0.00  0.00    +0.007 C 
ATOM     28  C   UNL     1     -29.823  20.366  -0.781  0.00  0.00    +0.036 C 
ATOM     29  H   UNL     1     -31.917  17.491   1.468  0.00  0.00    +0.152 HD
ENDBRANCH  18  21
ENDBRANCH   3  18
TORSDOF 7
ENDMDL
MODEL 4
REMARK VINA RESULT:      -6.3      5.180      7.683
REMARK  Name = 52936986
REMARK  7 active torsions:
REMARK  status: ('A' for Active; 'I' for Inactive)
REMARK    1  A    between atoms: N_2  and  CA_5
REMARK    2  A    between atoms: C_3  and  C_18
REMARK    3  A    between atoms: CA_5  and  C_7
REMARK    4  A    between atoms: CA_5  and  CB_10
REMARK    5  A    between atoms: C_7  and  O_8
REMARK    6  A    between atoms: CB_10  and  CG_13
REMARK    7  A    between atoms: C_18  and  C_21
REMARK                            x       y       z     vdW  Elec       q    Type
REMARK                         _______ _______ _______ _____ _____    ______ ____
ROOT
ATOM      1  O   UNL     1     -36.243  25.819   5.498  0.00  0.00    -0.275 OA
ATOM      2  N   UNL     1     -34.758  24.046   5.300  0.00  0.00    -0.296 N 
ATOM      3  C   ACE A   0     -35.111  25.355   5.600  0.00  0.00    +0.227 C 
ATOM      4  H   UNL     1     -33.820  23.772   5.416  0.00  0.00    +0.150 HD
ENDROOT
BRANCH   2   5
ATOM      5  CA  UNL     1     -35.712  23.073   4.821  0.00  0.00    +0.177 C 
BRANCH   5   7
ATOM      6  OXT UNL     1     -35.245  20.787   4.183  0.00  0.00    -0.248 OA
ATOM      7  C   UNL     1     -35.209  21.656   5.050  0.00  0.00    +0.332 C 
BRANCH   7   8
ATOM      8  O   UNL     1     -34.712  21.420   6.287  0.00  0.00    -0.479 OA
ATOM      9  H   UNL     1     -33.862  21.038   6.385  0.00  0.00    +0.295 HD
ENDBRANCH   7   8
ENDBRANCH   5   7
BRANCH   5  10
ATOM     10  CB  UNL     1     -36.020  23.285   3.334  0.00  0.00    +0.073 C 
BRANCH  10  13
ATOM     11  ND1 UNL     1     -38.182  24.566   3.584  0.00  0.00    -0.319 N 
ATOM     12  NE2 UNL     1     -39.645  23.414   2.373  0.00  0.00    -0.315 N 
ATOM     13  CG  UNL     1     -37.488  23.511   3.063  0.00  0.00    +0.040 C 
ATOM     14  CD2 UNL     1     -38.412  22.813   2.320  0.00  0.00    +0.069 C 
ATOM     15  CE1 UNL     1     -39.473  24.466   3.143  0.00  0.00    +0.182 C 
ATOM     16  HD1 UNL     1     -37.820  25.270   4.170  0.00  0.00    +0.148 HD
ATOM     17  HE2 UNL     1     -40.476  23.121   1.933  0.00  0.00    +0.148 HD
ENDBRANCH  10  13
ENDBRANCH   5  10
ENDBRANCH   2   5
BRANCH   3  18
ATOM     18  C   UNL     1     -33.925  26.183   6.090  0.00  0.00    +0.113 C 
BRANCH  18  21
ATOM     19 BR   UNL     1     -29.342  31.630   4.773  0.00  0.00    -0.049 Br
ATOM     20  N   UNL     1     -32.694  27.803   3.058  0.00  0.00    -0.312 N 
ATOM     21  C   UNL     1     -33.279  27.000   5.043  0.00  0.00    +0.003 C 
ATOM     22  C   UNL     1     -32.359  28.066   5.248  0.00  0.00    +0.011 C 
ATOM     23  C   UNL     1     -32.008  28.552   3.986  0.00  0.00    +0.049 C 
ATOM     24  C   UNL     1     -33.465  26.862   3.687  0.00  0.00    +0.058 C 
ATOM     25  C   UNL     1     -31.790  28.666   6.389  0.00  0.00    +0.001 C 
ATOM     26  C   UNL     1     -31.112  29.613   3.808  0.00  0.00    +0.021 C 
ATOM     27  C   UNL     1     -30.892  29.727   6.225  0.00  0.00    +0.007 C 
ATOM     28  C   UNL     1     -30.559  30.192   4.955  0.00  0.00    +0.036 C 
ATOM     29  H   UNL     1     -32.639  27.925   2.083  0.00  0.00    +0.152 HD
ENDBRANCH  18  21
ENDBRANCH   3  18
TORSDOF 7
ENDMDL
MODEL 5
REMARK VINA RESULT:      -6.3      2.003      3.261
REMARK  Name = 52936986
REMARK  7 active torsions:
REMARK  status: ('A' for Active; 'I' for Inactive)
REMARK    1  A    between atoms: N_2  and  CA_5
REMARK    2  A    between atoms: C_3  and  C_18
REMARK    3  A    between atoms: CA_5  and  C_7
REMARK    4  A    between atoms: CA_5  and  CB_10
REMARK    5  A    between atoms: C_7  and  O_8
REMARK    6  A    between atoms: CB_10  and  CG_13
REMARK    7  A    between atoms: C_18  and  C_21
REMARK                            x       y       z     vdW  Elec       q    Type
REMARK                         _______ _______ _______ _____ _____    ______ ____
ROOT
ATOM      1  O   UNL     1     -37.486  22.889   3.562  0.00  0.00    -0.275 OA
ATOM      2  N   UNL     1     -35.170  22.987   3.448  0.00  0.00    -0.296 N 
ATOM      3  C   ACE A   0     -36.444  22.849   2.914  0.00  0.00    +0.227 C 
ATOM      4  H   UNL     1     -34.396  22.940   2.842  0.00  0.00    +0.150 HD
ENDROOT
BRANCH   2   5
ATOM      5  CA  UNL     1     -34.935  23.194   4.858  0.00  0.00    +0.177 C 
BRANCH   5   7
ATOM      6  OXT UNL     1     -36.118  22.112   6.671  0.00  0.00    -0.248 OA
ATOM      7  C   UNL     1     -35.411  22.001   5.674  0.00  0.00    +0.332 C 
BRANCH   7   8
ATOM      8  O   UNL     1     -34.997  20.796   5.214  0.00  0.00    -0.479 OA
ATOM      9  H   UNL     1     -35.588  20.251   4.732  0.00  0.00    +0.295 HD
ENDBRANCH   7   8
ENDBRANCH   5   7
BRANCH   5  10
ATOM     10  CB  UNL     1     -35.625  24.472   5.352  0.00  0.00    +0.073 C 
BRANCH  10  13
ATOM     11  ND1 UNL     1     -35.750  26.503   3.856  0.00  0.00    -0.319 N 
ATOM     12  NE2 UNL     1     -33.772  27.483   4.095  0.00  0.00    -0.315 N 
ATOM     13  CG  UNL     1     -35.052  25.725   4.735  0.00  0.00    +0.040 C 
ATOM     14  CD2 UNL     1     -33.833  26.350   4.867  0.00  0.00    +0.069 C 
ATOM     15  CE1 UNL     1     -34.941  27.546   3.498  0.00  0.00    +0.182 C 
ATOM     16  HD1 UNL     1     -36.668  26.342   3.537  0.00  0.00    +0.148 HD
ATOM     17  HE2 UNL     1     -33.017  28.110   4.007  0.00  0.00    +0.148 HD
ENDBRANCH  10  13
ENDBRANCH   5  10
ENDBRANCH   2   5
BRANCH   3  18
ATOM     18  C   UNL     1     -36.425  22.645   1.401  0.00  0.00    +0.113 C 
BRANCH  18  21
ATOM     19 BR   UNL     1     -31.031  17.876   0.651  0.00  0.00    -0.049 Br
ATOM     20  N   UNL     1     -33.160  22.724  -0.232  0.00  0.00    -0.312 N 
ATOM     21  C   UNL     1     -35.081  22.411   0.835  0.00  0.00    +0.003 C 
ATOM     22  C   UNL     1     -34.317  21.215   0.934  0.00  0.00    +0.011 C 
ATOM     23  C   UNL     1     -33.116  21.439   0.257  0.00  0.00    +0.049 C 
ATOM     24  C   UNL     1     -34.344  23.320   0.112  0.00  0.00    +0.058 C 
ATOM     25  C   UNL     1     -34.531  19.960   1.538  0.00  0.00    +0.001 C 
ATOM     26  C   UNL     1     -32.115  20.466   0.153  0.00  0.00    +0.021 C 
ATOM     27  C   UNL     1     -33.539  18.978   1.441  0.00  0.00    +0.007 C 
ATOM     28  C   UNL     1     -32.351  19.228   0.759  0.00  0.00    +0.036 C 
ATOM     29  H   UNL     1     -32.444  23.154  -0.754  0.00  0.00    +0.152 HD
ENDBRANCH  18  21
ENDBRANCH   3  18
TORSDOF 7
ENDMDL
MODEL 6
REMARK VINA RESULT:      -6.2      4.451      6.857
REMARK  Name = 52936986
REMARK  7 active torsions:
REMARK  status: ('A' for Active; 'I' for Inactive)
REMARK    1  A    between atoms: N_2  and  CA_5
REMARK    2  A    between atoms: C_3  and  C_18
REMARK    3  A    between atoms: CA_5  and  C_7
REMARK    4  A    between atoms: CA_5  and  CB_10
REMARK    5  A    between atoms: C_7  and  O_8
REMARK    6  A    between atoms: CB_10  and  CG_13
REMARK    7  A    between atoms: C_18  and  C_21
REMARK                            x       y       z     vdW  Elec       q    Type
REMARK                         _______ _______ _______ _____ _____    ______ ____
ROOT
ATOM      1  O   UNL     1     -33.085  25.120   4.204  0.00  0.00    -0.275 OA
ATOM      2  N   UNL     1     -33.797  27.075   5.234  0.00  0.00    -0.296 N 
ATOM      3  C   ACE A   0     -33.925  25.750   4.840  0.00  0.00    +0.227 C 
ATOM      4  H   UNL     1     -34.530  27.489   5.743  0.00  0.00    +0.150 HD
ENDROOT
BRANCH   2   5
ATOM      5  CA  UNL     1     -32.629  27.868   4.927  0.00  0.00    +0.177 C 
BRANCH   5   7
ATOM      6  OXT UNL     1     -32.067  29.415   6.700  0.00  0.00    -0.248 OA
ATOM      7  C   UNL     1     -31.915  28.306   6.197  0.00  0.00    +0.332 C 
BRANCH   7   8
ATOM      8  O   UNL     1     -31.095  27.374   6.740  0.00  0.00    -0.479 OA
ATOM      9  H   UNL     1     -30.350  27.642   7.240  0.00  0.00    +0.295 HD
ENDBRANCH   7   8
ENDBRANCH   5   7
BRANCH   5  10
ATOM     10  CB  UNL     1     -33.001  29.096   4.086  0.00  0.00    +0.073 C 
BRANCH  10  13
ATOM     11  ND1 UNL     1     -35.267  29.192   2.975  0.00  0.00    -0.319 N 
ATOM     12  NE2 UNL     1     -35.001  28.047   1.090  0.00  0.00    -0.315 N 
ATOM     13  CG  UNL     1     -33.966  28.775   2.970  0.00  0.00    +0.040 C 
ATOM     14  CD2 UNL     1     -33.825  28.070   1.798  0.00  0.00    +0.069 C 
ATOM     15  CE1 UNL     1     -35.849  28.730   1.826  0.00  0.00    +0.182 C 
ATOM     16  HD1 UNL     1     -35.706  29.725   3.676  0.00  0.00    +0.148 HD
ATOM     17  HE2 UNL     1     -35.172  27.613   0.222  0.00  0.00    +0.148 HD
ENDBRANCH  10  13
ENDBRANCH   5  10
ENDBRANCH   2   5
BRANCH   3  18
ATOM     18  C   UNL     1     -35.248  25.131   5.290  0.00  0.00    +0.113 C 
BRANCH  18  21
ATOM     19 BR   UNL     1     -35.946  20.094   0.138  0.00  0.00    -0.049 Br
ATOM     20  N   UNL     1     -35.506  21.490   5.304  0.00  0.00    -0.312 N 
ATOM     21  C   UNL     1     -35.369  23.686   5.014  0.00  0.00    +0.003 C 
ATOM     22  C   UNL     1     -35.496  23.076   3.736  0.00  0.00    +0.011 C 
ATOM     23  C   UNL     1     -35.581  21.697   3.946  0.00  0.00    +0.049 C 
ATOM     24  C   UNL     1     -35.378  22.685   5.959  0.00  0.00    +0.058 C 
ATOM     25  C   UNL     1     -35.549  23.565   2.415  0.00  0.00    +0.001 C 
ATOM     26  C   UNL     1     -35.716  20.781   2.897  0.00  0.00    +0.021 C 
ATOM     27  C   UNL     1     -35.682  22.659   1.356  0.00  0.00    +0.007 C 
ATOM     28  C   UNL     1     -35.764  21.289   1.595  0.00  0.00    +0.036 C 
ATOM     29  H   UNL     1     -35.540  20.608   5.742  0.00  0.00    +0.152 HD
ENDBRANCH  18  21
ENDBRANCH   3  18
TORSDOF 7
ENDMDL
MODEL 7
REMARK VINA RESULT:      -6.2      5.675      8.019
REMARK  Name = 52936986
REMARK  7 active torsions:
REMARK  status: ('A' for Active; 'I' for Inactive)
REMARK    1  A    between atoms: N_2  and  CA_5
REMARK    2  A    between atoms: C_3  and  C_18
REMARK    3  A    between atoms: CA_5  and  C_7
REMARK    4  A    between atoms: CA_5  and  CB_10
REMARK    5  A    between atoms: C_7  and  O_8
REMARK    6  A    between atoms: CB_10  and  CG_13
REMARK    7  A    between atoms: C_18  and  C_21
REMARK                            x       y       z     vdW  Elec       q    Type
REMARK                         _______ _______ _______ _____ _____    ______ ____
ROOT
ATOM      1  O   UNL     1     -33.166  25.540   4.286  0.00  0.00    -0.275 OA
ATOM      2  N   UNL     1     -33.359  27.419   5.635  0.00  0.00    -0.296 N 
ATOM      3  C   ACE A   0     -33.743  26.169   5.169  0.00  0.00    +0.227 C 
ATOM      4  H   UNL     1     -33.889  27.840   6.349  0.00  0.00    +0.150 HD
ENDROOT
BRANCH   2   5
ATOM      5  CA  UNL     1     -32.212  28.126   5.114  0.00  0.00    +0.177 C 
BRANCH   5   7
ATOM      6  OXT UNL     1     -31.366  29.676   6.767  0.00  0.00    -0.248 OA
ATOM      7  C   UNL     1     -31.287  28.572   6.236  0.00  0.00    +0.332 C 
BRANCH   7   8
ATOM      8  O   UNL     1     -30.364  27.655   6.613  0.00  0.00    -0.479 OA
ATOM      9  H   UNL     1     -30.201  26.906   6.073  0.00  0.00    +0.295 HD
ENDBRANCH   7   8
ENDBRANCH   5   7
BRANCH   5  10
ATOM     10  CB  UNL     1     -32.642  29.338   4.278  0.00  0.00    +0.073 C 
BRANCH  10  13
ATOM     11  ND1 UNL     1     -34.933  29.319   3.216  0.00  0.00    -0.319 N 
ATOM     12  NE2 UNL     1     -34.644  28.222   1.307  0.00  0.00    -0.315 N 
ATOM     13  CG  UNL     1     -33.611  28.979   3.177  0.00  0.00    +0.040 C 
ATOM     14  CD2 UNL     1     -33.456  28.303   1.990  0.00  0.00    +0.069 C 
ATOM     15  CE1 UNL     1     -35.514  28.843   2.073  0.00  0.00    +0.182 C 
ATOM     16  HD1 UNL     1     -35.387  29.814   3.936  0.00  0.00    +0.148 HD
ATOM     17  HE2 UNL     1     -34.809  27.793   0.436  0.00  0.00    +0.148 HD
ENDBRANCH  10  13
ENDBRANCH   5  10
ENDBRANCH   2   5
BRANCH   3  18
ATOM     18  C   UNL     1     -34.982  25.634   5.883  0.00  0.00    +0.113 C 
BRANCH  18  21
ATOM     19 BR   UNL     1     -39.435  23.641   0.535  0.00  0.00    -0.049 Br
ATOM     20  N   UNL     1     -36.245  22.427   4.679  0.00  0.00    -0.312 N 
ATOM     21  C   UNL     1     -35.631  24.494   5.205  0.00  0.00    +0.003 C 
ATOM     22  C   UNL     1     -36.513  24.562   4.090  0.00  0.00    +0.011 C 
ATOM     23  C   UNL     1     -36.884  23.251   3.781  0.00  0.00    +0.049 C 
ATOM     24  C   UNL     1     -35.486  23.168   5.544  0.00  0.00    +0.058 C 
ATOM     25  C   UNL     1     -37.034  25.616   3.313  0.00  0.00    +0.001 C 
ATOM     26  C   UNL     1     -37.753  22.941   2.729  0.00  0.00    +0.021 C 
ATOM     27  C   UNL     1     -37.903  25.319   2.257  0.00  0.00    +0.007 C 
ATOM     28  C   UNL     1     -38.256  24.003   1.971  0.00  0.00    +0.036 C 
ATOM     29  H   UNL     1     -36.323  21.446   4.697  0.00  0.00    +0.152 HD
ENDBRANCH  18  21
ENDBRANCH   3  18
TORSDOF 7
ENDMDL
MODEL 8
REMARK VINA RESULT:      -6.1      5.226      8.222
REMARK  Name = 52936986
REMARK  7 active torsions:
REMARK  status: ('A' for Active; 'I' for Inactive)
REMARK    1  A    between atoms: N_2  and  CA_5
REMARK    2  A    between atoms: C_3  and  C_18
REMARK    3  A    between atoms: CA_5  and  C_7
REMARK    4  A    between atoms: CA_5  and  CB_10
REMARK    5  A    between atoms: C_7  and  O_8
REMARK    6  A    between atoms: CB_10  and  CG_13
REMARK    7  A    between atoms: C_18  and  C_21
REMARK                            x       y       z     vdW  Elec       q    Type
REMARK                         _______ _______ _______ _____ _____    ______ ____
ROOT
ATOM      1  O   UNL     1     -36.782  23.639   1.614  0.00  0.00    -0.275 OA
ATOM      2  N   UNL     1     -37.149  22.547   3.629  0.00  0.00    -0.296 N 
ATOM      3  C   ACE A   0     -37.540  23.107   2.421  0.00  0.00    +0.227 C 
ATOM      4  H   UNL     1     -37.835  22.143   4.207  0.00  0.00    +0.150 HD
ENDROOT
BRANCH   2   5
ATOM      5  CA  UNL     1     -35.774  22.533   4.072  0.00  0.00    +0.177 C 
BRANCH   5   7
ATOM      6  OXT UNL     1     -35.006  20.348   3.373  0.00  0.00    -0.248 OA
ATOM      7  C   UNL     1     -35.284  21.110   4.294  0.00  0.00    +0.332 C 
BRANCH   7   8
ATOM      8  O   UNL     1     -35.173  20.742   5.593  0.00  0.00    -0.479 OA
ATOM      9  H   UNL     1     -35.917  20.796   6.160  0.00  0.00    +0.295 HD
ENDBRANCH   7   8
ENDBRANCH   5   7
BRANCH   5  10
ATOM     10  CB  UNL     1     -35.598  23.353   5.356  0.00  0.00    +0.073 C 
BRANCH  10  13
ATOM     11  ND1 UNL     1     -34.036  25.317   5.075  0.00  0.00    -0.319 N 
ATOM     12  NE2 UNL     1     -35.381  27.031   4.647  0.00  0.00    -0.315 N 
ATOM     13  CG  UNL     1     -35.304  24.810   5.089  0.00  0.00    +0.040 C 
ATOM     14  CD2 UNL     1     -36.117  25.886   4.824  0.00  0.00    +0.069 C 
ATOM     15  CE1 UNL     1     -34.132  26.655   4.806  0.00  0.00    +0.182 C 
ATOM     16  HD1 UNL     1     -33.204  24.813   5.230  0.00  0.00    +0.148 HD
ATOM     17  HE2 UNL     1     -35.715  27.936   4.447  0.00  0.00    +0.148 HD
ENDBRANCH  10  13
ENDBRANCH   5  10
ENDBRANCH   2   5
BRANCH   3  18
ATOM     18  C   UNL     1     -39.044  22.991   2.182  0.00  0.00    +0.113 C 
BRANCH  18  21
ATOM     19 BR   UNL     1     -44.435  27.289  -0.023  0.00  0.00    -0.049 Br
ATOM     20  N   UNL     1     -40.489  26.107   3.419  0.00  0.00    -0.312 N 
ATOM     21  C   UNL     1     -39.802  24.227   2.460  0.00  0.00    +0.003 C 
ATOM     22  C   UNL     1     -40.885  24.746   1.697  0.00  0.00    +0.011 C 
ATOM     23  C   UNL     1     -41.297  25.926   2.321  0.00  0.00    +0.049 C 
ATOM     24  C   UNL     1     -39.582  25.086   3.512  0.00  0.00    +0.058 C 
ATOM     25  C   UNL     1     -41.556  24.325   0.532  0.00  0.00    +0.001 C 
ATOM     26  C   UNL     1     -42.351  26.708   1.835  0.00  0.00    +0.021 C 
ATOM     27  C   UNL     1     -42.613  25.097   0.036  0.00  0.00    +0.007 C 
ATOM     28  C   UNL     1     -43.003  26.270   0.678  0.00  0.00    +0.036 C 
ATOM     29  H   UNL     1     -40.553  26.862   4.048  0.00  0.00    +0.152 HD
ENDBRANCH  18  21
ENDBRANCH   3  18
TORSDOF 7
ENDMDL
MODEL 9
REMARK VINA RESULT:      -6.1      1.722      2.108
REMARK  Name = 52936986
REMARK  7 active torsions:
REMARK  status: ('A' for Active; 'I' for Inactive)
REMARK    1  A    between atoms: N_2  and  CA_5
REMARK    2  A    between atoms: C_3  and  C_18
REMARK    3  A    between atoms: CA_5  and  C_7
REMARK    4  A    between atoms: CA_5  and  CB_10
REMARK    5  A    between atoms: C_7  and  O_8
REMARK    6  A    between atoms: CB_10  and  CG_13
REMARK    7  A    between atoms: C_18  and  C_21
REMARK                            x       y       z     vdW  Elec       q    Type
REMARK                         _______ _______ _______ _____ _____    ______ ____
ROOT
ATOM      1  O   UNL     1     -35.595  20.396   3.020  0.00  0.00    -0.275 OA
ATOM      2  N   UNL     1     -36.735  21.733   1.504  0.00  0.00    -0.296 N 
ATOM      3  C   ACE A   0     -35.693  20.911   1.910  0.00  0.00    +0.227 C 
ATOM      4  H   UNL     1     -36.721  22.097   0.590  0.00  0.00    +0.150 HD
ENDROOT
BRANCH   2   5
ATOM      5  CA  UNL     1     -37.840  22.076   2.370  0.00  0.00    +0.177 C 
BRANCH   5   7
ATOM      6  OXT UNL     1     -39.453  22.502   0.618  0.00  0.00    -0.248 OA
ATOM      7  C   UNL     1     -39.171  21.905   1.653  0.00  0.00    +0.332 C 
BRANCH   7   8
ATOM      8  O   UNL     1     -40.028  21.038   2.243  0.00  0.00    -0.479 OA
ATOM      9  H   UNL     1     -39.774  20.146   2.374  0.00  0.00    +0.295 HD
ENDBRANCH   7   8
ENDBRANCH   5   7
BRANCH   5  10
ATOM     10  CB  UNL     1     -37.707  23.512   2.893  0.00  0.00    +0.073 C 
BRANCH  10  13
ATOM     11  ND1 UNL     1     -36.410  22.664   4.886  0.00  0.00    -0.319 N 
ATOM     12  NE2 UNL     1     -35.028  24.328   5.389  0.00  0.00    -0.315 N 
ATOM     13  CG  UNL     1     -36.665  23.650   3.976  0.00  0.00    +0.040 C 
ATOM     14  CD2 UNL     1     -35.801  24.668   4.307  0.00  0.00    +0.069 C 
ATOM     15  CE1 UNL     1     -35.420  23.116   5.715  0.00  0.00    +0.182 C 
ATOM     16  HD1 UNL     1     -36.857  21.788   4.937  0.00  0.00    +0.148 HD
ATOM     17  HE2 UNL     1     -34.334  24.873   5.826  0.00  0.00    +0.148 HD
ENDBRANCH  10  13
ENDBRANCH   5  10
ENDBRANCH   2   5
BRANCH   3  18
ATOM     18  C   UNL     1     -34.653  20.699   0.811  0.00  0.00    +0.113 C 
BRANCH  18  21
ATOM     19 BR   UNL     1     -29.434  15.746   0.024  0.00  0.00    -0.049 Br
ATOM     20  N   UNL     1     -34.620  17.132   0.032  0.00  0.00    -0.312 N 
ATOM     21  C   UNL     1     -34.359  19.282   0.518  0.00  0.00    +0.003 C 
ATOM     22  C   UNL     1     -33.072  18.679   0.460  0.00  0.00    +0.011 C 
ATOM     23  C   UNL     1     -33.264  17.330   0.153  0.00  0.00    +0.049 C 
ATOM     24  C   UNL     1     -35.291  18.306   0.251  0.00  0.00    +0.058 C 
ATOM     25  C   UNL     1     -31.756  19.153   0.638  0.00  0.00    +0.001 C 
ATOM     26  C   UNL     1     -32.203  16.428   0.015  0.00  0.00    +0.021 C 
ATOM     27  C   UNL     1     -30.686  18.262   0.505  0.00  0.00    +0.007 C 
ATOM     28  C   UNL     1     -30.907  16.921   0.198  0.00  0.00    +0.036 C 
ATOM     29  H   UNL     1     -35.047  16.271  -0.181  0.00  0.00    +0.152 HD
ENDBRANCH  18  21
ENDBRANCH   3  18
TORSDOF 7
ENDMDL
