MODEL 1
REMARK VINA RESULT:      -7.2      0.000      0.000
REMARK  Name = 195975
REMARK  8 active torsions:
REMARK  status: ('A' for Active; 'I' for Inactive)
REMARK    1  A    between atoms: C_2  and  N_17
REMARK    2  A    between atoms: C_15  and  O_21
REMARK    3  A    between atoms: O_21  and  C_23
REMARK    4  A    between atoms: C_24  and  O_28
REMARK    5  A    between atoms: C_25  and  O_30
REMARK    6  A    between atoms: C_26  and  O_32
REMARK    7  A    between atoms: C_27  and  C_35
REMARK    8  A    between atoms: C_35  and  O_36
REMARK                            x       y       z     vdW  Elec       q    Type
REMARK                         _______ _______ _______ _____ _____    ______ ____
ROOT
ATOM      1  C   UNL     1     -31.712  29.095   4.125  0.00  0.00    +0.001 C 
ATOM      2  C   UNL     1     -31.339  30.170   5.202  0.00  0.00    -0.061 C 
ATOM      3  C   UNL     1     -30.742  29.555   6.483  0.00  0.00    -0.015 C 
ATOM      4  C   UNL     1     -30.467  28.397   3.480  0.00  0.00    +0.002 C 
ATOM      5  C   UNL     1     -32.550  27.967   4.763  0.00  0.00    -0.026 C 
ATOM      6  C   UNL     1     -31.750  28.586   7.129  0.00  0.00    +0.024 C 
ATOM      7  C   UNL     1     -29.357  28.886   6.353  0.00  0.00    -0.002 C 
ATOM      8  C   UNL     1     -32.517  27.721   6.153  0.00  0.00    -0.026 C 
ATOM      9  C   UNL     1     -29.272  29.294   3.143  0.00  0.00    +0.000 C 
ATOM     10  C   UNL     1     -32.485  29.799   2.970  0.00  0.00    +0.002 C 
ATOM     11  C   UNL     1     -28.327  29.678   5.543  0.00  0.00    -0.000 C 
ATOM     12  C   UNL     1     -28.100  29.167   4.120  0.00  0.00    +0.000 C 
ATOM     13  C   UNL     1     -33.318  27.103   3.954  0.00  0.00    +0.032 C 
ATOM     14  C   UNL     1     -33.270  26.662   6.693  0.00  0.00    -0.001 C 
ATOM     15  C   UNL     1     -34.053  26.052   4.504  0.00  0.00    +0.141 C 
ATOM     16  C   UNL     1     -34.032  25.833   5.874  0.00  0.00    +0.037 C 
ENDROOT
BRANCH   2  17
ATOM     17  N   UNL     1     -32.514  30.978   5.600  0.00  0.00    +0.382 N 
ATOM     18  H   UNL     1     -32.535  31.069   6.616  0.00  0.00    -0.089 HD
ATOM     19  H   UNL     1     -33.367  30.518   5.283  0.00  0.00    -0.089 HD
ATOM     20  H   UNL     1     -32.450  31.904   5.177  0.00  0.00    -0.089 HD
ENDBRANCH   2  17
BRANCH  15  21
ATOM     21  O   UNL     1     -34.786  25.240   3.695  0.00  0.00    -0.451 OA
BRANCH  21  23
ATOM     22  O   UNL     1     -35.878  23.249   4.376  0.00  0.00    -0.307 OA
ATOM     23  C   UNL     1     -35.971  24.672   4.247  0.00  0.00    +0.318 C 
ATOM     24  C   UNL     1     -37.185  25.078   3.398  0.00  0.00    +0.210 C 
ATOM     25  C   UNL     1     -37.259  24.311   2.071  0.00  0.00    +0.173 C 
ATOM     26  C   UNL     1     -37.026  22.808   2.270  0.00  0.00    +0.178 C 
ATOM     27  C   UNL     1     -35.781  22.575   3.127  0.00  0.00    +0.246 C 
BRANCH  24  28
ATOM     28  O   UNL     1     -38.376  24.818   4.139  0.00  0.00    -0.377 OA
ATOM     29  H   UNL     1     -38.143  24.510   5.029  0.00  0.00    +0.211 HD
ENDBRANCH  24  28
BRANCH  25  30
ATOM     30  O   UNL     1     -36.268  24.830   1.188  0.00  0.00    -0.379 OA
ATOM     31  H   UNL     1     -35.569  24.170   1.062  0.00  0.00    +0.211 HD
ENDBRANCH  25  30
BRANCH  26  32
ATOM     32  O   UNL     1     -38.163  22.238   2.919  0.00  0.00    -0.379 OA
ATOM     33  H   UNL     1     -37.996  22.182   3.873  0.00  0.00    +0.211 HD
ENDBRANCH  26  32
BRANCH  27  35
ATOM     34  O   UNL     1     -35.711  20.207   2.661  0.00  0.00    -0.247 OA
ATOM     35  C   UNL     1     -35.613  21.127   3.460  0.00  0.00    +0.344 C 
BRANCH  35  36
ATOM     36  O   UNL     1     -35.336  20.967   4.777  0.00  0.00    -0.478 OA
ATOM     37  H   UNL     1     -36.010  21.096   5.415  0.00  0.00    +0.295 HD
ENDBRANCH  35  36
ENDBRANCH  27  35
ENDBRANCH  21  23
ENDBRANCH  15  21
TORSDOF 8
ENDMDL
MODEL 2
REMARK VINA RESULT:      -7.1      1.559      2.124
REMARK  Name = 195975
REMARK  8 active torsions:
REMARK  status: ('A' for Active; 'I' for Inactive)
REMARK    1  A    between atoms: C_2  and  N_17
REMARK    2  A    between atoms: C_15  and  O_21
REMARK    3  A    between atoms: O_21  and  C_23
REMARK    4  A    between atoms: C_24  and  O_28
REMARK    5  A    between atoms: C_25  and  O_30
REMARK    6  A    between atoms: C_26  and  O_32
REMARK    7  A    between atoms: C_27  and  C_35
REMARK    8  A    between atoms: C_35  and  O_36
REMARK                            x       y       z     vdW  Elec       q    Type
REMARK                         _______ _______ _______ _____ _____    ______ ____
ROOT
ATOM      1  C   UNL     1     -31.693  29.642   2.862  0.00  0.00    +0.001 C 
ATOM      2  C   UNL     1     -31.532  31.173   3.154  0.00  0.00    -0.061 C 
ATOM      3  C   UNL     1     -30.613  31.462   4.357  0.00  0.00    -0.015 C 
ATOM      4  C   UNL     1     -30.388  28.969   2.315  0.00  0.00    +0.002 C 
ATOM      5  C   UNL     1     -32.051  28.885   4.158  0.00  0.00    -0.026 C 
ATOM      6  C   UNL     1     -31.180  30.807   5.630  0.00  0.00    +0.024 C 
ATOM      7  C   UNL     1     -29.119  31.114   4.188  0.00  0.00    -0.002 C 
ATOM      8  C   UNL     1     -31.763  29.426   5.430  0.00  0.00    -0.026 C 
ATOM      9  C   UNL     1     -29.583  29.765   1.283  0.00  0.00    +0.000 C 
ATOM     10  C   UNL     1     -32.789  29.458   1.770  0.00  0.00    +0.002 C 
ATOM     11  C   UNL     1     -28.498  31.540   2.856  0.00  0.00    -0.000 C 
ATOM     12  C   UNL     1     -28.312  30.409   1.844  0.00  0.00    +0.000 C 
ATOM     13  C   UNL     1     -32.614  27.593   4.098  0.00  0.00    +0.032 C 
ATOM     14  C   UNL     1     -32.075  28.690   6.589  0.00  0.00    -0.001 C 
ATOM     15  C   UNL     1     -32.911  26.873   5.256  0.00  0.00    +0.141 C 
ATOM     16  C   UNL     1     -32.644  27.423   6.502  0.00  0.00    +0.037 C 
ENDROOT
BRANCH   2  17
ATOM     17  N   UNL     1     -32.837  31.820   3.423  0.00  0.00    +0.382 N 
ATOM     18  H   UNL     1     -32.765  32.391   4.264  0.00  0.00    -0.089 HD
ATOM     19  H   UNL     1     -33.550  31.103   3.559  0.00  0.00    -0.089 HD
ATOM     20  H   UNL     1     -33.094  32.410   2.631  0.00  0.00    -0.089 HD
ENDBRANCH   2  17
BRANCH  15  21
ATOM     21  O   UNL     1     -33.456  25.630   5.162  0.00  0.00    -0.451 OA
BRANCH  21  23
ATOM     22  O   UNL     1     -35.187  24.162   5.849  0.00  0.00    -0.307 OA
ATOM     23  C   UNL     1     -34.838  25.502   5.483  0.00  0.00    +0.318 C 
ATOM     24  C   UNL     1     -35.692  26.000   4.307  0.00  0.00    +0.210 C 
ATOM     25  C   UNL     1     -35.721  25.006   3.137  0.00  0.00    +0.173 C 
ATOM     26  C   UNL     1     -35.975  23.572   3.618  0.00  0.00    +0.178 C 
ATOM     27  C   UNL     1     -35.044  23.232   4.783  0.00  0.00    +0.246 C 
BRANCH  24  28
ATOM     28  O   UNL     1     -37.030  26.206   4.759  0.00  0.00    -0.377 OA
ATOM     29  H   UNL     1     -37.530  26.687   4.082  0.00  0.00    +0.211 HD
ENDBRANCH  24  28
BRANCH  25  30
ATOM     30  O   UNL     1     -34.469  25.064   2.459  0.00  0.00    -0.379 OA
ATOM     31  H   UNL     1     -34.576  25.542   1.622  0.00  0.00    +0.211 HD
ENDBRANCH  25  30
BRANCH  26  32
ATOM     32  O   UNL     1     -37.332  23.452   4.044  0.00  0.00    -0.379 OA
ATOM     33  H   UNL     1     -37.422  23.811   4.941  0.00  0.00    +0.211 HD
ENDBRANCH  26  32
BRANCH  27  35
ATOM     34  O   UNL     1     -35.005  20.821   4.907  0.00  0.00    -0.247 OA
ATOM     35  C   UNL     1     -35.368  21.894   5.366  0.00  0.00    +0.344 C 
BRANCH  35  36
ATOM     36  O   UNL     1     -36.128  22.029   6.480  0.00  0.00    -0.478 OA
ATOM     37  H   UNL     1     -37.060  21.957   6.423  0.00  0.00    +0.295 HD
ENDBRANCH  35  36
ENDBRANCH  27  35
ENDBRANCH  21  23
ENDBRANCH  15  21
TORSDOF 8
ENDMDL
MODEL 3
REMARK VINA RESULT:      -7.0      4.120      8.345
REMARK  Name = 195975
REMARK  8 active torsions:
REMARK  status: ('A' for Active; 'I' for Inactive)
REMARK    1  A    between atoms: C_2  and  N_17
REMARK    2  A    between atoms: C_15  and  O_21
REMARK    3  A    between atoms: O_21  and  C_23
REMARK    4  A    between atoms: C_24  and  O_28
REMARK    5  A    between atoms: C_25  and  O_30
REMARK    6  A    between atoms: C_26  and  O_32
REMARK    7  A    between atoms: C_27  and  C_35
REMARK    8  A    between atoms: C_35  and  O_36
REMARK                            x       y       z     vdW  Elec       q    Type
REMARK                         _______ _______ _______ _____ _____    ______ ____
ROOT
ATOM      1  C   UNL     1     -35.363  25.151   4.735  0.00  0.00    +0.001 C 
ATOM      2  C   UNL     1     -36.561  24.667   3.848  0.00  0.00    -0.061 C 
ATOM      3  C   UNL     1     -36.105  24.005   2.533  0.00  0.00    -0.015 C 
ATOM      4  C   UNL     1     -34.528  23.979   5.352  0.00  0.00    +0.002 C 
ATOM      5  C   UNL     1     -34.374  25.982   3.893  0.00  0.00    -0.026 C 
ATOM      6  C   UNL     1     -35.282  25.000   1.694  0.00  0.00    +0.024 C 
ATOM      7  C   UNL     1     -35.363  22.657   2.655  0.00  0.00    -0.002 C 
ATOM      8  C   UNL     1     -34.324  25.862   2.486  0.00  0.00    -0.026 C 
ATOM      9  C   UNL     1     -35.315  22.779   5.888  0.00  0.00    +0.000 C 
ATOM     10  C   UNL     1     -35.933  25.976   5.928  0.00  0.00    +0.002 C 
ATOM     11  C   UNL     1     -35.987  21.658   3.632  0.00  0.00    -0.000 C 
ATOM     12  C   UNL     1     -35.273  21.548   4.980  0.00  0.00    +0.000 C 
ATOM     13  C   UNL     1     -33.442  26.834   4.519  0.00  0.00    +0.032 C 
ATOM     14  C   UNL     1     -33.385  26.614   1.755  0.00  0.00    -0.001 C 
ATOM     15  C   UNL     1     -32.511  27.567   3.781  0.00  0.00    +0.141 C 
ATOM     16  C   UNL     1     -32.485  27.458   2.397  0.00  0.00    +0.037 C 
ENDROOT
BRANCH   2  17
ATOM     17  N   UNL     1     -37.468  25.782   3.496  0.00  0.00    +0.382 N 
ATOM     18  H   UNL     1     -38.432  25.511   3.690  0.00  0.00    -0.089 HD
ATOM     19  H   UNL     1     -37.371  26.001   2.504  0.00  0.00    -0.089 HD
ATOM     20  H   UNL     1     -37.228  26.605   4.050  0.00  0.00    -0.089 HD
ENDBRANCH   2  17
BRANCH  15  21
ATOM     21  O   UNL     1     -31.628  28.382   4.418  0.00  0.00    -0.451 OA
BRANCH  21  23
ATOM     22  O   UNL     1     -29.428  27.694   4.972  0.00  0.00    -0.307 OA
ATOM     23  C   UNL     1     -30.268  28.321   3.997  0.00  0.00    +0.318 C 
ATOM     24  C   UNL     1     -29.768  29.732   3.652  0.00  0.00    +0.210 C 
ATOM     25  C   UNL     1     -29.496  30.582   4.901  0.00  0.00    +0.173 C 
ATOM     26  C   UNL     1     -28.699  29.803   5.955  0.00  0.00    +0.178 C 
ATOM     27  C   UNL     1     -29.328  28.429   6.185  0.00  0.00    +0.246 C 
BRANCH  24  28
ATOM     28  O   UNL     1     -28.557  29.626   2.905  0.00  0.00    -0.377 OA
ATOM     29  H   UNL     1     -28.062  30.457   2.973  0.00  0.00    +0.211 HD
ENDBRANCH  24  28
BRANCH  25  30
ATOM     30  O   UNL     1     -30.745  30.988   5.457  0.00  0.00    -0.379 OA
ATOM     31  H   UNL     1     -30.712  31.933   5.670  0.00  0.00    +0.211 HD
ENDBRANCH  25  30
BRANCH  26  32
ATOM     32  O   UNL     1     -27.355  29.640   5.502  0.00  0.00    -0.379 OA
ATOM     33  H   UNL     1     -26.805  30.356   5.857  0.00  0.00    +0.211 HD
ENDBRANCH  26  32
BRANCH  27  35
ATOM     34  O   UNL     1     -28.266  26.400   6.949  0.00  0.00    -0.247 OA
ATOM     35  C   UNL     1     -28.489  27.592   7.098  0.00  0.00    +0.344 C 
BRANCH  35  36
ATOM     36  O   UNL     1     -28.008  28.337   8.122  0.00  0.00    -0.478 OA
ATOM     37  H   UNL     1     -27.789  29.237   7.985  0.00  0.00    +0.295 HD
ENDBRANCH  35  36
ENDBRANCH  27  35
ENDBRANCH  21  23
ENDBRANCH  15  21
TORSDOF 8
ENDMDL
MODEL 4
REMARK VINA RESULT:      -6.8      3.358      5.828
REMARK  Name = 195975
REMARK  8 active torsions:
REMARK  status: ('A' for Active; 'I' for Inactive)
REMARK    1  A    between atoms: C_2  and  N_17
REMARK    2  A    between atoms: C_15  and  O_21
REMARK    3  A    between atoms: O_21  and  C_23
REMARK    4  A    between atoms: C_24  and  O_28
REMARK    5  A    between atoms: C_25  and  O_30
REMARK    6  A    between atoms: C_26  and  O_32
REMARK    7  A    between atoms: C_27  and  C_35
REMARK    8  A    between atoms: C_35  and  O_36
REMARK                            x       y       z     vdW  Elec       q    Type
REMARK                         _______ _______ _______ _____ _____    ______ ____
ROOT
ATOM      1  C   UNL     1     -35.178  25.539   2.925  0.00  0.00    +0.001 C 
ATOM      2  C   UNL     1     -35.806  26.269   4.162  0.00  0.00    -0.061 C 
ATOM      3  C   UNL     1     -35.307  25.705   5.508  0.00  0.00    -0.015 C 
ATOM      4  C   UNL     1     -33.650  25.829   2.738  0.00  0.00    +0.002 C 
ATOM      5  C   UNL     1     -35.305  24.010   3.083  0.00  0.00    -0.026 C 
ATOM      6  C   UNL     1     -35.661  24.211   5.624  0.00  0.00    +0.024 C 
ATOM      7  C   UNL     1     -33.820  25.937   5.849  0.00  0.00    -0.002 C 
ATOM      8  C   UNL     1     -35.485  23.414   4.351  0.00  0.00    -0.026 C 
ATOM      9  C   UNL     1     -33.189  27.272   2.969  0.00  0.00    +0.000 C 
ATOM     10  C   UNL     1     -35.895  26.043   1.637  0.00  0.00    +0.002 C 
ATOM     11  C   UNL     1     -33.303  27.351   5.572  0.00  0.00    -0.000 C 
ATOM     12  C   UNL     1     -32.466  27.490   4.300  0.00  0.00    +0.000 C 
ATOM     13  C   UNL     1     -35.172  23.163   1.964  0.00  0.00    +0.032 C 
ATOM     14  C   UNL     1     -35.564  22.012   4.458  0.00  0.00    -0.001 C 
ATOM     15  C   UNL     1     -35.245  21.774   2.088  0.00  0.00    +0.141 C 
ATOM     16  C   UNL     1     -35.444  21.199   3.335  0.00  0.00    +0.037 C 
ENDROOT
BRANCH   2  17
ATOM     17  N   UNL     1     -37.284  26.178   4.160  0.00  0.00    +0.382 N 
ATOM     18  H   UNL     1     -37.649  26.557   5.033  0.00  0.00    -0.089 HD
ATOM     19  H   UNL     1     -37.565  25.201   4.071  0.00  0.00    -0.089 HD
ATOM     20  H   UNL     1     -37.657  26.711   3.374  0.00  0.00    -0.089 HD
ENDBRANCH   2  17
BRANCH  15  21
ATOM     21  O   UNL     1     -35.116  20.986   0.986  0.00  0.00    -0.451 OA
BRANCH  21  23
ATOM     22  O   UNL     1     -33.814  19.054   1.417  0.00  0.00    -0.307 OA
ATOM     23  C   UNL     1     -35.127  19.577   1.191  0.00  0.00    +0.318 C 
ATOM     24  C   UNL     1     -35.807  18.884   0.001  0.00  0.00    +0.210 C 
ATOM     25  C   UNL     1     -34.914  18.843  -1.247  0.00  0.00    +0.173 C 
ATOM     26  C   UNL     1     -33.487  18.394  -0.908  0.00  0.00    +0.178 C 
ATOM     27  C   UNL     1     -32.955  19.181   0.290  0.00  0.00    +0.246 C 
BRANCH  24  28
ATOM     28  O   UNL     1     -36.134  17.545   0.368  0.00  0.00    -0.377 OA
ATOM     29  H   UNL     1     -35.318  17.032   0.481  0.00  0.00    +0.211 HD
ENDBRANCH  24  28
BRANCH  25  30
ATOM     30  O   UNL     1     -34.875  20.147  -1.822  0.00  0.00    -0.379 OA
ATOM     31  H   UNL     1     -34.280  20.144  -2.589  0.00  0.00    +0.211 HD
ENDBRANCH  25  30
BRANCH  26  32
ATOM     32  O   UNL     1     -33.494  17.001  -0.595  0.00  0.00    -0.379 OA
ATOM     33  H   UNL     1     -32.860  16.826   0.117  0.00  0.00    +0.211 HD
ENDBRANCH  26  32
BRANCH  27  35
ATOM     34  O   UNL     1     -30.543  19.106   0.375  0.00  0.00    -0.247 OA
ATOM     35  C   UNL     1     -31.624  18.663   0.734  0.00  0.00    +0.344 C 
BRANCH  35  36
ATOM     36  O   UNL     1     -31.776  17.627   1.594  0.00  0.00    -0.478 OA
ATOM     37  H   UNL     1     -32.046  16.789   1.275  0.00  0.00    +0.295 HD
ENDBRANCH  35  36
ENDBRANCH  27  35
ENDBRANCH  21  23
ENDBRANCH  15  21
TORSDOF 8
ENDMDL
MODEL 5
REMARK VINA RESULT:      -6.8      3.170      5.638
REMARK  Name = 195975
REMARK  8 active torsions:
REMARK  status: ('A' for Active; 'I' for Inactive)
REMARK    1  A    between atoms: C_2  and  N_17
REMARK    2  A    between atoms: C_15  and  O_21
REMARK    3  A    between atoms: O_21  and  C_23
REMARK    4  A    between atoms: C_24  and  O_28
REMARK    5  A    between atoms: C_25  and  O_30
REMARK    6  A    between atoms: C_26  and  O_32
REMARK    7  A    between atoms: C_27  and  C_35
REMARK    8  A    between atoms: C_35  and  O_36
REMARK                            x       y       z     vdW  Elec       q    Type
REMARK                         _______ _______ _______ _____ _____    ______ ____
ROOT
ATOM      1  C   UNL     1     -35.251  25.201   3.012  0.00  0.00    +0.001 C 
ATOM      2  C   UNL     1     -35.684  26.267   4.075  0.00  0.00    -0.061 C 
ATOM      3  C   UNL     1     -34.946  26.107   5.420  0.00  0.00    -0.015 C 
ATOM      4  C   UNL     1     -33.787  25.395   2.490  0.00  0.00    +0.002 C 
ATOM      5  C   UNL     1     -35.301  23.785   3.622  0.00  0.00    -0.026 C 
ATOM      6  C   UNL     1     -35.228  24.717   6.019  0.00  0.00    +0.024 C 
ATOM      7  C   UNL     1     -33.431  26.399   5.420  0.00  0.00    -0.002 C 
ATOM      8  C   UNL     1     -35.244  23.583   5.019  0.00  0.00    -0.026 C 
ATOM      9  C   UNL     1     -33.339  26.834   2.215  0.00  0.00    +0.000 C 
ATOM     10  C   UNL     1     -36.192  25.325   1.776  0.00  0.00    +0.002 C 
ATOM     11  C   UNL     1     -33.013  27.663   4.665  0.00  0.00    -0.000 C 
ATOM     12  C   UNL     1     -32.408  27.414   3.283  0.00  0.00    +0.000 C 
ATOM     13  C   UNL     1     -35.333  22.648   2.788  0.00  0.00    +0.032 C 
ATOM     14  C   UNL     1     -35.260  22.274   5.536  0.00  0.00    -0.001 C 
ATOM     15  C   UNL     1     -35.339  21.356   3.316  0.00  0.00    +0.141 C 
ATOM     16  C   UNL     1     -35.306  21.169   4.691  0.00  0.00    +0.037 C 
ENDROOT
BRANCH   2  17
ATOM     17  N   UNL     1     -37.136  26.207   4.352  0.00  0.00    +0.382 N 
ATOM     18  H   UNL     1     -37.303  25.617   5.167  0.00  0.00    -0.089 HD
ATOM     19  H   UNL     1     -37.621  25.816   3.545  0.00  0.00    -0.089 HD
ATOM     20  H   UNL     1     -37.487  27.148   4.537  0.00  0.00    -0.089 HD
ENDBRANCH   2  17
BRANCH  15  21
ATOM     21  O   UNL     1     -35.374  20.282   2.482  0.00  0.00    -0.451 OA
BRANCH  21  23
ATOM     22  O   UNL     1     -36.383  19.758   0.402  0.00  0.00    -0.307 OA
ATOM     23  C   UNL     1     -35.401  20.547   1.082  0.00  0.00    +0.318 C 
ATOM     24  C   UNL     1     -34.001  20.333   0.487  0.00  0.00    +0.210 C 
ATOM     25  C   UNL     1     -33.641  18.848   0.347  0.00  0.00    +0.173 C 
ATOM     26  C   UNL     1     -34.788  18.042  -0.276  0.00  0.00    +0.178 C 
ATOM     27  C   UNL     1     -36.104  18.363   0.432  0.00  0.00    +0.246 C 
BRANCH  24  28
ATOM     28  O   UNL     1     -33.950  20.936  -0.806  0.00  0.00    -0.377 OA
ATOM     29  H   UNL     1     -34.088  20.256  -1.485  0.00  0.00    +0.211 HD
ENDBRANCH  24  28
BRANCH  25  30
ATOM     30  O   UNL     1     -33.343  18.328   1.640  0.00  0.00    -0.379 OA
ATOM     31  H   UNL     1     -32.547  18.759   1.987  0.00  0.00    +0.211 HD
ENDBRANCH  25  30
BRANCH  26  32
ATOM     32  O   UNL     1     -34.899  18.374  -1.659  0.00  0.00    -0.379 OA
ATOM     33  H   UNL     1     -34.775  19.329  -1.774  0.00  0.00    +0.211 HD
ENDBRANCH  26  32
BRANCH  27  35
ATOM     34  O   UNL     1     -37.741  18.053  -1.316  0.00  0.00    -0.247 OA
ATOM     35  C   UNL     1     -37.262  17.704  -0.247  0.00  0.00    +0.344 C 
BRANCH  35  36
ATOM     36  O   UNL     1     -37.717  16.660   0.488  0.00  0.00    -0.478 OA
ATOM     37  H   UNL     1     -37.364  16.498   1.340  0.00  0.00    +0.295 HD
ENDBRANCH  35  36
ENDBRANCH  27  35
ENDBRANCH  21  23
ENDBRANCH  15  21
TORSDOF 8
ENDMDL
MODEL 6
REMARK VINA RESULT:      -6.7      5.242      9.933
REMARK  Name = 195975
REMARK  8 active torsions:
REMARK  status: ('A' for Active; 'I' for Inactive)
REMARK    1  A    between atoms: C_2  and  N_17
REMARK    2  A    between atoms: C_15  and  O_21
REMARK    3  A    between atoms: O_21  and  C_23
REMARK    4  A    between atoms: C_24  and  O_28
REMARK    5  A    between atoms: C_25  and  O_30
REMARK    6  A    between atoms: C_26  and  O_32
REMARK    7  A    between atoms: C_27  and  C_35
REMARK    8  A    between atoms: C_35  and  O_36
REMARK                            x       y       z     vdW  Elec       q    Type
REMARK                         _______ _______ _______ _____ _____    ______ ____
ROOT
ATOM      1  C   UNL     1     -42.908  26.976   2.974  0.00  0.00    +0.001 C 
ATOM      2  C   UNL     1     -43.868  27.199   1.755  0.00  0.00    -0.061 C 
ATOM      3  C   UNL     1     -44.357  25.879   1.126  0.00  0.00    -0.015 C 
ATOM      4  C   UNL     1     -43.624  26.378   4.232  0.00  0.00    +0.002 C 
ATOM      5  C   UNL     1     -41.795  25.975   2.602  0.00  0.00    -0.026 C 
ATOM      6  C   UNL     1     -43.159  25.053   0.624  0.00  0.00    +0.024 C 
ATOM      7  C   UNL     1     -45.295  25.005   1.986  0.00  0.00    -0.002 C 
ATOM      8  C   UNL     1     -41.952  25.062   1.535  0.00  0.00    -0.026 C 
ATOM      9  C   UNL     1     -45.010  26.938   4.567  0.00  0.00    +0.000 C 
ATOM     10  C   UNL     1     -42.320  28.354   3.399  0.00  0.00    +0.002 C 
ATOM     11  C   UNL     1     -46.411  25.765   2.707  0.00  0.00    -0.000 C 
ATOM     12  C   UNL     1     -46.166  26.005   4.197  0.00  0.00    +0.000 C 
ATOM     13  C   UNL     1     -40.615  25.901   3.370  0.00  0.00    +0.032 C 
ATOM     14  C   UNL     1     -40.926  24.142   1.248  0.00  0.00    -0.001 C 
ATOM     15  C   UNL     1     -39.610  24.977   3.077  0.00  0.00    +0.141 C 
ATOM     16  C   UNL     1     -39.765  24.099   2.013  0.00  0.00    +0.037 C 
ENDROOT
BRANCH   2  17
ATOM     17  N   UNL     1     -43.220  27.991   0.685  0.00  0.00    +0.382 N 
ATOM     18  H   UNL     1     -42.658  27.374   0.099  0.00  0.00    -0.089 HD
ATOM     19  H   UNL     1     -42.620  28.702   1.103  0.00  0.00    -0.089 HD
ATOM     20  H   UNL     1     -43.936  28.443   0.115  0.00  0.00    -0.089 HD
ENDBRANCH   2  17
BRANCH  15  21
ATOM     21  O   UNL     1     -38.483  24.935   3.838  0.00  0.00    -0.451 OA
BRANCH  21  23
ATOM     22  O   UNL     1     -36.634  23.453   3.778  0.00  0.00    -0.307 OA
ATOM     23  C   UNL     1     -37.268  24.589   3.179  0.00  0.00    +0.318 C 
ATOM     24  C   UNL     1     -36.328  25.803   3.150  0.00  0.00    +0.210 C 
ATOM     25  C   UNL     1     -35.681  26.081   4.514  0.00  0.00    +0.173 C 
ATOM     26  C   UNL     1     -35.134  24.798   5.153  0.00  0.00    +0.178 C 
ATOM     27  C   UNL     1     -36.190  23.693   5.108  0.00  0.00    +0.246 C 
BRANCH  24  28
ATOM     28  O   UNL     1     -35.293  25.566   2.197  0.00  0.00    -0.377 OA
ATOM     29  H   UNL     1     -34.581  25.056   2.614  0.00  0.00    +0.211 HD
ENDBRANCH  24  28
BRANCH  25  30
ATOM     30  O   UNL     1     -36.660  26.659   5.374  0.00  0.00    -0.379 OA
ATOM     31  H   UNL     1     -37.545  26.495   5.012  0.00  0.00    +0.211 HD
ENDBRANCH  25  30
BRANCH  26  32
ATOM     32  O   UNL     1     -33.973  24.375   4.440  0.00  0.00    -0.379 OA
ATOM     33  H   UNL     1     -33.967  24.784   3.560  0.00  0.00    +0.211 HD
ENDBRANCH  26  32
BRANCH  27  35
ATOM     34  O   UNL     1     -35.313  22.151   6.746  0.00  0.00    -0.247 OA
ATOM     35  C   UNL     1     -35.636  22.391   5.592  0.00  0.00    +0.344 C 
BRANCH  35  36
ATOM     36  O   UNL     1     -35.536  21.505   4.572  0.00  0.00    -0.478 OA
ATOM     37  H   UNL     1     -36.035  20.713   4.589  0.00  0.00    +0.295 HD
ENDBRANCH  35  36
ENDBRANCH  27  35
ENDBRANCH  21  23
ENDBRANCH  15  21
TORSDOF 8
ENDMDL
MODEL 7
REMARK VINA RESULT:      -6.6      5.180      7.973
REMARK  Name = 195975
REMARK  8 active torsions:
REMARK  status: ('A' for Active; 'I' for Inactive)
REMARK    1  A    between atoms: C_2  and  N_17
REMARK    2  A    between atoms: C_15  and  O_21
REMARK    3  A    between atoms: O_21  and  C_23
REMARK    4  A    between atoms: C_24  and  O_28
REMARK    5  A    between atoms: C_25  and  O_30
REMARK    6  A    between atoms: C_26  and  O_32
REMARK    7  A    between atoms: C_27  and  C_35
REMARK    8  A    between atoms: C_35  and  O_36
REMARK                            x       y       z     vdW  Elec       q    Type
REMARK                         _______ _______ _______ _____ _____    ______ ____
ROOT
ATOM      1  C   UNL     1     -33.750  20.331  -0.436  0.00  0.00    +0.001 C 
ATOM      2  C   UNL     1     -32.720  19.762  -1.471  0.00  0.00    -0.061 C 
ATOM      3  C   UNL     1     -31.276  20.227  -1.197  0.00  0.00    -0.015 C 
ATOM      4  C   UNL     1     -33.589  19.729   1.001  0.00  0.00    +0.002 C 
ATOM      5  C   UNL     1     -33.570  21.855  -0.282  0.00  0.00    -0.026 C 
ATOM      6  C   UNL     1     -31.190  21.763  -1.256  0.00  0.00    +0.024 C 
ATOM      7  C   UNL     1     -30.608  19.697   0.090  0.00  0.00    -0.002 C 
ATOM      8  C   UNL     1     -32.357  22.491  -0.628  0.00  0.00    -0.026 C 
ATOM      9  C   UNL     1     -33.311  18.225   1.092  0.00  0.00    +0.000 C 
ATOM     10  C   UNL     1     -35.187  19.970  -0.919  0.00  0.00    +0.002 C 
ATOM     11  C   UNL     1     -30.809  18.204   0.358  0.00  0.00    -0.000 C 
ATOM     12  C   UNL     1     -31.857  17.879   1.423  0.00  0.00    +0.000 C 
ATOM     13  C   UNL     1     -34.596  22.643   0.279  0.00  0.00    +0.032 C 
ATOM     14  C   UNL     1     -32.220  23.880  -0.442  0.00  0.00    -0.001 C 
ATOM     15  C   UNL     1     -34.442  24.018   0.464  0.00  0.00    +0.141 C 
ATOM     16  C   UNL     1     -33.254  24.637   0.100  0.00  0.00    +0.037 C 
ENDROOT
BRANCH   2  17
ATOM     17  N   UNL     1     -33.061  20.157  -2.857  0.00  0.00    +0.382 N 
ATOM     18  H   UNL     1     -33.463  21.094  -2.854  0.00  0.00    -0.089 HD
ATOM     19  H   UNL     1     -33.737  19.498  -3.242  0.00  0.00    -0.089 HD
ATOM     20  H   UNL     1     -32.216  20.151  -3.430  0.00  0.00    -0.089 HD
ENDBRANCH   2  17
BRANCH  15  21
ATOM     21  O   UNL     1     -35.455  24.748   1.005  0.00  0.00    -0.451 OA
BRANCH  21  23
ATOM     22  O   UNL     1     -34.913  24.886   3.308  0.00  0.00    -0.307 OA
ATOM     23  C   UNL     1     -35.125  25.609   2.091  0.00  0.00    +0.318 C 
ATOM     24  C   UNL     1     -36.218  26.676   2.257  0.00  0.00    +0.210 C 
ATOM     25  C   UNL     1     -37.496  26.116   2.897  0.00  0.00    +0.173 C 
ATOM     26  C   UNL     1     -37.183  25.248   4.123  0.00  0.00    +0.178 C 
ATOM     27  C   UNL     1     -36.085  24.238   3.790  0.00  0.00    +0.246 C 
BRANCH  24  28
ATOM     28  O   UNL     1     -35.719  27.725   3.086  0.00  0.00    -0.377 OA
ATOM     29  H   UNL     1     -36.255  27.783   3.892  0.00  0.00    +0.211 HD
ENDBRANCH  24  28
BRANCH  25  30
ATOM     30  O   UNL     1     -38.186  25.333   1.926  0.00  0.00    -0.379 OA
ATOM     31  H   UNL     1     -37.542  24.854   1.380  0.00  0.00    +0.211 HD
ENDBRANCH  25  30
BRANCH  26  32
ATOM     32  O   UNL     1     -36.749  26.086   5.193  0.00  0.00    -0.379 OA
ATOM     33  H   UNL     1     -36.369  25.539   5.898  0.00  0.00    +0.211 HD
ENDBRANCH  26  32
BRANCH  27  35
ATOM     34  O   UNL     1     -34.858  23.878   5.838  0.00  0.00    -0.247 OA
ATOM     35  C   UNL     1     -35.658  23.478   5.005  0.00  0.00    +0.344 C 
BRANCH  35  36
ATOM     36  O   UNL     1     -36.278  22.275   5.060  0.00  0.00    -0.478 OA
ATOM     37  H   UNL     1     -35.808  21.495   4.841  0.00  0.00    +0.295 HD
ENDBRANCH  35  36
ENDBRANCH  27  35
ENDBRANCH  21  23
ENDBRANCH  15  21
TORSDOF 8
ENDMDL
MODEL 8
REMARK VINA RESULT:      -6.6      3.957      8.359
REMARK  Name = 195975
REMARK  8 active torsions:
REMARK  status: ('A' for Active; 'I' for Inactive)
REMARK    1  A    between atoms: C_2  and  N_17
REMARK    2  A    between atoms: C_15  and  O_21
REMARK    3  A    between atoms: O_21  and  C_23
REMARK    4  A    between atoms: C_24  and  O_28
REMARK    5  A    between atoms: C_25  and  O_30
REMARK    6  A    between atoms: C_26  and  O_32
REMARK    7  A    between atoms: C_27  and  C_35
REMARK    8  A    between atoms: C_35  and  O_36
REMARK                            x       y       z     vdW  Elec       q    Type
REMARK                         _______ _______ _______ _____ _____    ______ ____
ROOT
ATOM      1  C   UNL     1     -35.702  24.961   4.172  0.00  0.00    +0.001 C 
ATOM      2  C   UNL     1     -36.949  25.013   3.225  0.00  0.00    -0.061 C 
ATOM      3  C   UNL     1     -36.567  25.054   1.732  0.00  0.00    -0.015 C 
ATOM      4  C   UNL     1     -34.919  23.605   4.103  0.00  0.00    +0.002 C 
ATOM      5  C   UNL     1     -34.689  26.058   3.785  0.00  0.00    -0.026 C 
ATOM      6  C   UNL     1     -35.711  26.299   1.435  0.00  0.00    +0.024 C 
ATOM      7  C   UNL     1     -35.902  23.789   1.150  0.00  0.00    -0.002 C 
ATOM      8  C   UNL     1     -34.684  26.632   2.495  0.00  0.00    -0.026 C 
ATOM      9  C   UNL     1     -35.760  22.327   4.034  0.00  0.00    +0.000 C 
ATOM     10  C   UNL     1     -36.191  25.126   5.642  0.00  0.00    +0.002 C 
ATOM     11  C   UNL     1     -36.557  22.466   1.555  0.00  0.00    -0.000 C 
ATOM     12  C   UNL     1     -35.814  21.690   2.643  0.00  0.00    +0.000 C 
ATOM     13  C   UNL     1     -33.692  26.463   4.696  0.00  0.00    +0.032 C 
ATOM     14  C   UNL     1     -33.722  27.608   2.169  0.00  0.00    -0.001 C 
ATOM     15  C   UNL     1     -32.740  27.426   4.355  0.00  0.00    +0.141 C 
ATOM     16  C   UNL     1     -32.758  28.001   3.092  0.00  0.00    +0.037 C 
ENDROOT
BRANCH   2  17
ATOM     17  N   UNL     1     -37.799  26.193   3.501  0.00  0.00    +0.382 N 
ATOM     18  H   UNL     1     -37.532  26.601   4.397  0.00  0.00    -0.089 HD
ATOM     19  H   UNL     1     -38.778  25.907   3.537  0.00  0.00    -0.089 HD
ATOM     20  H   UNL     1     -37.673  26.884   2.762  0.00  0.00    -0.089 HD
ENDBRANCH   2  17
BRANCH  15  21
ATOM     21  O   UNL     1     -31.795  27.797   5.260  0.00  0.00    -0.451 OA
BRANCH  21  23
ATOM     22  O   UNL     1     -29.442  27.956   5.020  0.00  0.00    -0.307 OA
ATOM     23  C   UNL     1     -30.707  28.581   4.778  0.00  0.00    +0.318 C 
ATOM     24  C   UNL     1     -30.765  29.985   5.398  0.00  0.00    +0.210 C 
ATOM     25  C   UNL     1     -30.317  30.000   6.866  0.00  0.00    +0.173 C 
ATOM     26  C   UNL     1     -29.021  29.206   7.072  0.00  0.00    +0.178 C 
ATOM     27  C   UNL     1     -29.129  27.836   6.403  0.00  0.00    +0.246 C 
BRANCH  24  28
ATOM     28  O   UNL     1     -29.913  30.856   4.655  0.00  0.00    -0.377 OA
ATOM     29  H   UNL     1     -29.338  31.343   5.265  0.00  0.00    +0.211 HD
ENDBRANCH  24  28
BRANCH  25  30
ATOM     30  O   UNL     1     -31.352  29.432   7.664  0.00  0.00    -0.379 OA
ATOM     31  H   UNL     1     -31.739  28.673   7.200  0.00  0.00    +0.211 HD
ENDBRANCH  25  30
BRANCH  26  32
ATOM     32  O   UNL     1     -27.931  29.929   6.500  0.00  0.00    -0.379 OA
ATOM     33  H   UNL     1     -27.113  29.418   6.606  0.00  0.00    +0.211 HD
ENDBRANCH  26  32
BRANCH  27  35
ATOM     34  O   UNL     1     -27.019  27.174   7.373  0.00  0.00    -0.247 OA
ATOM     35  C   UNL     1     -27.829  27.098   6.461  0.00  0.00    +0.344 C 
BRANCH  35  36
ATOM     36  O   UNL     1     -27.665  26.329   5.358  0.00  0.00    -0.478 OA
ATOM     37  H   UNL     1     -28.365  26.240   4.741  0.00  0.00    +0.295 HD
ENDBRANCH  35  36
ENDBRANCH  27  35
ENDBRANCH  21  23
ENDBRANCH  15  21
TORSDOF 8
ENDMDL
MODEL 9
REMARK VINA RESULT:      -6.5      3.080      5.483
REMARK  Name = 195975
REMARK  8 active torsions:
REMARK  status: ('A' for Active; 'I' for Inactive)
REMARK    1  A    between atoms: C_2  and  N_17
REMARK    2  A    between atoms: C_15  and  O_21
REMARK    3  A    between atoms: O_21  and  C_23
REMARK    4  A    between atoms: C_24  and  O_28
REMARK    5  A    between atoms: C_25  and  O_30
REMARK    6  A    between atoms: C_26  and  O_32
REMARK    7  A    between atoms: C_27  and  C_35
REMARK    8  A    between atoms: C_35  and  O_36
REMARK                            x       y       z     vdW  Elec       q    Type
REMARK                         _______ _______ _______ _____ _____    ______ ____
ROOT
ATOM      1  C   UNL     1     -35.284  25.486   2.766  0.00  0.00    +0.001 C 
ATOM      2  C   UNL     1     -35.741  26.344   3.995  0.00  0.00    -0.061 C 
ATOM      3  C   UNL     1     -35.068  25.912   5.313  0.00  0.00    -0.015 C 
ATOM      4  C   UNL     1     -33.794  25.733   2.350  0.00  0.00    +0.002 C 
ATOM      5  C   UNL     1     -35.390  23.982   3.094  0.00  0.00    -0.026 C 
ATOM      6  C   UNL     1     -35.405  24.443   5.626  0.00  0.00    +0.024 C 
ATOM      7  C   UNL     1     -33.548  26.155   5.429  0.00  0.00    -0.002 C 
ATOM      8  C   UNL     1     -35.400  23.519   4.428  0.00  0.00    -0.026 C 
ATOM      9  C   UNL     1     -33.305  27.185   2.370  0.00  0.00    +0.000 C 
ATOM     10  C   UNL     1     -36.165  25.868   1.540  0.00  0.00    +0.002 C 
ATOM     11  C   UNL     1     -33.071  27.526   4.945  0.00  0.00    -0.000 C 
ATOM     12  C   UNL     1     -32.411  27.525   3.566  0.00  0.00    +0.000 C 
ATOM     13  C   UNL     1     -35.408  23.025   2.058  0.00  0.00    +0.032 C 
ATOM     14  C   UNL     1     -35.466  22.136   4.686  0.00  0.00    -0.001 C 
ATOM     15  C   UNL     1     -35.465  21.657   2.331  0.00  0.00    +0.141 C 
ATOM     16  C   UNL     1     -35.497  21.213   3.645  0.00  0.00    +0.037 C 
ENDROOT
BRANCH   2  17
ATOM     17  N   UNL     1     -37.206  26.275   4.197  0.00  0.00    +0.382 N 
ATOM     18  H   UNL     1     -37.496  25.299   4.245  0.00  0.00    -0.089 HD
ATOM     19  H   UNL     1     -37.679  26.732   3.418  0.00  0.00    -0.089 HD
ATOM     20  H   UNL     1     -37.452  26.747   5.068  0.00  0.00    -0.089 HD
ENDBRANCH   2  17
BRANCH  15  21
ATOM     21  O   UNL     1     -35.485  20.761   1.307  0.00  0.00    -0.451 OA
BRANCH  21  23
ATOM     22  O   UNL     1     -37.403  21.641   0.228  0.00  0.00    -0.307 OA
ATOM     23  C   UNL     1     -36.050  21.196   0.074  0.00  0.00    +0.318 C 
ATOM     24  C   UNL     1     -35.946  20.073  -0.969  0.00  0.00    +0.210 C 
ATOM     25  C   UNL     1     -36.964  18.950  -0.730  0.00  0.00    +0.173 C 
ATOM     26  C   UNL     1     -38.366  19.505  -0.449  0.00  0.00    +0.178 C 
ATOM     27  C   UNL     1     -38.297  20.604   0.612  0.00  0.00    +0.246 C 
BRANCH  24  28
ATOM     28  O   UNL     1     -36.174  20.623  -2.266  0.00  0.00    -0.377 OA
ATOM     29  H   UNL     1     -35.551  20.232  -2.897  0.00  0.00    +0.211 HD
ENDBRANCH  24  28
BRANCH  25  30
ATOM     30  O   UNL     1     -36.531  18.172   0.383  0.00  0.00    -0.379 OA
ATOM     31  H   UNL     1     -35.597  18.360   0.565  0.00  0.00    +0.211 HD
ENDBRANCH  25  30
BRANCH  26  32
ATOM     32  O   UNL     1     -38.909  20.043  -1.654  0.00  0.00    -0.379 OA
ATOM     33  H   UNL     1     -39.784  19.656  -1.815  0.00  0.00    +0.211 HD
ENDBRANCH  26  32
BRANCH  27  35
ATOM     34  O   UNL     1     -40.192  21.952  -0.035  0.00  0.00    -0.247 OA
ATOM     35  C   UNL     1     -39.626  21.263   0.801  0.00  0.00    +0.344 C 
BRANCH  35  36
ATOM     36  O   UNL     1     -40.122  20.996   2.033  0.00  0.00    -0.478 OA
ATOM     37  H   UNL     1     -40.553  20.181   2.198  0.00  0.00    +0.295 HD
ENDBRANCH  35  36
ENDBRANCH  27  35
ENDBRANCH  21  23
ENDBRANCH  15  21
TORSDOF 8
ENDMDL
