MODEL 1
REMARK VINA RESULT:      -6.7      0.000      0.000
REMARK  Name = 195120
REMARK  11 active torsions:
REMARK  status: ('A' for Active; 'I' for Inactive)
REMARK    1  A    between atoms: C_6  and  C_26
REMARK    2  A    between atoms: C_10  and  O_20
REMARK    3  A    between atoms: C_12  and  O_22
REMARK    4  A    between atoms: C_19  and  O_24
REMARK    5  A    between atoms: C_26  and  C_28
REMARK    6  A    between atoms: C_28  and  C_29
REMARK    7  A    between atoms: C_29  and  C_30
REMARK    8  A    between atoms: C_30  and  C_31
REMARK    9  A    between atoms: C_31  and  O_33
REMARK   10  A    between atoms: C_31  and  C_35
REMARK   11  A    between atoms: C_35  and  O_36
REMARK                            x       y       z     vdW  Elec       q    Type
REMARK                         _______ _______ _______ _____ _____    ______ ____
ROOT
ATOM      1  C   UNL     1     -33.878  25.570   4.298  0.00  0.00    +0.002 C 
ATOM      2  C   UNL     1     -35.019  24.809   3.606  0.00  0.00    +0.029 C 
ATOM      3  C   UNL     1     -33.239  26.653   3.401  0.00  0.00    +0.000 C 
ATOM      4  C   UNL     1     -34.449  24.115   2.322  0.00  0.00    +0.002 C 
ATOM      5  C   UNL     1     -35.565  23.318   1.545  0.00  0.00    +0.003 C 
ATOM      6  C   UNL     1     -32.218  27.239   4.408  0.00  0.00    +0.000 C 
ATOM      7  C   UNL     1     -36.244  22.289   2.519  0.00  0.00    +0.032 C 
ATOM      8  C   UNL     1     -32.613  25.943   2.195  0.00  0.00    +0.000 C 
ATOM      9  C   UNL     1     -33.652  25.106   1.428  0.00  0.00    +0.000 C 
ATOM     10  C   UNL     1     -35.702  23.801   4.553  0.00  0.00    +0.137 C 
ATOM     11  C   UNL     1     -34.172  26.313   5.599  0.00  0.00    +0.000 C 
ATOM     12  C   UNL     1     -36.742  22.924   3.841  0.00  0.00    +0.137 C 
ATOM     13  C   UNL     1     -33.014  27.318   5.731  0.00  0.00    +0.000 C 
ATOM     14  C   UNL     1     -35.000  22.542   0.315  0.00  0.00    +0.003 C 
ATOM     15  C   UNL     1     -34.229  27.741   2.914  0.00  0.00    +0.000 C 
ATOM     16  C   UNL     1     -35.337  21.074   2.825  0.00  0.00    +0.032 C 
ATOM     17  C   UNL     1     -36.630  24.283   0.955  0.00  0.00    +0.000 C 
ATOM     18  C   UNL     1     -34.094  21.373   0.669  0.00  0.00    +0.029 C 
ATOM     19  C   UNL     1     -34.826  20.385   1.566  0.00  0.00    +0.111 C 
ENDROOT
BRANCH  10  20
ATOM     20  O   UNL     1     -34.722  22.983   5.185  0.00  0.00    -0.382 OA
ATOM     21  H   UNL     1     -35.068  22.082   5.282  0.00  0.00    +0.210 HD
ENDBRANCH  10  20
BRANCH  12  22
ATOM     22  O   UNL     1     -37.899  23.724   3.598  0.00  0.00    -0.382 OA
ATOM     23  H   UNL     1     -38.696  23.214   3.814  0.00  0.00    +0.210 HD
ENDBRANCH  12  22
BRANCH  19  24
ATOM     24  O   UNL     1     -33.939  19.339   1.949  0.00  0.00    -0.384 OA
ATOM     25  H   UNL     1     -33.121  19.404   1.434  0.00  0.00    +0.210 HD
ENDBRANCH  19  24
BRANCH   6  26
ATOM     26  C   UNL     1     -31.568  28.562   4.027  0.00  0.00    +0.000 C 
ATOM     27  C   UNL     1     -30.093  28.339   3.675  0.00  0.00    +0.000 C 
BRANCH  26  28
ATOM     28  C   UNL     1     -31.745  29.586   5.168  0.00  0.00    +0.000 C 
BRANCH  28  29
ATOM     29  C   UNL     1     -30.423  30.098   5.752  0.00  0.00    +0.002 C 
BRANCH  29  30
ATOM     30  C   UNL     1     -30.157  29.486   7.135  0.00  0.00    +0.029 C 
BRANCH  30  31
ATOM     31  C   UNL     1     -28.665  29.263   7.463  0.00  0.00    +0.115 C 
ATOM     32  C   UNL     1     -27.825  30.340   6.764  0.00  0.00    +0.032 C 
BRANCH  31  33
ATOM     33  O   UNL     1     -28.493  29.432   8.874  0.00  0.00    -0.384 OA
ATOM     34  H   UNL     1     -29.258  29.906   9.238  0.00  0.00    +0.210 HD
ENDBRANCH  31  33
BRANCH  31  35
ATOM     35  C   UNL     1     -28.198  27.850   7.084  0.00  0.00    +0.164 C 
BRANCH  35  36
ATOM     36  O   UNL     1     -29.312  26.969   6.979  0.00  0.00    -0.380 OA
ATOM     37  H   UNL     1     -29.079  26.106   7.356  0.00  0.00    +0.211 HD
ENDBRANCH  35  36
ENDBRANCH  31  35
ENDBRANCH  30  31
ENDBRANCH  29  30
ENDBRANCH  28  29
ENDBRANCH  26  28
ENDBRANCH   6  26
TORSDOF 11
ENDMDL
MODEL 2
REMARK VINA RESULT:      -6.6      3.381      6.248
REMARK  Name = 195120
REMARK  11 active torsions:
REMARK  status: ('A' for Active; 'I' for Inactive)
REMARK    1  A    between atoms: C_6  and  C_26
REMARK    2  A    between atoms: C_10  and  O_20
REMARK    3  A    between atoms: C_12  and  O_22
REMARK    4  A    between atoms: C_19  and  O_24
REMARK    5  A    between atoms: C_26  and  C_28
REMARK    6  A    between atoms: C_28  and  C_29
REMARK    7  A    between atoms: C_29  and  C_30
REMARK    8  A    between atoms: C_30  and  C_31
REMARK    9  A    between atoms: C_31  and  O_33
REMARK   10  A    between atoms: C_31  and  C_35
REMARK   11  A    between atoms: C_35  and  O_36
REMARK                            x       y       z     vdW  Elec       q    Type
REMARK                         _______ _______ _______ _____ _____    ______ ____
ROOT
ATOM      1  C   UNL     1     -37.171  21.633   1.819  0.00  0.00    +0.002 C 
ATOM      2  C   UNL     1     -37.017  21.024   0.416  0.00  0.00    +0.029 C 
ATOM      3  C   UNL     1     -35.822  21.864   2.532  0.00  0.00    +0.000 C 
ATOM      4  C   UNL     1     -36.286  19.645   0.550  0.00  0.00    +0.002 C 
ATOM      5  C   UNL     1     -36.078  18.955  -0.852  0.00  0.00    +0.003 C 
ATOM      6  C   UNL     1     -36.339  22.527   3.833  0.00  0.00    +0.000 C 
ATOM      7  C   UNL     1     -37.466  18.820  -1.577  0.00  0.00    +0.032 C 
ATOM      8  C   UNL     1     -35.164  20.493   2.729  0.00  0.00    +0.000 C 
ATOM      9  C   UNL     1     -34.984  19.753   1.392  0.00  0.00    +0.000 C 
ATOM     10  C   UNL     1     -38.371  20.892  -0.312  0.00  0.00    +0.137 C 
ATOM     11  C   UNL     1     -37.885  22.975   1.962  0.00  0.00    +0.000 C 
ATOM     12  C   UNL     1     -38.259  20.148  -1.649  0.00  0.00    +0.137 C 
ATOM     13  C   UNL     1     -37.435  23.498   3.339  0.00  0.00    +0.000 C 
ATOM     14  C   UNL     1     -35.437  17.538  -0.733  0.00  0.00    +0.003 C 
ATOM     15  C   UNL     1     -34.854  22.806   1.774  0.00  0.00    +0.000 C 
ATOM     16  C   UNL     1     -38.350  17.710  -0.962  0.00  0.00    +0.032 C 
ATOM     17  C   UNL     1     -35.091  19.770  -1.731  0.00  0.00    +0.000 C 
ATOM     18  C   UNL     1     -36.338  16.490  -0.099  0.00  0.00    +0.029 C 
ATOM     19  C   UNL     1     -37.640  16.365  -0.878  0.00  0.00    +0.111 C 
ENDROOT
BRANCH  10  20
ATOM     20  O   UNL     1     -39.318  20.244   0.531  0.00  0.00    -0.382 OA
ATOM     21  H   UNL     1     -39.786  19.561   0.026  0.00  0.00    +0.210 HD
ENDBRANCH  10  20
BRANCH  12  22
ATOM     22  O   UNL     1     -37.654  21.031  -2.595  0.00  0.00    -0.382 OA
ATOM     23  H   UNL     1     -38.291  21.240  -3.295  0.00  0.00    +0.210 HD
ENDBRANCH  12  22
BRANCH  19  24
ATOM     24  O   UNL     1     -38.500  15.436  -0.227  0.00  0.00    -0.384 OA
ATOM     25  H   UNL     1     -39.152  15.099  -0.860  0.00  0.00    +0.210 HD
ENDBRANCH  19  24
BRANCH   6  26
ATOM     26  C   UNL     1     -35.298  23.206   4.713  0.00  0.00    +0.000 C 
ATOM     27  C   UNL     1     -34.872  22.263   5.843  0.00  0.00    +0.000 C 
BRANCH  26  28
ATOM     28  C   UNL     1     -35.849  24.544   5.248  0.00  0.00    +0.000 C 
BRANCH  28  29
ATOM     29  C   UNL     1     -34.766  25.593   5.526  0.00  0.00    +0.002 C 
BRANCH  29  30
ATOM     30  C   UNL     1     -33.882  25.815   4.290  0.00  0.00    +0.029 C 
BRANCH  30  31
ATOM     31  C   UNL     1     -34.288  27.022   3.416  0.00  0.00    +0.115 C 
ATOM     32  C   UNL     1     -34.745  26.522   2.040  0.00  0.00    +0.032 C 
BRANCH  31  33
ATOM     33  O   UNL     1     -35.409  27.659   4.037  0.00  0.00    -0.384 OA
ATOM     34  H   UNL     1     -36.208  27.489   3.514  0.00  0.00    +0.210 HD
ENDBRANCH  31  33
BRANCH  31  35
ATOM     35  C   UNL     1     -33.153  28.050   3.295  0.00  0.00    +0.164 C 
BRANCH  35  36
ATOM     36  O   UNL     1     -33.019  28.789   4.505  0.00  0.00    -0.380 OA
ATOM     37  H   UNL     1     -32.904  29.730   4.299  0.00  0.00    +0.211 HD
ENDBRANCH  35  36
ENDBRANCH  31  35
ENDBRANCH  30  31
ENDBRANCH  29  30
ENDBRANCH  28  29
ENDBRANCH  26  28
ENDBRANCH   6  26
TORSDOF 11
ENDMDL
MODEL 3
REMARK VINA RESULT:      -6.2      2.001      8.846
REMARK  Name = 195120
REMARK  11 active torsions:
REMARK  status: ('A' for Active; 'I' for Inactive)
REMARK    1  A    between atoms: C_6  and  C_26
REMARK    2  A    between atoms: C_10  and  O_20
REMARK    3  A    between atoms: C_12  and  O_22
REMARK    4  A    between atoms: C_19  and  O_24
REMARK    5  A    between atoms: C_26  and  C_28
REMARK    6  A    between atoms: C_28  and  C_29
REMARK    7  A    between atoms: C_29  and  C_30
REMARK    8  A    between atoms: C_30  and  C_31
REMARK    9  A    between atoms: C_31  and  O_33
REMARK   10  A    between atoms: C_31  and  C_35
REMARK   11  A    between atoms: C_35  and  O_36
REMARK                            x       y       z     vdW  Elec       q    Type
REMARK                         _______ _______ _______ _____ _____    ______ ____
ROOT
ATOM      1  C   UNL     1     -32.976  25.923   3.075  0.00  0.00    +0.002 C 
ATOM      2  C   UNL     1     -32.342  27.323   3.121  0.00  0.00    +0.029 C 
ATOM      3  C   UNL     1     -34.232  25.796   3.965  0.00  0.00    +0.000 C 
ATOM      4  C   UNL     1     -31.933  27.635   4.601  0.00  0.00    +0.002 C 
ATOM      5  C   UNL     1     -31.281  29.064   4.737  0.00  0.00    +0.003 C 
ATOM      6  C   UNL     1     -34.628  24.337   3.628  0.00  0.00    +0.000 C 
ATOM      7  C   UNL     1     -30.062  29.176   3.752  0.00  0.00    +0.032 C 
ATOM      8  C   UNL     1     -33.793  26.021   5.417  0.00  0.00    +0.000 C 
ATOM      9  C   UNL     1     -33.101  27.385   5.596  0.00  0.00    +0.000 C 
ATOM     10  C   UNL     1     -31.149  27.451   2.152  0.00  0.00    +0.137 C 
ATOM     11  C   UNL     1     -33.436  25.369   1.729  0.00  0.00    +0.000 C 
ATOM     12  C   UNL     1     -30.408  28.788   2.293  0.00  0.00    +0.137 C 
ATOM     13  C   UNL     1     -34.422  24.246   2.099  0.00  0.00    +0.000 C 
ATOM     14  C   UNL     1     -30.781  29.359   6.185  0.00  0.00    +0.003 C 
ATOM     15  C   UNL     1     -35.371  26.781   3.603  0.00  0.00    +0.000 C 
ATOM     16  C   UNL     1     -28.833  28.373   4.235  0.00  0.00    +0.032 C 
ATOM     17  C   UNL     1     -32.319  30.180   4.437  0.00  0.00    +0.000 C 
ATOM     18  C   UNL     1     -29.586  28.524   6.621  0.00  0.00    +0.029 C 
ATOM     19  C   UNL     1     -28.422  28.720   5.660  0.00  0.00    +0.111 C 
ENDROOT
BRANCH  10  20
ATOM     20  O   UNL     1     -30.244  26.368   2.344  0.00  0.00    -0.382 OA
ATOM     21  H   UNL     1     -30.733  25.591   2.656  0.00  0.00    +0.210 HD
ENDBRANCH  10  20
BRANCH  12  22
ATOM     22  O   UNL     1     -31.213  29.803   1.691  0.00  0.00    -0.382 OA
ATOM     23  H   UNL     1     -30.702  30.625   1.629  0.00  0.00    +0.210 HD
ENDBRANCH  12  22
BRANCH  19  24
ATOM     24  O   UNL     1     -27.341  27.874   6.041  0.00  0.00    -0.384 OA
ATOM     25  H   UNL     1     -26.565  28.415   6.253  0.00  0.00    +0.210 HD
ENDBRANCH  19  24
BRANCH   6  26
ATOM     26  C   UNL     1     -36.016  23.889   4.067  0.00  0.00    +0.000 C 
ATOM     27  C   UNL     1     -35.916  22.587   4.868  0.00  0.00    +0.000 C 
BRANCH  26  28
ATOM     28  C   UNL     1     -36.939  23.748   2.839  0.00  0.00    +0.000 C 
BRANCH  28  29
ATOM     29  C   UNL     1     -37.494  22.332   2.640  0.00  0.00    +0.002 C 
BRANCH  29  30
ATOM     30  C   UNL     1     -36.912  21.684   1.375  0.00  0.00    +0.029 C 
BRANCH  30  31
ATOM     31  C   UNL     1     -36.314  20.277   1.591  0.00  0.00    +0.115 C 
ATOM     32  C   UNL     1     -34.823  20.406   1.928  0.00  0.00    +0.032 C 
BRANCH  31  33
ATOM     33  O   UNL     1     -36.962  19.690   2.723  0.00  0.00    -0.384 OA
ATOM     34  H   UNL     1     -36.348  19.087   3.171  0.00  0.00    +0.210 HD
ENDBRANCH  31  33
BRANCH  31  35
ATOM     35  C   UNL     1     -36.540  19.364   0.376  0.00  0.00    +0.164 C 
BRANCH  35  36
ATOM     36  O   UNL     1     -37.111  18.125   0.784  0.00  0.00    -0.380 OA
ATOM     37  H   UNL     1     -38.074  18.160   0.670  0.00  0.00    +0.211 HD
ENDBRANCH  35  36
ENDBRANCH  31  35
ENDBRANCH  30  31
ENDBRANCH  29  30
ENDBRANCH  28  29
ENDBRANCH  26  28
ENDBRANCH   6  26
TORSDOF 11
ENDMDL
MODEL 4
REMARK VINA RESULT:      -6.0      3.666     10.051
REMARK  Name = 195120
REMARK  11 active torsions:
REMARK  status: ('A' for Active; 'I' for Inactive)
REMARK    1  A    between atoms: C_6  and  C_26
REMARK    2  A    between atoms: C_10  and  O_20
REMARK    3  A    between atoms: C_12  and  O_22
REMARK    4  A    between atoms: C_19  and  O_24
REMARK    5  A    between atoms: C_26  and  C_28
REMARK    6  A    between atoms: C_28  and  C_29
REMARK    7  A    between atoms: C_29  and  C_30
REMARK    8  A    between atoms: C_30  and  C_31
REMARK    9  A    between atoms: C_31  and  O_33
REMARK   10  A    between atoms: C_31  and  C_35
REMARK   11  A    between atoms: C_35  and  O_36
REMARK                            x       y       z     vdW  Elec       q    Type
REMARK                         _______ _______ _______ _____ _____    ______ ____
ROOT
ATOM      1  C   UNL     1     -34.148  22.214   0.743  0.00  0.00    +0.002 C 
ATOM      2  C   UNL     1     -35.065  23.341   1.247  0.00  0.00    +0.029 C 
ATOM      3  C   UNL     1     -34.684  20.803   1.071  0.00  0.00    +0.000 C 
ATOM      4  C   UNL     1     -35.204  23.213   2.801  0.00  0.00    +0.002 C 
ATOM      5  C   UNL     1     -36.142  24.331   3.398  0.00  0.00    +0.003 C 
ATOM      6  C   UNL     1     -33.588  19.954   0.381  0.00  0.00    +0.000 C 
ATOM      7  C   UNL     1     -35.605  25.744   2.967  0.00  0.00    +0.032 C 
ATOM      8  C   UNL     1     -34.731  20.670   2.598  0.00  0.00    +0.000 C 
ATOM      9  C   UNL     1     -35.594  21.773   3.237  0.00  0.00    +0.000 C 
ATOM     10  C   UNL     1     -34.556  24.734   0.824  0.00  0.00    +0.137 C 
ATOM     11  C   UNL     1     -33.829  22.137  -0.747  0.00  0.00    +0.000 C 
ATOM     12  C   UNL     1     -35.371  25.879   1.442  0.00  0.00    +0.137 C 
ATOM     13  C   UNL     1     -33.342  20.691  -0.956  0.00  0.00    +0.000 C 
ATOM     14  C   UNL     1     -36.219  24.280   4.956  0.00  0.00    +0.003 C 
ATOM     15  C   UNL     1     -36.082  20.499   0.475  0.00  0.00    +0.000 C 
ATOM     16  C   UNL     1     -34.328  26.154   3.737  0.00  0.00    +0.032 C 
ATOM     17  C   UNL     1     -37.606  24.143   2.917  0.00  0.00    +0.000 C 
ATOM     18  C   UNL     1     -34.929  24.667   5.663  0.00  0.00    +0.029 C 
ATOM     19  C   UNL     1     -34.494  26.065   5.249  0.00  0.00    +0.111 C 
ENDROOT
BRANCH  10  20
ATOM     20  O   UNL     1     -33.180  24.876   1.161  0.00  0.00    -0.382 OA
ATOM     21  H   UNL     1     -33.088  24.944   2.124  0.00  0.00    +0.210 HD
ENDBRANCH  10  20
BRANCH  12  22
ATOM     22  O   UNL     1     -36.621  25.950   0.757  0.00  0.00    -0.382 OA
ATOM     23  H   UNL     1     -36.473  26.235  -0.158  0.00  0.00    +0.210 HD
ENDBRANCH  12  22
BRANCH  19  24
ATOM     24  O   UNL     1     -33.247  26.379   5.861  0.00  0.00    -0.384 OA
ATOM     25  H   UNL     1     -32.872  25.578   6.260  0.00  0.00    +0.210 HD
ENDBRANCH  19  24
BRANCH   6  26
ATOM     26  C   UNL     1     -33.888  18.474   0.195  0.00  0.00    +0.000 C 
ATOM     27  C   UNL     1     -32.923  17.633   1.037  0.00  0.00    +0.000 C 
BRANCH  26  28
ATOM     28  C   UNL     1     -33.827  18.105  -1.302  0.00  0.00    +0.000 C 
BRANCH  28  29
ATOM     29  C   UNL     1     -34.909  17.112  -1.741  0.00  0.00    +0.002 C 
BRANCH  29  30
ATOM     30  C   UNL     1     -36.135  17.188  -0.819  0.00  0.00    +0.029 C 
BRANCH  30  31
ATOM     31  C   UNL     1     -36.794  15.827  -0.510  0.00  0.00    +0.115 C 
ATOM     32  C   UNL     1     -36.416  14.820  -1.605  0.00  0.00    +0.032 C 
BRANCH  31  33
ATOM     33  O   UNL     1     -36.253  15.344   0.723  0.00  0.00    -0.384 OA
ATOM     34  H   UNL     1     -35.285  15.335   0.671  0.00  0.00    +0.210 HD
ENDBRANCH  31  33
BRANCH  31  35
ATOM     35  C   UNL     1     -38.318  15.948  -0.358  0.00  0.00    +0.164 C 
BRANCH  35  36
ATOM     36  O   UNL     1     -38.882  14.693   0.013  0.00  0.00    -0.380 OA
ATOM     37  H   UNL     1     -38.502  13.992  -0.540  0.00  0.00    +0.211 HD
ENDBRANCH  35  36
ENDBRANCH  31  35
ENDBRANCH  30  31
ENDBRANCH  29  30
ENDBRANCH  28  29
ENDBRANCH  26  28
ENDBRANCH   6  26
TORSDOF 11
ENDMDL
MODEL 5
REMARK VINA RESULT:      -5.9      2.342      3.081
REMARK  Name = 195120
REMARK  11 active torsions:
REMARK  status: ('A' for Active; 'I' for Inactive)
REMARK    1  A    between atoms: C_6  and  C_26
REMARK    2  A    between atoms: C_10  and  O_20
REMARK    3  A    between atoms: C_12  and  O_22
REMARK    4  A    between atoms: C_19  and  O_24
REMARK    5  A    between atoms: C_26  and  C_28
REMARK    6  A    between atoms: C_28  and  C_29
REMARK    7  A    between atoms: C_29  and  C_30
REMARK    8  A    between atoms: C_30  and  C_31
REMARK    9  A    between atoms: C_31  and  O_33
REMARK   10  A    between atoms: C_31  and  C_35
REMARK   11  A    between atoms: C_35  and  O_36
REMARK                            x       y       z     vdW  Elec       q    Type
REMARK                         _______ _______ _______ _____ _____    ______ ____
ROOT
ATOM      1  C   UNL     1     -34.063  25.337   4.401  0.00  0.00    +0.002 C 
ATOM      2  C   UNL     1     -35.148  24.590   3.609  0.00  0.00    +0.029 C 
ATOM      3  C   UNL     1     -33.386  26.463   3.591  0.00  0.00    +0.000 C 
ATOM      4  C   UNL     1     -34.490  23.957   2.337  0.00  0.00    +0.002 C 
ATOM      5  C   UNL     1     -35.544  23.178   1.460  0.00  0.00    +0.003 C 
ATOM      6  C   UNL     1     -32.439  27.020   4.682  0.00  0.00    +0.000 C 
ATOM      7  C   UNL     1     -36.266  22.102   2.349  0.00  0.00    +0.032 C 
ATOM      8  C   UNL     1     -32.677  25.811   2.398  0.00  0.00    +0.000 C 
ATOM      9  C   UNL     1     -33.653  24.993   1.535  0.00  0.00    +0.000 C 
ATOM     10  C   UNL     1     -35.874  23.535   4.471  0.00  0.00    +0.137 C 
ATOM     11  C   UNL     1     -34.449  26.021   5.710  0.00  0.00    +0.000 C 
ATOM     12  C   UNL     1     -36.854  22.676   3.661  0.00  0.00    +0.137 C 
ATOM     13  C   UNL     1     -33.316  27.035   5.955  0.00  0.00    +0.000 C 
ATOM     14  C   UNL     1     -34.892  22.460   0.238  0.00  0.00    +0.003 C 
ATOM     15  C   UNL     1     -34.360  27.558   3.087  0.00  0.00    +0.000 C 
ATOM     16  C   UNL     1     -35.362  20.887   2.661  0.00  0.00    +0.032 C 
ATOM     17  C   UNL     1     -36.584  24.153   0.845  0.00  0.00    +0.000 C 
ATOM     18  C   UNL     1     -33.992  21.289   0.601  0.00  0.00    +0.029 C 
ATOM     19  C   UNL     1     -34.764  20.256   1.410  0.00  0.00    +0.111 C 
ENDROOT
BRANCH  10  20
ATOM     20  O   UNL     1     -34.923  22.704   5.129  0.00  0.00    -0.382 OA
ATOM     21  H   UNL     1     -34.147  22.586   4.559  0.00  0.00    +0.210 HD
ENDBRANCH  10  20
BRANCH  12  22
ATOM     22  O   UNL     1     -38.006  23.471   3.378  0.00  0.00    -0.382 OA
ATOM     23  H   UNL     1     -38.730  22.897   3.082  0.00  0.00    +0.210 HD
ENDBRANCH  12  22
BRANCH  19  24
ATOM     24  O   UNL     1     -33.887  19.206   1.806  0.00  0.00    -0.384 OA
ATOM     25  H   UNL     1     -33.022  19.332   1.386  0.00  0.00    +0.210 HD
ENDBRANCH  19  24
BRANCH   6  26
ATOM     26  C   UNL     1     -31.786  28.365   4.396  0.00  0.00    +0.000 C 
ATOM     27  C   UNL     1     -30.356  28.156   3.886  0.00  0.00    +0.000 C 
BRANCH  26  28
ATOM     28  C   UNL     1     -31.830  29.253   5.657  0.00  0.00    +0.000 C 
BRANCH  28  29
ATOM     29  C   UNL     1     -32.202  30.714   5.374  0.00  0.00    +0.002 C 
BRANCH  29  30
ATOM     30  C   UNL     1     -32.945  30.844   4.036  0.00  0.00    +0.029 C 
BRANCH  30  31
ATOM     31  C   UNL     1     -32.255  31.764   3.005  0.00  0.00    +0.115 C 
ATOM     32  C   UNL     1     -31.087  32.495   3.678  0.00  0.00    +0.032 C 
BRANCH  31  33
ATOM     33  O   UNL     1     -31.708  30.937   1.973  0.00  0.00    -0.384 OA
ATOM     34  H   UNL     1     -31.525  30.054   2.329  0.00  0.00    +0.210 HD
ENDBRANCH  31  33
BRANCH  31  35
ATOM     35  C   UNL     1     -33.243  32.750   2.364  0.00  0.00    +0.164 C 
BRANCH  35  36
ATOM     36  O   UNL     1     -32.785  34.089   2.526  0.00  0.00    -0.380 OA
ATOM     37  H   UNL     1     -31.815  34.097   2.560  0.00  0.00    +0.211 HD
ENDBRANCH  35  36
ENDBRANCH  31  35
ENDBRANCH  30  31
ENDBRANCH  29  30
ENDBRANCH  28  29
ENDBRANCH  26  28
ENDBRANCH   6  26
TORSDOF 11
ENDMDL
MODEL 6
REMARK VINA RESULT:      -5.9      2.803      8.646
REMARK  Name = 195120
REMARK  11 active torsions:
REMARK  status: ('A' for Active; 'I' for Inactive)
REMARK    1  A    between atoms: C_6  and  C_26
REMARK    2  A    between atoms: C_10  and  O_20
REMARK    3  A    between atoms: C_12  and  O_22
REMARK    4  A    between atoms: C_19  and  O_24
REMARK    5  A    between atoms: C_26  and  C_28
REMARK    6  A    between atoms: C_28  and  C_29
REMARK    7  A    between atoms: C_29  and  C_30
REMARK    8  A    between atoms: C_30  and  C_31
REMARK    9  A    between atoms: C_31  and  O_33
REMARK   10  A    between atoms: C_31  and  C_35
REMARK   11  A    between atoms: C_35  and  O_36
REMARK                            x       y       z     vdW  Elec       q    Type
REMARK                         _______ _______ _______ _____ _____    ______ ____
ROOT
ATOM      1  C   UNL     1     -33.532  27.593   4.565  0.00  0.00    +0.002 C 
ATOM      2  C   UNL     1     -32.362  28.328   3.892  0.00  0.00    +0.029 C 
ATOM      3  C   UNL     1     -34.231  26.582   3.632  0.00  0.00    +0.000 C 
ATOM      4  C   UNL     1     -32.910  29.102   2.646  0.00  0.00    +0.002 C 
ATOM      5  C   UNL     1     -31.765  29.878   1.890  0.00  0.00    +0.003 C 
ATOM      6  C   UNL     1     -35.269  26.003   4.625  0.00  0.00    +0.000 C 
ATOM      7  C   UNL     1     -31.027  30.830   2.899  0.00  0.00    +0.032 C 
ATOM      8  C   UNL     1     -34.834  27.372   2.464  0.00  0.00    +0.000 C 
ATOM      9  C   UNL     1     -33.764  28.191   1.721  0.00  0.00    +0.000 C 
ATOM     10  C   UNL     1     -31.621  29.261   4.872  0.00  0.00    +0.137 C 
ATOM     11  C   UNL     1     -33.260  26.782   5.830  0.00  0.00    +0.000 C 
ATOM     12  C   UNL     1     -30.547  30.116   4.186  0.00  0.00    +0.137 C 
ATOM     13  C   UNL     1     -34.465  25.829   5.934  0.00  0.00    +0.000 C 
ATOM     14  C   UNL     1     -32.305  30.732   0.701  0.00  0.00    +0.003 C 
ATOM     15  C   UNL     1     -33.301  25.469   3.087  0.00  0.00    +0.000 C 
ATOM     16  C   UNL     1     -31.870  32.073   3.267  0.00  0.00    +0.032 C 
ATOM     17  C   UNL     1     -30.755  28.889   1.247  0.00  0.00    +0.000 C 
ATOM     18  C   UNL     1     -33.149  31.927   1.116  0.00  0.00    +0.029 C 
ATOM     19  C   UNL     1     -32.360  32.840   2.045  0.00  0.00    +0.111 C 
ENDROOT
BRANCH  10  20
ATOM     20  O   UNL     1     -32.553  30.097   5.551  0.00  0.00    -0.382 OA
ATOM     21  H   UNL     1     -33.455  29.798   5.357  0.00  0.00    +0.210 HD
ENDBRANCH  10  20
BRANCH  12  22
ATOM     22  O   UNL     1     -29.433  29.273   3.894  0.00  0.00    -0.382 OA
ATOM     23  H   UNL     1     -29.500  28.456   4.413  0.00  0.00    +0.210 HD
ENDBRANCH  12  22
BRANCH  19  24
ATOM     24  O   UNL     1     -33.191  33.910   2.482  0.00  0.00    -0.384 OA
ATOM     25  H   UNL     1     -33.139  34.641   1.847  0.00  0.00    +0.210 HD
ENDBRANCH  19  24
BRANCH   6  26
ATOM     26  C   UNL     1     -35.987  24.730   4.197  0.00  0.00    +0.000 C 
ATOM     27  C   UNL     1     -37.461  25.032   3.911  0.00  0.00    +0.000 C 
BRANCH  26  28
ATOM     28  C   UNL     1     -35.814  23.638   5.273  0.00  0.00    +0.000 C 
BRANCH  28  29
ATOM     29  C   UNL     1     -35.573  22.236   4.700  0.00  0.00    +0.002 C 
BRANCH  29  30
ATOM     30  C   UNL     1     -35.153  22.308   3.224  0.00  0.00    +0.029 C 
BRANCH  30  31
ATOM     31  C   UNL     1     -35.852  21.281   2.306  0.00  0.00    +0.115 C 
ATOM     32  C   UNL     1     -34.864  20.805   1.233  0.00  0.00    +0.032 C 
BRANCH  31  33
ATOM     33  O   UNL     1     -36.204  20.146   3.102  0.00  0.00    -0.384 OA
ATOM     34  H   UNL     1     -35.474  19.508   3.097  0.00  0.00    +0.210 HD
ENDBRANCH  31  33
BRANCH  31  35
ATOM     35  C   UNL     1     -37.134  21.851   1.679  0.00  0.00    +0.164 C 
BRANCH  35  36
ATOM     36  O   UNL     1     -38.245  21.647   2.547  0.00  0.00    -0.380 OA
ATOM     37  H   UNL     1     -37.927  21.361   3.418  0.00  0.00    +0.211 HD
ENDBRANCH  35  36
ENDBRANCH  31  35
ENDBRANCH  30  31
ENDBRANCH  29  30
ENDBRANCH  28  29
ENDBRANCH  26  28
ENDBRANCH   6  26
TORSDOF 11
ENDMDL
MODEL 7
REMARK VINA RESULT:      -5.9      2.496      8.504
REMARK  Name = 195120
REMARK  11 active torsions:
REMARK  status: ('A' for Active; 'I' for Inactive)
REMARK    1  A    between atoms: C_6  and  C_26
REMARK    2  A    between atoms: C_10  and  O_20
REMARK    3  A    between atoms: C_12  and  O_22
REMARK    4  A    between atoms: C_19  and  O_24
REMARK    5  A    between atoms: C_26  and  C_28
REMARK    6  A    between atoms: C_28  and  C_29
REMARK    7  A    between atoms: C_29  and  C_30
REMARK    8  A    between atoms: C_30  and  C_31
REMARK    9  A    between atoms: C_31  and  O_33
REMARK   10  A    between atoms: C_31  and  C_35
REMARK   11  A    between atoms: C_35  and  O_36
REMARK                            x       y       z     vdW  Elec       q    Type
REMARK                         _______ _______ _______ _____ _____    ______ ____
ROOT
ATOM      1  C   UNL     1     -33.055  26.044   3.343  0.00  0.00    +0.002 C 
ATOM      2  C   UNL     1     -32.548  27.494   3.413  0.00  0.00    +0.029 C 
ATOM      3  C   UNL     1     -34.218  25.760   4.318  0.00  0.00    +0.000 C 
ATOM      4  C   UNL     1     -32.051  27.778   4.871  0.00  0.00    +0.002 C 
ATOM      5  C   UNL     1     -31.522  29.254   5.030  0.00  0.00    +0.003 C 
ATOM      6  C   UNL     1     -34.508  24.287   3.938  0.00  0.00    +0.000 C 
ATOM      7  C   UNL     1     -30.401  29.524   3.962  0.00  0.00    +0.032 C 
ATOM      8  C   UNL     1     -33.686  25.962   5.742  0.00  0.00    +0.000 C 
ATOM      9  C   UNL     1     -33.108  27.375   5.937  0.00  0.00    +0.000 C 
ATOM     10  C   UNL     1     -31.452  27.776   2.364  0.00  0.00    +0.137 C 
ATOM     11  C   UNL     1     -33.569  25.509   2.009  0.00  0.00    +0.000 C 
ATOM     12  C   UNL     1     -30.826  29.169   2.516  0.00  0.00    +0.137 C 
ATOM     13  C   UNL     1     -34.417  24.283   2.394  0.00  0.00    +0.000 C 
ATOM     14  C   UNL     1     -30.936  29.530   6.450  0.00  0.00    +0.003 C 
ATOM     15  C   UNL     1     -35.467  26.649   4.094  0.00  0.00    +0.000 C 
ATOM     16  C   UNL     1     -29.069  28.819   4.310  0.00  0.00    +0.032 C 
ATOM     17  C   UNL     1     -32.677  30.280   4.867  0.00  0.00    +0.000 C 
ATOM     18  C   UNL     1     -29.640  28.793   6.750  0.00  0.00    +0.029 C 
ATOM     19  C   UNL     1     -28.578  29.139   5.715  0.00  0.00    +0.111 C 
ENDROOT
BRANCH  10  20
ATOM     20  O   UNL     1     -30.441  26.775   2.431  0.00  0.00    -0.382 OA
ATOM     21  H   UNL     1     -30.649  26.064   1.804  0.00  0.00    +0.210 HD
ENDBRANCH  10  20
BRANCH  12  22
ATOM     22  O   UNL     1     -31.765  30.129   2.030  0.00  0.00    -0.382 OA
ATOM     23  H   UNL     1     -31.378  30.609   1.280  0.00  0.00    +0.210 HD
ENDBRANCH  12  22
BRANCH  19  24
ATOM     24  O   UNL     1     -27.399  28.383   5.969  0.00  0.00    -0.384 OA
ATOM     25  H   UNL     1     -26.920  28.772   6.716  0.00  0.00    +0.210 HD
ENDBRANCH  19  24
BRANCH   6  26
ATOM     26  C   UNL     1     -35.809  23.692   4.457  0.00  0.00    +0.000 C 
ATOM     27  C   UNL     1     -35.563  22.973   5.787  0.00  0.00    +0.000 C 
BRANCH  26  28
ATOM     28  C   UNL     1     -36.424  22.757   3.395  0.00  0.00    +0.000 C 
BRANCH  28  29
ATOM     29  C   UNL     1     -37.793  23.218   2.880  0.00  0.00    +0.002 C 
BRANCH  29  30
ATOM     30  C   UNL     1     -38.207  24.547   3.529  0.00  0.00    +0.029 C 
BRANCH  30  31
ATOM     31  C   UNL     1     -38.983  25.503   2.598  0.00  0.00    +0.115 C 
ATOM     32  C   UNL     1     -40.240  24.794   2.077  0.00  0.00    +0.032 C 
BRANCH  31  33
ATOM     33  O   UNL     1     -39.412  26.625   3.375  0.00  0.00    -0.384 OA
ATOM     34  H   UNL     1     -40.123  27.090   2.907  0.00  0.00    +0.210 HD
ENDBRANCH  31  33
BRANCH  31  35
ATOM     35  C   UNL     1     -38.108  26.018   1.445  0.00  0.00    +0.164 C 
BRANCH  35  36
ATOM     36  O   UNL     1     -37.812  27.400   1.624  0.00  0.00    -0.380 OA
ATOM     37  H   UNL     1     -38.383  27.930   1.045  0.00  0.00    +0.211 HD
ENDBRANCH  35  36
ENDBRANCH  31  35
ENDBRANCH  30  31
ENDBRANCH  29  30
ENDBRANCH  28  29
ENDBRANCH  26  28
ENDBRANCH   6  26
TORSDOF 11
ENDMDL
MODEL 8
REMARK VINA RESULT:      -5.8      5.157      9.328
REMARK  Name = 195120
REMARK  11 active torsions:
REMARK  status: ('A' for Active; 'I' for Inactive)
REMARK    1  A    between atoms: C_6  and  C_26
REMARK    2  A    between atoms: C_10  and  O_20
REMARK    3  A    between atoms: C_12  and  O_22
REMARK    4  A    between atoms: C_19  and  O_24
REMARK    5  A    between atoms: C_26  and  C_28
REMARK    6  A    between atoms: C_28  and  C_29
REMARK    7  A    between atoms: C_29  and  C_30
REMARK    8  A    between atoms: C_30  and  C_31
REMARK    9  A    between atoms: C_31  and  O_33
REMARK   10  A    between atoms: C_31  and  C_35
REMARK   11  A    between atoms: C_35  and  O_36
REMARK                            x       y       z     vdW  Elec       q    Type
REMARK                         _______ _______ _______ _____ _____    ______ ____
ROOT
ATOM      1  C   UNL     1     -39.323  23.813   1.739  0.00  0.00    +0.002 C 
ATOM      2  C   UNL     1     -37.817  23.524   1.639  0.00  0.00    +0.029 C 
ATOM      3  C   UNL     1     -39.638  25.293   2.048  0.00  0.00    +0.000 C 
ATOM      4  C   UNL     1     -37.146  23.898   3.004  0.00  0.00    +0.002 C 
ATOM      5  C   UNL     1     -35.591  23.639   2.981  0.00  0.00    +0.003 C 
ATOM      6  C   UNL     1     -41.185  25.232   2.006  0.00  0.00    +0.000 C 
ATOM      7  C   UNL     1     -35.317  22.145   2.579  0.00  0.00    +0.032 C 
ATOM      8  C   UNL     1     -39.046  25.613   3.426  0.00  0.00    +0.000 C 
ATOM      9  C   UNL     1     -37.534  25.328   3.474  0.00  0.00    +0.000 C 
ATOM     10  C   UNL     1     -37.532  22.062   1.236  0.00  0.00    +0.137 C 
ATOM     11  C   UNL     1     -40.212  23.503   0.537  0.00  0.00    +0.000 C 
ATOM     12  C   UNL     1     -36.038  21.712   1.278  0.00  0.00    +0.137 C 
ATOM     13  C   UNL     1     -41.483  24.337   0.781  0.00  0.00    +0.000 C 
ATOM     14  C   UNL     1     -34.917  23.916   4.361  0.00  0.00    +0.003 C 
ATOM     15  C   UNL     1     -39.091  26.293   0.998  0.00  0.00    +0.000 C 
ATOM     16  C   UNL     1     -35.646  21.154   3.720  0.00  0.00    +0.032 C 
ATOM     17  C   UNL     1     -34.882  24.601   1.989  0.00  0.00    +0.000 C 
ATOM     18  C   UNL     1     -35.293  22.928   5.455  0.00  0.00    +0.029 C 
ATOM     19  C   UNL     1     -34.952  21.507   5.029  0.00  0.00    +0.111 C 
ENDROOT
BRANCH  10  20
ATOM     20  O   UNL     1     -38.267  21.173   2.071  0.00  0.00    -0.382 OA
ATOM     21  H   UNL     1     -39.202  21.188   1.815  0.00  0.00    +0.210 HD
ENDBRANCH  10  20
BRANCH  12  22
ATOM     22  O   UNL     1     -35.412  22.315   0.145  0.00  0.00    -0.382 OA
ATOM     23  H   UNL     1     -35.222  23.247   0.339  0.00  0.00    +0.210 HD
ENDBRANCH  12  22
BRANCH  19  24
ATOM     24  O   UNL     1     -35.380  20.592   6.032  0.00  0.00    -0.384 OA
ATOM     25  H   UNL     1     -34.619  20.084   6.353  0.00  0.00    +0.210 HD
ENDBRANCH  19  24
BRANCH   6  26
ATOM     26  C   UNL     1     -41.919  26.565   1.959  0.00  0.00    +0.000 C 
ATOM     27  C   UNL     1     -42.776  26.735   3.218  0.00  0.00    +0.000 C 
BRANCH  26  28
ATOM     28  C   UNL     1     -42.756  26.662   0.667  0.00  0.00    +0.000 C 
BRANCH  28  29
ATOM     29  C   UNL     1     -42.638  28.014  -0.048  0.00  0.00    +0.002 C 
BRANCH  29  30
ATOM     30  C   UNL     1     -43.785  28.953   0.354  0.00  0.00    +0.029 C 
BRANCH  30  31
ATOM     31  C   UNL     1     -43.366  30.127   1.264  0.00  0.00    +0.115 C 
ATOM     32  C   UNL     1     -44.220  30.112   2.538  0.00  0.00    +0.032 C 
BRANCH  31  33
ATOM     33  O   UNL     1     -42.005  29.919   1.655  0.00  0.00    -0.384 OA
ATOM     34  H   UNL     1     -41.481  30.704   1.431  0.00  0.00    +0.210 HD
ENDBRANCH  31  33
BRANCH  31  35
ATOM     35  C   UNL     1     -43.460  31.478   0.538  0.00  0.00    +0.164 C 
BRANCH  35  36
ATOM     36  O   UNL     1     -43.014  32.531   1.387  0.00  0.00    -0.380 OA
ATOM     37  H   UNL     1     -43.781  32.968   1.791  0.00  0.00    +0.211 HD
ENDBRANCH  35  36
ENDBRANCH  31  35
ENDBRANCH  30  31
ENDBRANCH  29  30
ENDBRANCH  28  29
ENDBRANCH  26  28
ENDBRANCH   6  26
TORSDOF 11
ENDMDL
MODEL 9
REMARK VINA RESULT:      -5.7      1.885      3.587
REMARK  Name = 195120
REMARK  11 active torsions:
REMARK  status: ('A' for Active; 'I' for Inactive)
REMARK    1  A    between atoms: C_6  and  C_26
REMARK    2  A    between atoms: C_10  and  O_20
REMARK    3  A    between atoms: C_12  and  O_22
REMARK    4  A    between atoms: C_19  and  O_24
REMARK    5  A    between atoms: C_26  and  C_28
REMARK    6  A    between atoms: C_28  and  C_29
REMARK    7  A    between atoms: C_29  and  C_30
REMARK    8  A    between atoms: C_30  and  C_31
REMARK    9  A    between atoms: C_31  and  O_33
REMARK   10  A    between atoms: C_31  and  C_35
REMARK   11  A    between atoms: C_35  and  O_36
REMARK                            x       y       z     vdW  Elec       q    Type
REMARK                         _______ _______ _______ _____ _____    ______ ____
ROOT
ATOM      1  C   UNL     1     -35.138  22.525   3.306  0.00  0.00    +0.002 C 
ATOM      2  C   UNL     1     -35.876  21.913   2.105  0.00  0.00    +0.029 C 
ATOM      3  C   UNL     1     -35.064  24.067   3.253  0.00  0.00    +0.000 C 
ATOM      4  C   UNL     1     -35.124  22.327   0.795  0.00  0.00    +0.002 C 
ATOM      5  C   UNL     1     -35.828  21.745  -0.491  0.00  0.00    +0.003 C 
ATOM      6  C   UNL     1     -34.346  24.329   4.599  0.00  0.00    +0.000 C 
ATOM      7  C   UNL     1     -35.957  20.185  -0.352  0.00  0.00    +0.032 C 
ATOM      8  C   UNL     1     -34.252  24.447   2.009  0.00  0.00    +0.000 C 
ATOM      9  C   UNL     1     -34.868  23.858   0.727  0.00  0.00    +0.000 C 
ATOM     10  C   UNL     1     -36.019  20.382   2.231  0.00  0.00    +0.137 C 
ATOM     11  C   UNL     1     -35.660  22.242   4.712  0.00  0.00    +0.000 C 
ATOM     12  C   UNL     1     -36.617  19.734   0.975  0.00  0.00    +0.137 C 
ATOM     13  C   UNL     1     -35.037  23.352   5.578  0.00  0.00    +0.000 C 
ATOM     14  C   UNL     1     -35.042  22.066  -1.800  0.00  0.00    +0.003 C 
ATOM     15  C   UNL     1     -36.444  24.769   3.211  0.00  0.00    +0.000 C 
ATOM     16  C   UNL     1     -34.606  19.458  -0.544  0.00  0.00    +0.032 C 
ATOM     17  C   UNL     1     -37.228  22.384  -0.696  0.00  0.00    +0.000 C 
ATOM     18  C   UNL     1     -33.709  21.346  -1.928  0.00  0.00    +0.029 C 
ATOM     19  C   UNL     1     -33.908  19.839  -1.844  0.00  0.00    +0.111 C 
ENDROOT
BRANCH  10  20
ATOM     20  O   UNL     1     -34.756  19.796   2.530  0.00  0.00    -0.382 OA
ATOM     21  H   UNL     1     -34.875  18.852   2.720  0.00  0.00    +0.210 HD
ENDBRANCH  10  20
BRANCH  12  22
ATOM     22  O   UNL     1     -38.015  20.024   0.952  0.00  0.00    -0.382 OA
ATOM     23  H   UNL     1     -38.327  20.040   0.034  0.00  0.00    +0.210 HD
ENDBRANCH  12  22
BRANCH  19  24
ATOM     24  O   UNL     1     -32.643  19.187  -1.888  0.00  0.00    -0.384 OA
ATOM     25  H   UNL     1     -31.936  19.847  -1.822  0.00  0.00    +0.210 HD
ENDBRANCH  19  24
BRANCH   6  26
ATOM     26  C   UNL     1     -34.340  25.766   5.101  0.00  0.00    +0.000 C 
ATOM     27  C   UNL     1     -35.702  26.113   5.711  0.00  0.00    +0.000 C 
BRANCH  26  28
ATOM     28  C   UNL     1     -33.954  26.725   3.955  0.00  0.00    +0.000 C 
BRANCH  28  29
ATOM     29  C   UNL     1     -32.945  27.804   4.364  0.00  0.00    +0.002 C 
BRANCH  29  30
ATOM     30  C   UNL     1     -32.550  27.660   5.841  0.00  0.00    +0.029 C 
BRANCH  30  31
ATOM     31  C   UNL     1     -31.622  28.775   6.371  0.00  0.00    +0.115 C 
ATOM     32  C   UNL     1     -31.977  30.100   5.683  0.00  0.00    +0.032 C 
BRANCH  31  33
ATOM     33  O   UNL     1     -31.877  28.934   7.769  0.00  0.00    -0.384 OA
ATOM     34  H   UNL     1     -32.357  29.764   7.919  0.00  0.00    +0.210 HD
ENDBRANCH  31  33
BRANCH  31  35
ATOM     35  C   UNL     1     -30.138  28.423   6.185  0.00  0.00    +0.164 C 
BRANCH  35  36
ATOM     36  O   UNL     1     -29.820  27.225   6.886  0.00  0.00    -0.380 OA
ATOM     37  H   UNL     1     -28.929  27.298   7.264  0.00  0.00    +0.211 HD
ENDBRANCH  35  36
ENDBRANCH  31  35
ENDBRANCH  30  31
ENDBRANCH  29  30
ENDBRANCH  28  29
ENDBRANCH  26  28
ENDBRANCH   6  26
TORSDOF 11
ENDMDL
