MODEL 1
REMARK VINA RESULT:      -6.3      0.000      0.000
REMARK  Name = 53396029
REMARK  6 active torsions:
REMARK  status: ('A' for Active; 'I' for Inactive)
REMARK    1  A    between atoms: N_2  and  CA_9
REMARK    2  A    between atoms: C_3  and  C_20
REMARK    3  A    between atoms: CA_11  and  C_16
REMARK    4  A    between atoms: C_16  and  O_17
REMARK    5  A    between atoms: N_19  and  O_29
REMARK    6  A    between atoms: C_20  and  C_24
REMARK                            x       y       z     vdW  Elec       q    Type
REMARK                         _______ _______ _______ _____ _____    ______ ____
ROOT
ATOM      1  O   UNL     1     -35.829  26.332   5.747  0.00  0.00    -0.268 OA
ATOM      2  N   UNL     1     -34.963  24.788   4.205  0.00  0.00    -0.291 N 
ATOM      3  C   UNL     1     -34.945  25.908   5.020  0.00  0.00    +0.269 C 
ATOM      4  H   UNL     1     -34.163  24.578   3.673  0.00  0.00    +0.150 HD
ENDROOT
BRANCH   2   9
ATOM      5  S   UNL     1     -38.605  24.222   2.728  0.00  0.00    -0.114 S 
ATOM      6  O   UNL     1     -35.116  21.552   4.255  0.00  0.00    -0.273 OA
ATOM      7  N   UNL     1     -36.580  22.505   2.672  0.00  0.00    -0.242 N 
ATOM      8  C   UNL     1     -36.820  23.935   2.722  0.00  0.00    +0.155 C 
ATOM      9  CA  UNL     1     -36.124  23.907   4.099  0.00  0.00    +0.179 C 
ATOM     10  C   UNL     1     -35.771  22.433   3.751  0.00  0.00    +0.251 C 
ATOM     11  CA  UNL     1     -37.116  21.681   1.735  0.00  0.00    +0.124 C 
ATOM     12  C   UNL     1     -38.851  23.424   1.106  0.00  0.00    +0.083 C 
ATOM     13  C   UNL     1     -38.144  22.079   0.949  0.00  0.00    -0.013 C 
ATOM     14  C   UNL     1     -38.741  21.254  -0.167  0.00  0.00    +0.029 C 
BRANCH  11  16
ATOM     15  OXT UNL     1     -35.901  19.898   0.738  0.00  0.00    -0.244 OA
ATOM     16  C   UNL     1     -36.574  20.316   1.657  0.00  0.00    +0.351 C 
BRANCH  16  17
ATOM     17  O   UNL     1     -36.943  19.626   2.755  0.00  0.00    -0.476 OA
ATOM     18  H   UNL     1     -36.979  20.054   3.587  0.00  0.00    +0.295 HD
ENDBRANCH  16  17
ENDBRANCH  11  16
ENDBRANCH   2   9
BRANCH   3  20
ATOM     19  N   UNL     1     -33.059  27.042   6.061  0.00  0.00    -0.076 NA
ATOM     20  C   UNL     1     -33.639  26.657   4.965  0.00  0.00    +0.198 C 
BRANCH  20  24
ATOM     21  S   UNL     1     -32.388  28.071   1.459  0.00  0.00    -0.060 S 
ATOM     22  N   UNL     1     -32.202  26.029   3.032  0.00  0.00    -0.383 NA
ATOM     23  N   UNL     1     -30.970  25.863   1.022  0.00  0.00    -0.328 N 
ATOM     24  C   UNL     1     -33.035  26.950   3.638  0.00  0.00    +0.148 C 
ATOM     25  C   UNL     1     -33.254  28.118   2.938  0.00  0.00    +0.127 C 
ATOM     26  C   UNL     1     -31.802  26.514   1.878  0.00  0.00    +0.204 C 
ATOM     27  H   UNL     1     -30.709  26.287   0.171  0.00  0.00    +0.145 HD
ATOM     28  H   UNL     1     -30.628  24.970   1.251  0.00  0.00    +0.145 HD
ENDBRANCH  20  24
BRANCH  19  29
ATOM     29  O   UNL     1     -31.863  27.726   5.803  0.00  0.00    -0.373 OA
ATOM     30  C   UNL     1     -31.810  28.860   6.655  0.00  0.00    +0.288 C 
ENDBRANCH  19  29
ENDBRANCH   3  20
TORSDOF 6
ENDMDL
MODEL 2
REMARK VINA RESULT:      -6.0      1.548      1.790
REMARK  Name = 53396029
REMARK  6 active torsions:
REMARK  status: ('A' for Active; 'I' for Inactive)
REMARK    1  A    between atoms: N_2  and  CA_9
REMARK    2  A    between atoms: C_3  and  C_20
REMARK    3  A    between atoms: CA_11  and  C_16
REMARK    4  A    between atoms: C_16  and  O_17
REMARK    5  A    between atoms: N_19  and  O_29
REMARK    6  A    between atoms: C_20  and  C_24
REMARK                            x       y       z     vdW  Elec       q    Type
REMARK                         _______ _______ _______ _____ _____    ______ ____
ROOT
ATOM      1  O   UNL     1     -34.821  24.684   5.915  0.00  0.00    -0.268 OA
ATOM      2  N   UNL     1     -35.898  25.199   3.893  0.00  0.00    -0.291 N 
ATOM      3  C   UNL     1     -34.984  25.372   4.920  0.00  0.00    +0.269 C 
ATOM      4  H   UNL     1     -35.904  25.847   3.153  0.00  0.00    +0.150 HD
ENDROOT
BRANCH   2   9
ATOM      5  S   UNL     1     -39.387  23.837   2.577  0.00  0.00    -0.114 S 
ATOM      6  O   UNL     1     -35.381  22.006   4.072  0.00  0.00    -0.273 OA
ATOM      7  N   UNL     1     -37.055  22.568   2.510  0.00  0.00    -0.242 N 
ATOM      8  C   UNL     1     -37.583  23.920   2.514  0.00  0.00    +0.155 C 
ATOM      9  CA  UNL     1     -36.856  24.096   3.865  0.00  0.00    +0.179 C 
ATOM     10  C   UNL     1     -36.218  22.711   3.560  0.00  0.00    +0.251 C 
ATOM     11  CA  UNL     1     -37.438  21.611   1.626  0.00  0.00    +0.124 C 
ATOM     12  C   UNL     1     -39.511  22.933   0.997  0.00  0.00    +0.083 C 
ATOM     13  C   UNL     1     -38.548  21.755   0.864  0.00  0.00    -0.013 C 
ATOM     14  C   UNL     1     -38.995  20.776  -0.197  0.00  0.00    +0.029 C 
BRANCH  11  16
ATOM     15  OXT UNL     1     -35.826  20.124   0.707  0.00  0.00    -0.244 OA
ATOM     16  C   UNL     1     -36.629  20.383   1.580  0.00  0.00    +0.351 C 
BRANCH  16  17
ATOM     17  O   UNL     1     -36.925  19.614   2.646  0.00  0.00    -0.476 OA
ATOM     18  H   UNL     1     -36.736  19.920   3.511  0.00  0.00    +0.295 HD
ENDBRANCH  16  17
ENDBRANCH  11  16
ENDBRANCH   2   9
BRANCH   3  20
ATOM     19  N   UNL     1     -33.302  26.961   5.676  0.00  0.00    -0.076 NA
ATOM     20  C   UNL     1     -34.100  26.576   4.726  0.00  0.00    +0.198 C 
BRANCH  20  24
ATOM     21  S   UNL     1     -33.706  28.137   1.083  0.00  0.00    -0.060 S 
ATOM     22  N   UNL     1     -35.114  28.300   3.245  0.00  0.00    -0.383 NA
ATOM     23  N   UNL     1     -35.739  29.796   1.524  0.00  0.00    -0.328 N 
ATOM     24  C   UNL     1     -34.165  27.315   3.437  0.00  0.00    +0.148 C 
ATOM     25  C   UNL     1     -33.313  27.084   2.378  0.00  0.00    +0.127 C 
ATOM     26  C   UNL     1     -34.966  28.803   2.039  0.00  0.00    +0.204 C 
ATOM     27  H   UNL     1     -35.573  30.125   0.611  0.00  0.00    +0.145 HD
ATOM     28  H   UNL     1     -36.463  30.185   2.063  0.00  0.00    +0.145 HD
ENDBRANCH  20  24
BRANCH  19  29
ATOM     29  O   UNL     1     -32.570  28.099   5.309  0.00  0.00    -0.373 OA
ATOM     30  C   UNL     1     -31.751  28.470   6.408  0.00  0.00    +0.288 C 
ENDBRANCH  19  29
ENDBRANCH   3  20
TORSDOF 6
ENDMDL
MODEL 3
REMARK VINA RESULT:      -5.9      4.072      6.576
REMARK  Name = 53396029
REMARK  6 active torsions:
REMARK  status: ('A' for Active; 'I' for Inactive)
REMARK    1  A    between atoms: N_2  and  CA_9
REMARK    2  A    between atoms: C_3  and  C_20
REMARK    3  A    between atoms: CA_11  and  C_16
REMARK    4  A    between atoms: C_16  and  O_17
REMARK    5  A    between atoms: N_19  and  O_29
REMARK    6  A    between atoms: C_20  and  C_24
REMARK                            x       y       z     vdW  Elec       q    Type
REMARK                         _______ _______ _______ _____ _____    ______ ____
ROOT
ATOM      1  O   UNL     1     -36.211  22.204   0.709  0.00  0.00    -0.268 OA
ATOM      2  N   UNL     1     -34.706  20.765   1.796  0.00  0.00    -0.291 N 
ATOM      3  C   UNL     1     -35.655  21.771   1.706  0.00  0.00    +0.269 C 
ATOM      4  H   UNL     1     -34.351  20.529   2.683  0.00  0.00    +0.150 HD
ENDROOT
BRANCH   2   9
ATOM      5  S   UNL     1     -31.631  18.979   0.033  0.00  0.00    -0.114 S 
ATOM      6  O   UNL     1     -36.270  18.771  -0.222  0.00  0.00    -0.273 OA
ATOM      7  N   UNL     1     -34.094  18.021   0.289  0.00  0.00    -0.242 N 
ATOM      8  C   UNL     1     -33.184  18.934   0.956  0.00  0.00    +0.155 C 
ATOM      9  CA  UNL     1     -34.209  20.042   0.628  0.00  0.00    +0.179 C 
ATOM     10  C   UNL     1     -35.130  18.878   0.164  0.00  0.00    +0.251 C 
ATOM     11  CA  UNL     1     -33.782  16.736  -0.020  0.00  0.00    +0.124 C 
ATOM     12  C   UNL     1     -31.305  17.200   0.281  0.00  0.00    +0.083 C 
ATOM     13  C   UNL     1     -32.503  16.293   0.006  0.00  0.00    -0.013 C 
ATOM     14  C   UNL     1     -32.084  14.863  -0.246  0.00  0.00    +0.029 C 
BRANCH  11  16
ATOM     15  OXT UNL     1     -35.175  15.645  -1.608  0.00  0.00    -0.244 OA
ATOM     16  C   UNL     1     -34.887  15.866  -0.449  0.00  0.00    +0.351 C 
BRANCH  16  17
ATOM     17  O   UNL     1     -35.511  15.367   0.637  0.00  0.00    -0.476 OA
ATOM     18  H   UNL     1     -35.008  15.004   1.340  0.00  0.00    +0.295 HD
ENDBRANCH  16  17
ENDBRANCH  11  16
ENDBRANCH   2   9
BRANCH   3  20
ATOM     19  N   UNL     1     -35.643  21.778   4.141  0.00  0.00    -0.076 NA
ATOM     20  C   UNL     1     -36.013  22.366   3.043  0.00  0.00    +0.198 C 
BRANCH  20  24
ATOM     21  S   UNL     1     -37.480  26.068   3.008  0.00  0.00    -0.060 S 
ATOM     22  N   UNL     1     -38.157  23.595   3.331  0.00  0.00    -0.383 NA
ATOM     23  N   UNL     1     -39.923  25.155   3.528  0.00  0.00    -0.328 N 
ATOM     24  C   UNL     1     -36.799  23.628   3.081  0.00  0.00    +0.148 C 
ATOM     25  C   UNL     1     -36.253  24.878   2.880  0.00  0.00    +0.127 C 
ATOM     26  C   UNL     1     -38.621  24.825   3.316  0.00  0.00    +0.204 C 
ATOM     27  H   UNL     1     -40.203  26.099   3.502  0.00  0.00    +0.145 HD
ATOM     28  H   UNL     1     -40.586  24.450   3.706  0.00  0.00    +0.145 HD
ENDBRANCH  20  24
BRANCH  19  29
ATOM     29  O   UNL     1     -36.074  22.479   5.275  0.00  0.00    -0.373 OA
ATOM     30  C   UNL     1     -35.267  22.080   6.373  0.00  0.00    +0.288 C 
ENDBRANCH  19  29
ENDBRANCH   3  20
TORSDOF 6
ENDMDL
MODEL 4
REMARK VINA RESULT:      -5.9      2.821      3.964
REMARK  Name = 53396029
REMARK  6 active torsions:
REMARK  status: ('A' for Active; 'I' for Inactive)
REMARK    1  A    between atoms: N_2  and  CA_9
REMARK    2  A    between atoms: C_3  and  C_20
REMARK    3  A    between atoms: CA_11  and  C_16
REMARK    4  A    between atoms: C_16  and  O_17
REMARK    5  A    between atoms: N_19  and  O_29
REMARK    6  A    between atoms: C_20  and  C_24
REMARK                            x       y       z     vdW  Elec       q    Type
REMARK                         _______ _______ _______ _____ _____    ______ ____
ROOT
ATOM      1  O   UNL     1     -35.331  28.084   1.620  0.00  0.00    -0.268 OA
ATOM      2  N   UNL     1     -35.089  27.455   3.869  0.00  0.00    -0.291 N 
ATOM      3  C   UNL     1     -34.861  28.223   2.738  0.00  0.00    +0.269 C 
ATOM      4  H   UNL     1     -34.629  27.698   4.704  0.00  0.00    +0.150 HD
ENDROOT
BRANCH   2   9
ATOM      5  S   UNL     1     -36.766  24.524   1.783  0.00  0.00    -0.114 S 
ATOM      6  O   UNL     1     -35.734  25.346   6.243  0.00  0.00    -0.273 OA
ATOM      7  N   UNL     1     -35.549  24.310   4.133  0.00  0.00    -0.242 N 
ATOM      8  C   UNL     1     -35.533  25.147   2.948  0.00  0.00    +0.155 C 
ATOM      9  CA  UNL     1     -35.981  26.299   3.873  0.00  0.00    +0.179 C 
ATOM     10  C   UNL     1     -35.721  25.300   5.035  0.00  0.00    +0.251 C 
ATOM     11  CA  UNL     1     -35.419  22.958   4.106  0.00  0.00    +0.124 C 
ATOM     12  C   UNL     1     -35.957  22.896   1.626  0.00  0.00    +0.083 C 
ATOM     13  C   UNL     1     -35.554  22.259   2.954  0.00  0.00    -0.013 C 
ATOM     14  C   UNL     1     -35.345  20.768   2.826  0.00  0.00    +0.029 C 
BRANCH  11  16
ATOM     15  OXT UNL     1     -34.112  21.873   5.769  0.00  0.00    -0.244 OA
ATOM     16  C   UNL     1     -35.191  22.283   5.392  0.00  0.00    +0.351 C 
BRANCH  16  17
ATOM     17  O   UNL     1     -36.356  22.199   6.065  0.00  0.00    -0.476 OA
ATOM     18  H   UNL     1     -37.144  22.530   5.681  0.00  0.00    +0.295 HD
ENDBRANCH  16  17
ENDBRANCH  11  16
ENDBRANCH   2   9
BRANCH   3  20
ATOM     19  N   UNL     1     -34.152  30.537   2.484  0.00  0.00    -0.076 NA
ATOM     20  C   UNL     1     -33.907  29.362   2.980  0.00  0.00    +0.198 C 
BRANCH  20  24
ATOM     21  S   UNL     1     -30.309  28.580   4.499  0.00  0.00    -0.060 S 
ATOM     22  N   UNL     1     -32.726  29.206   5.166  0.00  0.00    -0.383 NA
ATOM     23  N   UNL     1     -31.222  28.944   6.971  0.00  0.00    -0.328 N 
ATOM     24  C   UNL     1     -32.683  29.115   3.788  0.00  0.00    +0.148 C 
ATOM     25  C   UNL     1     -31.459  28.787   3.244  0.00  0.00    +0.127 C 
ATOM     26  C   UNL     1     -31.532  28.943   5.647  0.00  0.00    +0.204 C 
ATOM     27  H   UNL     1     -30.304  28.739   7.262  0.00  0.00    +0.145 HD
ATOM     28  H   UNL     1     -31.915  29.151   7.638  0.00  0.00    +0.145 HD
ENDBRANCH  20  24
BRANCH  19  29
ATOM     29  O   UNL     1     -33.148  31.459   2.813  0.00  0.00    -0.373 OA
ATOM     30  C   UNL     1     -33.523  32.724   2.290  0.00  0.00    +0.288 C 
ENDBRANCH  19  29
ENDBRANCH   3  20
TORSDOF 6
ENDMDL
MODEL 5
REMARK VINA RESULT:      -5.8      2.449      7.801
REMARK  Name = 53396029
REMARK  6 active torsions:
REMARK  status: ('A' for Active; 'I' for Inactive)
REMARK    1  A    between atoms: N_2  and  CA_9
REMARK    2  A    between atoms: C_3  and  C_20
REMARK    3  A    between atoms: CA_11  and  C_16
REMARK    4  A    between atoms: C_16  and  O_17
REMARK    5  A    between atoms: N_19  and  O_29
REMARK    6  A    between atoms: C_20  and  C_24
REMARK                            x       y       z     vdW  Elec       q    Type
REMARK                         _______ _______ _______ _____ _____    ______ ____
ROOT
ATOM      1  O   UNL     1     -36.370  26.300   2.956  0.00  0.00    -0.268 OA
ATOM      2  N   UNL     1     -34.157  25.576   3.258  0.00  0.00    -0.291 N 
ATOM      3  C   UNL     1     -35.538  25.495   3.342  0.00  0.00    +0.269 C 
ATOM      4  H   UNL     1     -33.618  24.837   3.619  0.00  0.00    +0.150 HD
ENDROOT
BRANCH   2   9
ATOM      5  S   UNL     1     -33.931  29.521   2.878  0.00  0.00    -0.114 S 
ATOM      6  O   UNL     1     -31.046  25.902   2.414  0.00  0.00    -0.273 OA
ATOM      7  N   UNL     1     -31.929  27.855   3.396  0.00  0.00    -0.242 N 
ATOM      8  C   UNL     1     -33.366  27.953   3.576  0.00  0.00    +0.155 C 
ATOM      9  CA  UNL     1     -33.468  26.715   2.658  0.00  0.00    +0.179 C 
ATOM     10  C   UNL     1     -31.919  26.655   2.777  0.00  0.00    +0.251 C 
ATOM     11  CA  UNL     1     -31.051  28.808   3.803  0.00  0.00    +0.124 C 
ATOM     12  C   UNL     1     -32.912  30.521   4.014  0.00  0.00    +0.083 C 
ATOM     13  C   UNL     1     -31.465  30.051   4.146  0.00  0.00    -0.013 C 
ATOM     14  C   UNL     1     -30.563  31.137   4.683  0.00  0.00    +0.029 C 
BRANCH  11  16
ATOM     15  OXT UNL     1     -28.862  28.705   2.882  0.00  0.00    -0.244 OA
ATOM     16  C   UNL     1     -29.625  28.449   3.791  0.00  0.00    +0.351 C 
BRANCH  16  17
ATOM     17  O   UNL     1     -29.316  27.804   4.934  0.00  0.00    -0.476 OA
ATOM     18  H   UNL     1     -29.529  28.189   5.761  0.00  0.00    +0.295 HD
ENDBRANCH  16  17
ENDBRANCH  11  16
ENDBRANCH   2   9
BRANCH   3  20
ATOM     19  N   UNL     1     -35.745  23.992   5.246  0.00  0.00    -0.076 NA
ATOM     20  C   UNL     1     -36.015  24.226   3.997  0.00  0.00    +0.198 C 
BRANCH  20  24
ATOM     21  S   UNL     1     -37.443  21.309   1.691  0.00  0.00    -0.060 S 
ATOM     22  N   UNL     1     -38.166  23.356   3.093  0.00  0.00    -0.383 NA
ATOM     23  N   UNL     1     -39.928  22.199   2.024  0.00  0.00    -0.328 N 
ATOM     24  C   UNL     1     -36.792  23.248   3.188  0.00  0.00    +0.148 C 
ATOM     25  C   UNL     1     -36.220  22.200   2.497  0.00  0.00    +0.127 C 
ATOM     26  C   UNL     1     -38.616  22.387   2.328  0.00  0.00    +0.204 C 
ATOM     27  H   UNL     1     -40.196  21.450   1.444  0.00  0.00    +0.145 HD
ATOM     28  H   UNL     1     -40.609  22.811   2.383  0.00  0.00    +0.145 HD
ENDBRANCH  20  24
BRANCH  19  29
ATOM     29  O   UNL     1     -36.267  22.762   5.669  0.00  0.00    -0.373 OA
ATOM     30  C   UNL     1     -35.220  22.025   6.281  0.00  0.00    +0.288 C 
ENDBRANCH  19  29
ENDBRANCH   3  20
TORSDOF 6
ENDMDL
MODEL 6
REMARK VINA RESULT:      -5.7      3.994      7.581
REMARK  Name = 53396029
REMARK  6 active torsions:
REMARK  status: ('A' for Active; 'I' for Inactive)
REMARK    1  A    between atoms: N_2  and  CA_9
REMARK    2  A    between atoms: C_3  and  C_20
REMARK    3  A    between atoms: CA_11  and  C_16
REMARK    4  A    between atoms: C_16  and  O_17
REMARK    5  A    between atoms: N_19  and  O_29
REMARK    6  A    between atoms: C_20  and  C_24
REMARK                            x       y       z     vdW  Elec       q    Type
REMARK                         _______ _______ _______ _____ _____    ______ ____
ROOT
ATOM      1  O   UNL     1     -37.294  19.187   0.672  0.00  0.00    -0.268 OA
ATOM      2  N   UNL     1     -35.519  20.363   1.663  0.00  0.00    -0.291 N 
ATOM      3  C   UNL     1     -36.129  19.549   0.722  0.00  0.00    +0.269 C 
ATOM      4  H   UNL     1     -34.562  20.565   1.563  0.00  0.00    +0.150 HD
ENDROOT
BRANCH   2   9
ATOM      5  S   UNL     1     -35.334  21.756   5.376  0.00  0.00    -0.114 S 
ATOM      6  O   UNL     1     -38.153  22.251   1.709  0.00  0.00    -0.273 OA
ATOM      7  N   UNL     1     -36.544  22.898   3.306  0.00  0.00    -0.242 N 
ATOM      8  C   UNL     1     -35.443  21.996   3.588  0.00  0.00    +0.155 C 
ATOM      9  CA  UNL     1     -36.239  20.933   2.799  0.00  0.00    +0.179 C 
ATOM     10  C   UNL     1     -37.189  22.105   2.425  0.00  0.00    +0.251 C 
ATOM     11  CA  UNL     1     -36.682  24.123   3.877  0.00  0.00    +0.124 C 
ATOM     12  C   UNL     1     -35.025  23.524   5.705  0.00  0.00    +0.083 C 
ATOM     13  C   UNL     1     -35.963  24.479   4.968  0.00  0.00    -0.013 C 
ATOM     14  C   UNL     1     -36.000  25.845   5.612  0.00  0.00    +0.029 C 
BRANCH  11  16
ATOM     15  OXT UNL     1     -37.485  25.785   2.380  0.00  0.00    -0.244 OA
ATOM     16  C   UNL     1     -37.693  25.019   3.299  0.00  0.00    +0.351 C 
BRANCH  16  17
ATOM     17  O   UNL     1     -38.863  24.850   3.947  0.00  0.00    -0.476 OA
ATOM     18  H   UNL     1     -38.916  24.258   4.671  0.00  0.00    +0.295 HD
ENDBRANCH  16  17
ENDBRANCH  11  16
ENDBRANCH   2   9
BRANCH   3  20
ATOM     19  N   UNL     1     -35.650  18.677  -1.500  0.00  0.00    -0.076 NA
ATOM     20  C   UNL     1     -35.186  19.086  -0.357  0.00  0.00    +0.198 C 
BRANCH  20  24
ATOM     21  S   UNL     1     -31.265  19.717  -0.056  0.00  0.00    -0.060 S 
ATOM     22  N   UNL     1     -33.151  18.119   0.700  0.00  0.00    -0.383 NA
ATOM     23  N   UNL     1     -30.991  17.568   1.487  0.00  0.00    -0.328 N 
ATOM     24  C   UNL     1     -33.723  19.099  -0.088  0.00  0.00    +0.148 C 
ATOM     25  C   UNL     1     -32.861  20.052  -0.587  0.00  0.00    +0.127 C 
ATOM     26  C   UNL     1     -31.859  18.345   0.786  0.00  0.00    +0.204 C 
ATOM     27  H   UNL     1     -30.033  17.796   1.509  0.00  0.00    +0.145 HD
ATOM     28  H   UNL     1     -31.320  16.778   1.973  0.00  0.00    +0.145 HD
ENDBRANCH  20  24
BRANCH  19  29
ATOM     29  O   UNL     1     -34.620  18.284  -2.366  0.00  0.00    -0.373 OA
ATOM     30  C   UNL     1     -34.875  18.854  -3.641  0.00  0.00    +0.288 C 
ENDBRANCH  19  29
ENDBRANCH   3  20
TORSDOF 6
ENDMDL
MODEL 7
REMARK VINA RESULT:      -5.7      3.598      5.456
REMARK  Name = 53396029
REMARK  6 active torsions:
REMARK  status: ('A' for Active; 'I' for Inactive)
REMARK    1  A    between atoms: N_2  and  CA_9
REMARK    2  A    between atoms: C_3  and  C_20
REMARK    3  A    between atoms: CA_11  and  C_16
REMARK    4  A    between atoms: C_16  and  O_17
REMARK    5  A    between atoms: N_19  and  O_29
REMARK    6  A    between atoms: C_20  and  C_24
REMARK                            x       y       z     vdW  Elec       q    Type
REMARK                         _______ _______ _______ _____ _____    ______ ____
ROOT
ATOM      1  O   UNL     1     -40.045  22.187   2.114  0.00  0.00    -0.268 OA
ATOM      2  N   UNL     1     -37.707  22.355   2.245  0.00  0.00    -0.291 N 
ATOM      3  C   UNL     1     -39.015  22.807   2.322  0.00  0.00    +0.269 C 
ATOM      4  H   UNL     1     -36.978  22.985   2.445  0.00  0.00    +0.150 HD
ENDROOT
BRANCH   2   9
ATOM      5  S   UNL     1     -37.783  19.526  -0.538  0.00  0.00    -0.114 S 
ATOM      6  O   UNL     1     -35.239  20.501   3.232  0.00  0.00    -0.273 OA
ATOM      7  N   UNL     1     -35.695  20.256   0.932  0.00  0.00    -0.242 N 
ATOM      8  C   UNL     1     -36.930  20.809   0.407  0.00  0.00    +0.155 C 
ATOM      9  CA  UNL     1     -37.365  20.983   1.878  0.00  0.00    +0.179 C 
ATOM     10  C   UNL     1     -35.906  20.578   2.227  0.00  0.00    +0.251 C 
ATOM     11  CA  UNL     1     -34.758  19.641   0.166  0.00  0.00    +0.124 C 
ATOM     12  C   UNL     1     -36.416  19.341  -1.732  0.00  0.00    +0.083 C 
ATOM     13  C   UNL     1     -35.031  19.237  -1.097  0.00  0.00    -0.013 C 
ATOM     14  C   UNL     1     -34.022  18.620  -2.037  0.00  0.00    +0.029 C 
BRANCH  11  16
ATOM     15  OXT UNL     1     -32.477  20.081   0.670  0.00  0.00    -0.244 OA
ATOM     16  C   UNL     1     -33.455  19.373   0.793  0.00  0.00    +0.351 C 
BRANCH  16  17
ATOM     17  O   UNL     1     -33.531  18.235   1.512  0.00  0.00    -0.476 OA
ATOM     18  H   UNL     1     -33.143  17.447   1.184  0.00  0.00    +0.295 HD
ENDBRANCH  16  17
ENDBRANCH  11  16
ENDBRANCH   2   9
BRANCH   3  20
ATOM     19  N   UNL     1     -40.267  24.858   2.712  0.00  0.00    -0.076 NA
ATOM     20  C   UNL     1     -39.116  24.254   2.724  0.00  0.00    +0.198 C 
BRANCH  20  24
ATOM     21  S   UNL     1     -35.829  26.468   3.123  0.00  0.00    -0.060 S 
ATOM     22  N   UNL     1     -37.345  24.799   4.386  0.00  0.00    -0.383 NA
ATOM     23  N   UNL     1     -35.489  25.596   5.613  0.00  0.00    -0.328 N 
ATOM     24  C   UNL     1     -37.879  24.977   3.125  0.00  0.00    +0.148 C 
ATOM     25  C   UNL     1     -37.197  25.845   2.298  0.00  0.00    +0.127 C 
ATOM     26  C   UNL     1     -36.262  25.536   4.497  0.00  0.00    +0.204 C 
ATOM     27  H   UNL     1     -34.689  26.171   5.627  0.00  0.00    +0.145 HD
ATOM     28  H   UNL     1     -35.727  25.066   6.406  0.00  0.00    +0.145 HD
ENDBRANCH  20  24
BRANCH  19  29
ATOM     29  O   UNL     1     -40.154  26.197   3.110  0.00  0.00    -0.373 OA
ATOM     30  C   UNL     1     -41.423  26.624   3.583  0.00  0.00    +0.288 C 
ENDBRANCH  19  29
ENDBRANCH   3  20
TORSDOF 6
ENDMDL
MODEL 8
REMARK VINA RESULT:      -5.7      3.019      7.766
REMARK  Name = 53396029
REMARK  6 active torsions:
REMARK  status: ('A' for Active; 'I' for Inactive)
REMARK    1  A    between atoms: N_2  and  CA_9
REMARK    2  A    between atoms: C_3  and  C_20
REMARK    3  A    between atoms: CA_11  and  C_16
REMARK    4  A    between atoms: C_16  and  O_17
REMARK    5  A    between atoms: N_19  and  O_29
REMARK    6  A    between atoms: C_20  and  C_24
REMARK                            x       y       z     vdW  Elec       q    Type
REMARK                         _______ _______ _______ _____ _____    ______ ____
ROOT
ATOM      1  O   UNL     1     -36.978  27.444   1.856  0.00  0.00    -0.268 OA
ATOM      2  N   UNL     1     -35.133  26.294   2.745  0.00  0.00    -0.291 N 
ATOM      3  C   UNL     1     -36.470  26.502   2.444  0.00  0.00    +0.269 C 
ATOM      4  H   UNL     1     -34.881  25.477   3.230  0.00  0.00    +0.150 HD
ENDROOT
BRANCH   2   9
ATOM      5  S   UNL     1     -34.063  30.091   2.301  0.00  0.00    -0.114 S 
ATOM      6  O   UNL     1     -31.916  26.028   3.019  0.00  0.00    -0.273 OA
ATOM      7  N   UNL     1     -32.696  28.188   3.551  0.00  0.00    -0.242 N 
ATOM      8  C   UNL     1     -34.065  28.533   3.217  0.00  0.00    +0.155 C 
ATOM      9  CA  UNL     1     -34.084  27.240   2.374  0.00  0.00    +0.179 C 
ATOM     10  C   UNL     1     -32.704  26.944   3.025  0.00  0.00    +0.251 C 
ATOM     11  CA  UNL     1     -31.842  29.024   4.197  0.00  0.00    +0.124 C 
ATOM     12  C   UNL     1     -33.313  31.026   3.677  0.00  0.00    +0.083 C 
ATOM     13  C   UNL     1     -32.108  30.346   4.322  0.00  0.00    -0.013 C 
ATOM     14  C   UNL     1     -31.251  31.324   5.093  0.00  0.00    +0.029 C 
BRANCH  11  16
ATOM     15  OXT UNL     1     -29.536  28.458   4.087  0.00  0.00    -0.244 OA
ATOM     16  C   UNL     1     -30.587  28.442   4.695  0.00  0.00    +0.351 C 
BRANCH  16  17
ATOM     17  O   UNL     1     -30.797  27.902   5.912  0.00  0.00    -0.476 OA
ATOM     18  H   UNL     1     -30.080  27.788   6.504  0.00  0.00    +0.295 HD
ENDBRANCH  16  17
ENDBRANCH  11  16
ENDBRANCH   2   9
BRANCH   3  20
ATOM     19  N   UNL     1     -38.654  25.520   2.878  0.00  0.00    -0.076 NA
ATOM     20  C   UNL     1     -37.363  25.389   2.925  0.00  0.00    +0.198 C 
BRANCH  20  24
ATOM     21  S   UNL     1     -35.699  21.846   3.658  0.00  0.00    -0.060 S 
ATOM     22  N   UNL     1     -36.499  24.015   4.812  0.00  0.00    -0.383 NA
ATOM     23  N   UNL     1     -35.586  22.385   6.260  0.00  0.00    -0.328 N 
ATOM     24  C   UNL     1     -36.740  24.148   3.459  0.00  0.00    +0.148 C 
ATOM     25  C   UNL     1     -36.374  23.076   2.672  0.00  0.00    +0.127 C 
ATOM     26  C   UNL     1     -35.952  22.840   5.033  0.00  0.00    +0.204 C 
ATOM     27  H   UNL     1     -35.179  21.493   6.353  0.00  0.00    +0.145 HD
ATOM     28  H   UNL     1     -35.726  22.946   7.055  0.00  0.00    +0.145 HD
ENDBRANCH  20  24
BRANCH  19  29
ATOM     29  O   UNL     1     -39.309  24.384   3.374  0.00  0.00    -0.373 OA
ATOM     30  C   UNL     1     -40.169  23.891   2.358  0.00  0.00    +0.288 C 
ENDBRANCH  19  29
ENDBRANCH   3  20
TORSDOF 6
ENDMDL
MODEL 9
REMARK VINA RESULT:      -5.7      2.453      7.831
REMARK  Name = 53396029
REMARK  6 active torsions:
REMARK  status: ('A' for Active; 'I' for Inactive)
REMARK    1  A    between atoms: N_2  and  CA_9
REMARK    2  A    between atoms: C_3  and  C_20
REMARK    3  A    between atoms: CA_11  and  C_16
REMARK    4  A    between atoms: C_16  and  O_17
REMARK    5  A    between atoms: N_19  and  O_29
REMARK    6  A    between atoms: C_20  and  C_24
REMARK                            x       y       z     vdW  Elec       q    Type
REMARK                         _______ _______ _______ _____ _____    ______ ____
ROOT
ATOM      1  O   UNL     1     -34.354  24.365   1.686  0.00  0.00    -0.268 OA
ATOM      2  N   UNL     1     -34.384  25.910   3.454  0.00  0.00    -0.291 N 
ATOM      3  C   UNL     1     -34.680  24.721   2.807  0.00  0.00    +0.269 C 
ATOM      4  H   UNL     1     -34.724  26.048   4.367  0.00  0.00    +0.150 HD
ENDROOT
BRANCH   2   9
ATOM      5  S   UNL     1     -33.791  29.809   3.000  0.00  0.00    -0.114 S 
ATOM      6  O   UNL     1     -31.252  25.930   2.625  0.00  0.00    -0.273 OA
ATOM      7  N   UNL     1     -31.955  27.975   3.564  0.00  0.00    -0.242 N 
ATOM      8  C   UNL     1     -33.377  28.209   3.732  0.00  0.00    +0.155 C 
ATOM      9  CA  UNL     1     -33.589  26.969   2.837  0.00  0.00    +0.179 C 
ATOM     10  C   UNL     1     -32.053  26.767   2.968  0.00  0.00    +0.251 C 
ATOM     11  CA  UNL     1     -30.994  28.849   3.958  0.00  0.00    +0.124 C 
ATOM     12  C   UNL     1     -32.688  30.732   4.123  0.00  0.00    +0.083 C 
ATOM     13  C   UNL     1     -31.292  30.132   4.274  0.00  0.00    -0.013 C 
ATOM     14  C   UNL     1     -30.296  31.141   4.797  0.00  0.00    +0.029 C 
BRANCH  11  16
ATOM     15  OXT UNL     1     -28.830  28.496   3.040  0.00  0.00    -0.244 OA
ATOM     16  C   UNL     1     -29.607  28.360   3.963  0.00  0.00    +0.351 C 
BRANCH  16  17
ATOM     17  O   UNL     1     -29.352  27.750   5.138  0.00  0.00    -0.476 OA
ATOM     18  H   UNL     1     -28.597  27.203   5.227  0.00  0.00    +0.295 HD
ENDBRANCH  16  17
ENDBRANCH  11  16
ENDBRANCH   2   9
BRANCH   3  20
ATOM     19  N   UNL     1     -35.467  23.854   4.942  0.00  0.00    -0.076 NA
ATOM     20  C   UNL     1     -35.509  23.784   3.646  0.00  0.00    +0.198 C 
BRANCH  20  24
ATOM     21  S   UNL     1     -38.302  21.620   1.808  0.00  0.00    -0.060 S 
ATOM     22  N   UNL     1     -35.889  21.503   2.726  0.00  0.00    -0.383 NA
ATOM     23  N   UNL     1     -36.687  19.507   1.741  0.00  0.00    -0.328 N 
ATOM     24  C   UNL     1     -36.366  22.777   2.964  0.00  0.00    +0.148 C 
ATOM     25  C   UNL     1     -37.653  23.029   2.537  0.00  0.00    +0.127 C 
ATOM     26  C   UNL     1     -36.825  20.805   2.121  0.00  0.00    +0.204 C 
ATOM     27  H   UNL     1     -37.431  19.045   1.290  0.00  0.00    +0.145 HD
ATOM     28  H   UNL     1     -35.845  19.030   1.916  0.00  0.00    +0.145 HD
ENDBRANCH  20  24
BRANCH  19  29
ATOM     29  O   UNL     1     -36.299  22.899   5.541  0.00  0.00    -0.373 OA
ATOM     30  C   UNL     1     -35.497  22.076   6.375  0.00  0.00    +0.288 C 
ENDBRANCH  19  29
ENDBRANCH   3  20
TORSDOF 6
ENDMDL
