MODEL 1
REMARK VINA RESULT:      -7.5      0.000      0.000
REMARK  Name = 20916937
REMARK  7 active torsions:
REMARK  status: ('A' for Active; 'I' for Inactive)
REMARK    1  A    between atoms: C_3  and  C_24
REMARK    2  A    between atoms: C_5  and  C_7
REMARK    3  A    between atoms: C_10  and  C_15
REMARK    4  A    between atoms: N_14  and  C_17
REMARK    5  A    between atoms: C_17  and  C_19
REMARK    6  A    between atoms: C_24  and  S_25
REMARK    7  A    between atoms: S_25  and  C_28
REMARK                            x       y       z     vdW  Elec       q    Type
REMARK                         _______ _______ _______ _____ _____    ______ ____
ROOT
ATOM      1  O   UNL     1     -37.310  23.157   2.930  0.00  0.00    -0.448 OA
ATOM      2  N   UNL     1     -35.541  21.770   2.683  0.00  0.00    -0.371 NA
ATOM      3  C   UNL     1     -36.661  21.198   2.137  0.00  0.00    +0.154 C 
ATOM      4  C   UNL     1     -37.738  22.036   2.285  0.00  0.00    +0.218 C 
ATOM      5  C   UNL     1     -35.989  22.917   3.131  0.00  0.00    +0.277 C 
ATOM      6  C   UNL     1     -39.156  21.978   1.916  0.00  0.00    +0.055 C 
ENDROOT
BRANCH   5   7
ATOM      7  C   UNL     1     -35.275  23.970   3.812  0.00  0.00    +0.066 C 
ATOM      8  C   UNL     1     -35.505  24.206   5.167  0.00  0.00    +0.006 C 
ATOM      9  C   UNL     1     -34.355  24.752   3.114  0.00  0.00    +0.006 C 
ATOM     10  C   UNL     1     -33.893  26.006   5.127  0.00  0.00    +0.053 C 
ATOM     11  C   UNL     1     -34.813  25.223   5.825  0.00  0.00    +0.005 C 
ATOM     12  C   UNL     1     -33.663  25.770   3.771  0.00  0.00    +0.005 C 
BRANCH  10  15
ATOM     13  O   UNL     1     -32.985  27.012   7.041  0.00  0.00    -0.270 OA
ATOM     14  N   UNL     1     -32.690  28.120   5.025  0.00  0.00    -0.297 N 
ATOM     15  C   UNL     1     -33.173  27.067   5.812  0.00  0.00    +0.246 C 
ATOM     16  H   UNL     1     -32.874  28.100   4.058  0.00  0.00    +0.150 HD
BRANCH  14  17
ATOM     17  C   UNL     1     -31.936  29.233   5.555  0.00  0.00    +0.118 C 
BRANCH  17  19
ATOM     18  N   UNL     1     -28.515  27.751   5.001  0.00  0.00    -0.243 NA
ATOM     19  C   UNL     1     -30.494  28.880   5.776  0.00  0.00    +0.017 C 
ATOM     20  C   UNL     1     -29.826  29.327   6.902  0.00  0.00    +0.001 C 
ATOM     21  C   UNL     1     -29.813  28.105   4.862  0.00  0.00    +0.096 C 
ATOM     22  C   UNL     1     -28.490  28.984   7.081  0.00  0.00    +0.020 C 
ATOM     23  C   UNL     1     -27.887  28.201   6.111  0.00  0.00    +0.099 C 
ENDBRANCH  17  19
ENDBRANCH  14  17
ENDBRANCH  10  15
ENDBRANCH   5   7
BRANCH   3  24
ATOM     24  C   UNL     1     -36.603  19.870   1.509  0.00  0.00    +0.214 C 
BRANCH  24  25
ATOM     25  S   UNL     1     -35.835  19.926  -0.089  0.00  0.00    +0.015 S 
ATOM     26  O   UNL     1     -35.719  21.313  -0.494  0.00  0.00    -0.168 OA
ATOM     27  O   UNL     1     -36.516  18.965  -0.934  0.00  0.00    -0.168 OA
BRANCH  25  28
ATOM     28  C   UNL     1     -34.199  19.331   0.210  0.00  0.00    +0.106 C 
ATOM     29  C   UNL     1     -34.000  17.979   0.431  0.00  0.00    +0.018 C 
ATOM     30  C   UNL     1     -33.142  20.228   0.219  0.00  0.00    +0.018 C 
ATOM     31  C   UNL     1     -31.634  18.398   0.680  0.00  0.00    -0.022 C 
ATOM     32  C   UNL     1     -32.708  17.508   0.668  0.00  0.00    -0.003 C 
ATOM     33  C   UNL     1     -31.851  19.757   0.455  0.00  0.00    -0.003 C 
ATOM     34  C   UNL     1     -30.253  17.895   0.935  0.00  0.00    +0.031 C 
ENDBRANCH  25  28
ENDBRANCH  24  25
ENDBRANCH   3  24
TORSDOF 7
ENDMDL
MODEL 2
REMARK VINA RESULT:      -7.5      4.119     11.000
REMARK  Name = 20916937
REMARK  7 active torsions:
REMARK  status: ('A' for Active; 'I' for Inactive)
REMARK    1  A    between atoms: C_3  and  C_24
REMARK    2  A    between atoms: C_5  and  C_7
REMARK    3  A    between atoms: C_10  and  C_15
REMARK    4  A    between atoms: N_14  and  C_17
REMARK    5  A    between atoms: C_17  and  C_19
REMARK    6  A    between atoms: C_24  and  S_25
REMARK    7  A    between atoms: S_25  and  C_28
REMARK                            x       y       z     vdW  Elec       q    Type
REMARK                         _______ _______ _______ _____ _____    ______ ____
ROOT
ATOM      1  O   UNL     1     -31.398  27.578   5.836  0.00  0.00    -0.448 OA
ATOM      2  N   UNL     1     -32.760  29.118   4.894  0.00  0.00    -0.371 NA
ATOM      3  C   UNL     1     -31.639  29.731   5.392  0.00  0.00    +0.154 C 
ATOM      4  C   UNL     1     -30.809  28.801   5.965  0.00  0.00    +0.218 C 
ATOM      5  C   UNL     1     -32.557  27.857   5.186  0.00  0.00    +0.277 C 
ATOM      6  C   UNL     1     -29.509  28.847   6.641  0.00  0.00    +0.055 C 
ENDROOT
BRANCH   5   7
ATOM      7  C   UNL     1     -33.394  26.714   4.915  0.00  0.00    +0.066 C 
ATOM      8  C   UNL     1     -34.092  26.097   5.953  0.00  0.00    +0.006 C 
ATOM      9  C   UNL     1     -33.503  26.224   3.614  0.00  0.00    +0.006 C 
ATOM     10  C   UNL     1     -35.011  24.501   4.388  0.00  0.00    +0.053 C 
ATOM     11  C   UNL     1     -34.901  24.992   5.690  0.00  0.00    +0.005 C 
ATOM     12  C   UNL     1     -34.312  25.118   3.350  0.00  0.00    +0.005 C 
BRANCH  10  15
ATOM     13  O   UNL     1     -36.359  22.700   5.047  0.00  0.00    -0.270 OA
ATOM     14  N   UNL     1     -36.080  23.032   2.769  0.00  0.00    -0.297 N 
ATOM     15  C   UNL     1     -35.854  23.349   4.114  0.00  0.00    +0.246 C 
ATOM     16  H   UNL     1     -35.648  23.589   2.081  0.00  0.00    +0.150 HD
BRANCH  14  17
ATOM     17  C   UNL     1     -36.913  21.934   2.336  0.00  0.00    +0.118 C 
BRANCH  17  19
ATOM     18  N   UNL     1     -35.960  19.157  -0.027  0.00  0.00    -0.243 NA
ATOM     19  C   UNL     1     -36.113  20.847   1.679  0.00  0.00    +0.017 C 
ATOM     20  C   UNL     1     -34.847  20.530   2.140  0.00  0.00    +0.001 C 
ATOM     21  C   UNL     1     -36.627  20.147   0.609  0.00  0.00    +0.096 C 
ATOM     22  C   UNL     1     -34.130  19.517   1.512  0.00  0.00    +0.020 C 
ATOM     23  C   UNL     1     -34.726  18.867   0.444  0.00  0.00    +0.099 C 
ENDBRANCH  17  19
ENDBRANCH  14  17
ENDBRANCH  10  15
ENDBRANCH   5   7
BRANCH   3  24
ATOM     24  C   UNL     1     -31.457  31.185   5.274  0.00  0.00    +0.214 C 
BRANCH  24  25
ATOM     25  S   UNL     1     -30.721  31.637   3.726  0.00  0.00    +0.015 S 
ATOM     26  O   UNL     1     -30.651  30.456   2.888  0.00  0.00    -0.168 OA
ATOM     27  O   UNL     1     -29.527  32.406   4.019  0.00  0.00    -0.168 OA
BRANCH  25  28
ATOM     28  C   UNL     1     -31.908  32.724   2.998  0.00  0.00    +0.106 C 
ATOM     29  C   UNL     1     -33.081  32.197   2.482  0.00  0.00    +0.018 C 
ATOM     30  C   UNL     1     -31.647  34.083   2.954  0.00  0.00    +0.018 C 
ATOM     31  C   UNL     1     -33.771  34.426   1.856  0.00  0.00    -0.022 C 
ATOM     32  C   UNL     1     -34.019  33.055   1.907  0.00  0.00    -0.003 C 
ATOM     33  C   UNL     1     -32.585  34.941   2.380  0.00  0.00    -0.003 C 
ATOM     34  C   UNL     1     -34.772  35.343   1.239  0.00  0.00    +0.031 C 
ENDBRANCH  25  28
ENDBRANCH  24  25
ENDBRANCH   3  24
TORSDOF 7
ENDMDL
MODEL 3
REMARK VINA RESULT:      -7.4      1.531      2.590
REMARK  Name = 20916937
REMARK  7 active torsions:
REMARK  status: ('A' for Active; 'I' for Inactive)
REMARK    1  A    between atoms: C_3  and  C_24
REMARK    2  A    between atoms: C_5  and  C_7
REMARK    3  A    between atoms: C_10  and  C_15
REMARK    4  A    between atoms: N_14  and  C_17
REMARK    5  A    between atoms: C_17  and  C_19
REMARK    6  A    between atoms: C_24  and  S_25
REMARK    7  A    between atoms: S_25  and  C_28
REMARK                            x       y       z     vdW  Elec       q    Type
REMARK                         _______ _______ _______ _____ _____    ______ ____
ROOT
ATOM      1  O   UNL     1     -37.316  23.166   2.962  0.00  0.00    -0.448 OA
ATOM      2  N   UNL     1     -35.538  21.823   2.575  0.00  0.00    -0.371 NA
ATOM      3  C   UNL     1     -36.678  21.238   2.087  0.00  0.00    +0.154 C 
ATOM      4  C   UNL     1     -37.760  22.049   2.320  0.00  0.00    +0.218 C 
ATOM      5  C   UNL     1     -35.979  22.951   3.074  0.00  0.00    +0.277 C 
ATOM      6  C   UNL     1     -39.197  21.968   2.040  0.00  0.00    +0.055 C 
ENDROOT
BRANCH   5   7
ATOM      7  C   UNL     1     -35.246  24.005   3.732  0.00  0.00    +0.066 C 
ATOM      8  C   UNL     1     -34.313  24.757   3.018  0.00  0.00    +0.006 C 
ATOM      9  C   UNL     1     -35.469  24.270   5.083  0.00  0.00    +0.006 C 
ATOM     10  C   UNL     1     -33.827  26.042   5.006  0.00  0.00    +0.053 C 
ATOM     11  C   UNL     1     -33.604  25.776   3.655  0.00  0.00    +0.005 C 
ATOM     12  C   UNL     1     -34.760  25.290   5.720  0.00  0.00    +0.005 C 
BRANCH  10  15
ATOM     13  O   UNL     1     -32.717  26.973   6.850  0.00  0.00    -0.270 OA
ATOM     14  N   UNL     1     -32.802  28.247   4.915  0.00  0.00    -0.297 N 
ATOM     15  C   UNL     1     -33.088  27.103   5.670  0.00  0.00    +0.246 C 
ATOM     16  H   UNL     1     -33.126  28.284   3.985  0.00  0.00    +0.150 HD
BRANCH  14  17
ATOM     17  C   UNL     1     -32.057  29.375   5.424  0.00  0.00    +0.118 C 
BRANCH  17  19
ATOM     18  N   UNL     1     -31.106  32.573   3.671  0.00  0.00    -0.243 NA
ATOM     19  C   UNL     1     -32.124  30.557   4.501  0.00  0.00    +0.017 C 
ATOM     20  C   UNL     1     -33.210  30.731   3.661  0.00  0.00    +0.001 C 
ATOM     21  C   UNL     1     -31.107  31.487   4.477  0.00  0.00    +0.096 C 
ATOM     22  C   UNL     1     -33.245  31.836   2.818  0.00  0.00    +0.020 C 
ATOM     23  C   UNL     1     -32.179  32.720   2.861  0.00  0.00    +0.099 C 
ENDBRANCH  17  19
ENDBRANCH  14  17
ENDBRANCH  10  15
ENDBRANCH   5   7
BRANCH   3  24
ATOM     24  C   UNL     1     -36.632  19.925   1.429  0.00  0.00    +0.214 C 
BRANCH  24  25
ATOM     25  S   UNL     1     -35.819  20.001  -0.145  0.00  0.00    +0.015 S 
ATOM     26  O   UNL     1     -35.686  21.393  -0.526  0.00  0.00    -0.168 OA
ATOM     27  O   UNL     1     -36.480  19.056  -1.024  0.00  0.00    -0.168 OA
BRANCH  25  28
ATOM     28  C   UNL     1     -34.194  19.394   0.191  0.00  0.00    +0.106 C 
ATOM     29  C   UNL     1     -33.122  20.269   0.147  0.00  0.00    +0.018 C 
ATOM     30  C   UNL     1     -34.021  18.053   0.493  0.00  0.00    +0.018 C 
ATOM     31  C   UNL     1     -31.647  18.443   0.717  0.00  0.00    -0.022 C 
ATOM     32  C   UNL     1     -31.839  19.791   0.411  0.00  0.00    -0.003 C 
ATOM     33  C   UNL     1     -32.738  17.575   0.759  0.00  0.00    -0.003 C 
ATOM     34  C   UNL     1     -30.275  17.931   0.999  0.00  0.00    +0.031 C 
ENDBRANCH  25  28
ENDBRANCH  24  25
ENDBRANCH   3  24
TORSDOF 7
ENDMDL
MODEL 4
REMARK VINA RESULT:      -7.3      5.346      8.181
REMARK  Name = 20916937
REMARK  7 active torsions:
REMARK  status: ('A' for Active; 'I' for Inactive)
REMARK    1  A    between atoms: C_3  and  C_24
REMARK    2  A    between atoms: C_5  and  C_7
REMARK    3  A    between atoms: C_10  and  C_15
REMARK    4  A    between atoms: N_14  and  C_17
REMARK    5  A    between atoms: C_17  and  C_19
REMARK    6  A    between atoms: C_24  and  S_25
REMARK    7  A    between atoms: S_25  and  C_28
REMARK                            x       y       z     vdW  Elec       q    Type
REMARK                         _______ _______ _______ _____ _____    ______ ____
ROOT
ATOM      1  O   UNL     1     -37.229  23.471   3.944  0.00  0.00    -0.448 OA
ATOM      2  N   UNL     1     -37.393  22.193   2.085  0.00  0.00    -0.371 NA
ATOM      3  C   UNL     1     -36.295  21.815   2.814  0.00  0.00    +0.154 C 
ATOM      4  C   UNL     1     -36.191  22.588   3.943  0.00  0.00    +0.218 C 
ATOM      5  C   UNL     1     -37.897  23.168   2.801  0.00  0.00    +0.277 C 
ATOM      6  C   UNL     1     -35.258  22.655   5.072  0.00  0.00    +0.055 C 
ENDROOT
BRANCH   5   7
ATOM      7  C   UNL     1     -39.068  23.972   2.548  0.00  0.00    +0.066 C 
ATOM      8  C   UNL     1     -39.968  23.601   1.549  0.00  0.00    +0.006 C 
ATOM      9  C   UNL     1     -39.299  25.122   3.303  0.00  0.00    +0.006 C 
ATOM     10  C   UNL     1     -41.332  25.529   2.060  0.00  0.00    +0.053 C 
ATOM     11  C   UNL     1     -41.100  24.379   1.306  0.00  0.00    +0.005 C 
ATOM     12  C   UNL     1     -40.432  25.900   3.059  0.00  0.00    +0.005 C 
BRANCH  10  15
ATOM     13  O   UNL     1     -43.553  25.820   1.368  0.00  0.00    -0.270 OA
ATOM     14  N   UNL     1     -42.420  27.706   2.101  0.00  0.00    -0.297 N 
ATOM     15  C   UNL     1     -42.511  26.340   1.807  0.00  0.00    +0.246 C 
ATOM     16  H   UNL     1     -41.564  28.051   2.445  0.00  0.00    +0.150 HD
BRANCH  14  17
ATOM     17  C   UNL     1     -43.511  28.636   1.926  0.00  0.00    +0.118 C 
BRANCH  17  19
ATOM     18  N   UNL     1     -44.990  31.178   4.282  0.00  0.00    -0.243 NA
ATOM     19  C   UNL     1     -43.833  29.370   3.195  0.00  0.00    +0.017 C 
ATOM     20  C   UNL     1     -43.300  28.954   4.402  0.00  0.00    +0.001 C 
ATOM     21  C   UNL     1     -44.662  30.472   3.177  0.00  0.00    +0.096 C 
ATOM     22  C   UNL     1     -43.614  29.655   5.561  0.00  0.00    +0.020 C 
ATOM     23  C   UNL     1     -44.455  30.750   5.449  0.00  0.00    +0.099 C 
ENDBRANCH  17  19
ENDBRANCH  14  17
ENDBRANCH  10  15
ENDBRANCH   5   7
BRANCH   3  24
ATOM     24  C   UNL     1     -35.423  20.724   2.357  0.00  0.00    +0.214 C 
BRANCH  24  25
ATOM     25  S   UNL     1     -34.668  21.090   0.795  0.00  0.00    +0.015 S 
ATOM     26  O   UNL     1     -34.176  22.453   0.831  0.00  0.00    -0.168 OA
ATOM     27  O   UNL     1     -35.585  20.663  -0.243  0.00  0.00    -0.168 OA
BRANCH  25  28
ATOM     28  C   UNL     1     -33.257  20.028   0.751  0.00  0.00    +0.106 C 
ATOM     29  C   UNL     1     -33.299  18.818   1.425  0.00  0.00    +0.018 C 
ATOM     30  C   UNL     1     -32.133  20.422   0.045  0.00  0.00    +0.018 C 
ATOM     31  C   UNL     1     -31.046  18.361   0.684  0.00  0.00    -0.022 C 
ATOM     32  C   UNL     1     -32.185  17.979   1.391  0.00  0.00    -0.003 C 
ATOM     33  C   UNL     1     -31.020  19.583   0.010  0.00  0.00    -0.003 C 
ATOM     34  C   UNL     1     -29.854  17.465   0.649  0.00  0.00    +0.031 C 
ENDBRANCH  25  28
ENDBRANCH  24  25
ENDBRANCH   3  24
TORSDOF 7
ENDMDL
MODEL 5
REMARK VINA RESULT:      -7.3      8.879     13.021
REMARK  Name = 20916937
REMARK  7 active torsions:
REMARK  status: ('A' for Active; 'I' for Inactive)
REMARK    1  A    between atoms: C_3  and  C_24
REMARK    2  A    between atoms: C_5  and  C_7
REMARK    3  A    between atoms: C_10  and  C_15
REMARK    4  A    between atoms: N_14  and  C_17
REMARK    5  A    between atoms: C_17  and  C_19
REMARK    6  A    between atoms: C_24  and  S_25
REMARK    7  A    between atoms: S_25  and  C_28
REMARK                            x       y       z     vdW  Elec       q    Type
REMARK                         _______ _______ _______ _____ _____    ______ ____
ROOT
ATOM      1  O   UNL     1     -43.928  27.634   1.791  0.00  0.00    -0.448 OA
ATOM      2  N   UNL     1     -42.887  28.841   3.397  0.00  0.00    -0.371 NA
ATOM      3  C   UNL     1     -44.066  29.448   3.049  0.00  0.00    +0.154 C 
ATOM      4  C   UNL     1     -44.701  28.720   2.075  0.00  0.00    +0.218 C 
ATOM      5  C   UNL     1     -42.865  27.783   2.624  0.00  0.00    +0.277 C 
ATOM      6  C   UNL     1     -45.955  28.859   1.327  0.00  0.00    +0.055 C 
ENDROOT
BRANCH   5   7
ATOM      7  C   UNL     1     -41.867  26.745   2.529  0.00  0.00    +0.066 C 
ATOM      8  C   UNL     1     -41.159  26.351   3.664  0.00  0.00    +0.006 C 
ATOM      9  C   UNL     1     -41.610  26.136   1.301  0.00  0.00    +0.006 C 
ATOM     10  C   UNL     1     -39.937  24.739   2.342  0.00  0.00    +0.053 C 
ATOM     11  C   UNL     1     -40.194  25.348   3.571  0.00  0.00    +0.005 C 
ATOM     12  C   UNL     1     -40.646  25.132   1.207  0.00  0.00    +0.005 C 
BRANCH  10  15
ATOM     13  O   UNL     1     -39.269  22.498   2.175  0.00  0.00    -0.270 OA
ATOM     14  N   UNL     1     -37.592  24.099   2.211  0.00  0.00    -0.297 N 
ATOM     15  C   UNL     1     -38.932  23.693   2.245  0.00  0.00    +0.246 C 
ATOM     16  H   UNL     1     -37.397  25.063   2.271  0.00  0.00    +0.150 HD
BRANCH  14  17
ATOM     17  C   UNL     1     -36.482  23.183   2.093  0.00  0.00    +0.118 C 
BRANCH  17  19
ATOM     18  N   UNL     1     -35.152  20.947   4.819  0.00  0.00    -0.243 NA
ATOM     19  C   UNL     1     -35.981  22.730   3.433  0.00  0.00    +0.017 C 
ATOM     20  C   UNL     1     -35.885  23.624   4.485  0.00  0.00    +0.001 C 
ATOM     21  C   UNL     1     -35.610  21.419   3.638  0.00  0.00    +0.096 C 
ATOM     22  C   UNL     1     -35.418  23.176   5.717  0.00  0.00    +0.020 C 
ATOM     23  C   UNL     1     -35.068  21.840   5.831  0.00  0.00    +0.099 C 
ENDBRANCH  17  19
ENDBRANCH  14  17
ENDBRANCH  10  15
ENDBRANCH   5   7
BRANCH   3  24
ATOM     24  C   UNL     1     -44.490  30.700   3.692  0.00  0.00    +0.214 C 
BRANCH  24  25
ATOM     25  S   UNL     1     -44.558  30.548   5.458  0.00  0.00    +0.015 S 
ATOM     26  O   UNL     1     -43.253  30.876   5.997  0.00  0.00    -0.168 OA
ATOM     27  O   UNL     1     -45.184  29.276   5.762  0.00  0.00    -0.168 OA
BRANCH  25  28
ATOM     28  C   UNL     1     -45.664  31.835   5.948  0.00  0.00    +0.106 C 
ATOM     29  C   UNL     1     -45.757  32.979   5.173  0.00  0.00    +0.018 C 
ATOM     30  C   UNL     1     -46.419  31.678   7.099  0.00  0.00    +0.018 C 
ATOM     31  C   UNL     1     -47.397  33.854   6.716  0.00  0.00    -0.022 C 
ATOM     32  C   UNL     1     -46.630  33.996   5.560  0.00  0.00    -0.003 C 
ATOM     33  C   UNL     1     -47.292  32.694   7.485  0.00  0.00    -0.003 C 
ATOM     34  C   UNL     1     -48.330  34.941   7.130  0.00  0.00    +0.031 C 
ENDBRANCH  25  28
ENDBRANCH  24  25
ENDBRANCH   3  24
TORSDOF 7
ENDMDL
MODEL 6
REMARK VINA RESULT:      -7.3      5.972      7.936
REMARK  Name = 20916937
REMARK  7 active torsions:
REMARK  status: ('A' for Active; 'I' for Inactive)
REMARK    1  A    between atoms: C_3  and  C_24
REMARK    2  A    between atoms: C_5  and  C_7
REMARK    3  A    between atoms: C_10  and  C_15
REMARK    4  A    between atoms: N_14  and  C_17
REMARK    5  A    between atoms: C_17  and  C_19
REMARK    6  A    between atoms: C_24  and  S_25
REMARK    7  A    between atoms: S_25  and  C_28
REMARK                            x       y       z     vdW  Elec       q    Type
REMARK                         _______ _______ _______ _____ _____    ______ ____
ROOT
ATOM      1  O   UNL     1     -34.613  26.368   1.521  0.00  0.00    -0.448 OA
ATOM      2  N   UNL     1     -34.851  26.522   3.765  0.00  0.00    -0.371 NA
ATOM      3  C   UNL     1     -34.561  25.228   3.416  0.00  0.00    +0.154 C 
ATOM      4  C   UNL     1     -34.416  25.129   2.055  0.00  0.00    +0.218 C 
ATOM      5  C   UNL     1     -34.867  27.140   2.610  0.00  0.00    +0.277 C 
ATOM      6  C   UNL     1     -34.114  24.040   1.120  0.00  0.00    +0.055 C 
ENDROOT
BRANCH   5   7
ATOM      7  C   UNL     1     -35.117  28.531   2.325  0.00  0.00    +0.066 C 
ATOM      8  C   UNL     1     -34.350  29.520   2.941  0.00  0.00    +0.006 C 
ATOM      9  C   UNL     1     -36.128  28.888   1.433  0.00  0.00    +0.006 C 
ATOM     10  C   UNL     1     -35.604  31.223   1.772  0.00  0.00    +0.053 C 
ATOM     11  C   UNL     1     -34.593  30.865   2.664  0.00  0.00    +0.005 C 
ATOM     12  C   UNL     1     -36.372  30.234   1.156  0.00  0.00    +0.005 C 
BRANCH  10  15
ATOM     13  O   UNL     1     -34.915  33.400   1.238  0.00  0.00    -0.270 OA
ATOM     14  N   UNL     1     -37.194  33.041   1.473  0.00  0.00    -0.297 N 
ATOM     15  C   UNL     1     -35.857  32.625   1.484  0.00  0.00    +0.246 C 
ATOM     16  H   UNL     1     -37.891  32.375   1.677  0.00  0.00    +0.150 HD
BRANCH  14  17
ATOM     17  C   UNL     1     -37.608  34.394   1.181  0.00  0.00    +0.118 C 
BRANCH  17  19
ATOM     18  N   UNL     1     -41.331  34.101   1.685  0.00  0.00    -0.243 NA
ATOM     19  C   UNL     1     -38.995  34.678   1.679  0.00  0.00    +0.017 C 
ATOM     20  C   UNL     1     -39.228  35.728   2.549  0.00  0.00    +0.001 C 
ATOM     21  C   UNL     1     -40.058  33.899   1.276  0.00  0.00    +0.096 C 
ATOM     22  C   UNL     1     -40.524  35.968   2.994  0.00  0.00    +0.020 C 
ATOM     23  C   UNL     1     -41.531  35.134   2.536  0.00  0.00    +0.099 C 
ENDBRANCH  17  19
ENDBRANCH  14  17
ENDBRANCH  10  15
ENDBRANCH   5   7
BRANCH   3  24
ATOM     24  C   UNL     1     -34.447  24.177   4.437  0.00  0.00    +0.214 C 
BRANCH  24  25
ATOM     25  S   UNL     1     -36.017  23.442   4.810  0.00  0.00    +0.015 S 
ATOM     26  O   UNL     1     -37.043  24.457   4.673  0.00  0.00    -0.168 OA
ATOM     27  O   UNL     1     -35.869  22.704   6.050  0.00  0.00    -0.168 OA
BRANCH  25  28
ATOM     28  C   UNL     1     -36.257  22.278   3.504  0.00  0.00    +0.106 C 
ATOM     29  C   UNL     1     -37.357  22.409   2.673  0.00  0.00    +0.018 C 
ATOM     30  C   UNL     1     -35.341  21.253   3.332  0.00  0.00    +0.018 C 
ATOM     31  C   UNL     1     -36.634  20.452   1.455  0.00  0.00    -0.022 C 
ATOM     32  C   UNL     1     -37.548  21.490   1.641  0.00  0.00    -0.003 C 
ATOM     33  C   UNL     1     -35.530  20.334   2.300  0.00  0.00    -0.003 C 
ATOM     34  C   UNL     1     -36.838  19.469   0.353  0.00  0.00    +0.031 C 
ENDBRANCH  25  28
ENDBRANCH  24  25
ENDBRANCH   3  24
TORSDOF 7
ENDMDL
MODEL 7
REMARK VINA RESULT:      -7.2      3.296     10.462
REMARK  Name = 20916937
REMARK  7 active torsions:
REMARK  status: ('A' for Active; 'I' for Inactive)
REMARK    1  A    between atoms: C_3  and  C_24
REMARK    2  A    between atoms: C_5  and  C_7
REMARK    3  A    between atoms: C_10  and  C_15
REMARK    4  A    between atoms: N_14  and  C_17
REMARK    5  A    between atoms: C_17  and  C_19
REMARK    6  A    between atoms: C_24  and  S_25
REMARK    7  A    between atoms: S_25  and  C_28
REMARK                            x       y       z     vdW  Elec       q    Type
REMARK                         _______ _______ _______ _____ _____    ______ ____
ROOT
ATOM      1  O   UNL     1     -33.090  28.453   4.252  0.00  0.00    -0.448 OA
ATOM      2  N   UNL     1     -32.251  27.515   6.132  0.00  0.00    -0.371 NA
ATOM      3  C   UNL     1     -31.763  28.789   5.990  0.00  0.00    +0.154 C 
ATOM      4  C   UNL     1     -32.269  29.362   4.850  0.00  0.00    +0.218 C 
ATOM      5  C   UNL     1     -33.023  27.380   5.082  0.00  0.00    +0.277 C 
ATOM      6  C   UNL     1     -32.119  30.662   4.188  0.00  0.00    +0.055 C 
ENDROOT
BRANCH   5   7
ATOM      7  C   UNL     1     -33.817  26.246   4.676  0.00  0.00    +0.066 C 
ATOM      8  C   UNL     1     -34.575  25.551   5.618  0.00  0.00    +0.006 C 
ATOM      9  C   UNL     1     -33.824  25.844   3.340  0.00  0.00    +0.006 C 
ATOM     10  C   UNL     1     -35.351  24.052   3.888  0.00  0.00    +0.053 C 
ATOM     11  C   UNL     1     -35.343  24.455   5.224  0.00  0.00    +0.005 C 
ATOM     12  C   UNL     1     -34.592  24.747   2.946  0.00  0.00    +0.005 C 
BRANCH  10  15
ATOM     13  O   UNL     1     -37.389  22.932   3.590  0.00  0.00    -0.270 OA
ATOM     14  N   UNL     1     -35.466  21.815   2.937  0.00  0.00    -0.297 N 
ATOM     15  C   UNL     1     -36.151  22.910   3.478  0.00  0.00    +0.246 C 
ATOM     16  H   UNL     1     -34.484  21.864   2.877  0.00  0.00    +0.150 HD
BRANCH  14  17
ATOM     17  C   UNL     1     -36.120  20.618   2.462  0.00  0.00    +0.118 C 
BRANCH  17  19
ATOM     18  N   UNL     1     -35.132  18.846  -0.714  0.00  0.00    -0.243 NA
ATOM     19  C   UNL     1     -35.288  19.884   1.451  0.00  0.00    +0.017 C 
ATOM     20  C   UNL     1     -33.967  19.573   1.721  0.00  0.00    +0.001 C 
ATOM     21  C   UNL     1     -35.826  19.509   0.239  0.00  0.00    +0.096 C 
ATOM     22  C   UNL     1     -33.220  18.892   0.766  0.00  0.00    +0.020 C 
ATOM     23  C   UNL     1     -33.844  18.554  -0.424  0.00  0.00    +0.099 C 
ENDBRANCH  17  19
ENDBRANCH  14  17
ENDBRANCH  10  15
ENDBRANCH   5   7
BRANCH   3  24
ATOM     24  C   UNL     1     -30.835  29.358   6.978  0.00  0.00    +0.214 C 
BRANCH  24  25
ATOM     25  S   UNL     1     -29.150  28.934   6.625  0.00  0.00    +0.015 S 
ATOM     26  O   UNL     1     -29.113  27.570   6.136  0.00  0.00    -0.168 OA
ATOM     27  O   UNL     1     -28.353  29.329   7.770  0.00  0.00    -0.168 OA
BRANCH  25  28
ATOM     28  C   UNL     1     -28.727  29.986   5.272  0.00  0.00    +0.106 C 
ATOM     29  C   UNL     1     -28.609  31.349   5.485  0.00  0.00    +0.018 C 
ATOM     30  C   UNL     1     -28.519  29.430   4.020  0.00  0.00    +0.018 C 
ATOM     31  C   UNL     1     -28.063  31.637   3.149  0.00  0.00    -0.022 C 
ATOM     32  C   UNL     1     -28.275  32.181   4.416  0.00  0.00    -0.003 C 
ATOM     33  C   UNL     1     -28.184  30.261   2.951  0.00  0.00    -0.003 C 
ATOM     34  C   UNL     1     -27.707  32.526   2.006  0.00  0.00    +0.031 C 
ENDBRANCH  25  28
ENDBRANCH  24  25
ENDBRANCH   3  24
TORSDOF 7
ENDMDL
MODEL 8
REMARK VINA RESULT:      -7.1      3.652      9.939
REMARK  Name = 20916937
REMARK  7 active torsions:
REMARK  status: ('A' for Active; 'I' for Inactive)
REMARK    1  A    between atoms: C_3  and  C_24
REMARK    2  A    between atoms: C_5  and  C_7
REMARK    3  A    between atoms: C_10  and  C_15
REMARK    4  A    between atoms: N_14  and  C_17
REMARK    5  A    between atoms: C_17  and  C_19
REMARK    6  A    between atoms: C_24  and  S_25
REMARK    7  A    between atoms: S_25  and  C_28
REMARK                            x       y       z     vdW  Elec       q    Type
REMARK                         _______ _______ _______ _____ _____    ______ ____
ROOT
ATOM      1  O   UNL     1     -35.941  20.430   1.123  0.00  0.00    -0.448 OA
ATOM      2  N   UNL     1     -34.792  22.323   1.583  0.00  0.00    -0.371 NA
ATOM      3  C   UNL     1     -36.139  22.559   1.689  0.00  0.00    +0.154 C 
ATOM      4  C   UNL     1     -36.840  21.413   1.411  0.00  0.00    +0.218 C 
ATOM      5  C   UNL     1     -34.743  21.057   1.249  0.00  0.00    +0.277 C 
ATOM      6  C   UNL     1     -38.261  21.052   1.362  0.00  0.00    +0.055 C 
ENDROOT
BRANCH   5   7
ATOM      7  C   UNL     1     -33.591  20.227   0.993  0.00  0.00    +0.066 C 
ATOM      8  C   UNL     1     -33.527  18.938   1.522  0.00  0.00    +0.006 C 
ATOM      9  C   UNL     1     -32.539  20.715   0.218  0.00  0.00    +0.006 C 
ATOM     10  C   UNL     1     -31.361  18.624   0.498  0.00  0.00    +0.053 C 
ATOM     11  C   UNL     1     -32.413  18.136   1.274  0.00  0.00    +0.005 C 
ATOM     12  C   UNL     1     -31.424  19.914  -0.031  0.00  0.00    +0.005 C 
BRANCH  10  15
ATOM     13  O   UNL     1     -29.126  17.999   0.832  0.00  0.00    -0.270 OA
ATOM     14  N   UNL     1     -30.361  16.741  -0.676  0.00  0.00    -0.297 N 
ATOM     15  C   UNL     1     -30.200  17.789   0.239  0.00  0.00    +0.246 C 
ATOM     16  H   UNL     1     -31.239  16.632  -1.108  0.00  0.00    +0.150 HD
BRANCH  14  17
ATOM     17  C   UNL     1     -29.310  15.812  -1.019  0.00  0.00    +0.118 C 
BRANCH  17  19
ATOM     18  N   UNL     1     -28.204  13.046   1.290  0.00  0.00    -0.243 NA
ATOM     19  C   UNL     1     -29.354  14.574  -0.170  0.00  0.00    +0.017 C 
ATOM     20  C   UNL     1     -30.520  13.839  -0.060  0.00  0.00    +0.001 C 
ATOM     21  C   UNL     1     -28.233  14.150   0.511  0.00  0.00    +0.096 C 
ATOM     22  C   UNL     1     -30.532  12.697   0.733  0.00  0.00    +0.020 C 
ATOM     23  C   UNL     1     -29.358  12.346   1.381  0.00  0.00    +0.099 C 
ENDBRANCH  17  19
ENDBRANCH  14  17
ENDBRANCH  10  15
ENDBRANCH   5   7
BRANCH   3  24
ATOM     24  C   UNL     1     -36.647  23.889   2.055  0.00  0.00    +0.214 C 
BRANCH  24  25
ATOM     25  S   UNL     1     -36.795  24.082   3.811  0.00  0.00    +0.015 S 
ATOM     26  O   UNL     1     -36.489  22.812   4.440  0.00  0.00    -0.168 OA
ATOM     27  O   UNL     1     -38.054  24.751   4.072  0.00  0.00    -0.168 OA
BRANCH  25  28
ATOM     28  C   UNL     1     -35.487  25.196   4.222  0.00  0.00    +0.106 C 
ATOM     29  C   UNL     1     -35.081  25.306   5.542  0.00  0.00    +0.018 C 
ATOM     30  C   UNL     1     -34.888  25.939   3.219  0.00  0.00    +0.018 C 
ATOM     31  C   UNL     1     -33.436  26.942   4.868  0.00  0.00    -0.022 C 
ATOM     32  C   UNL     1     -34.049  26.186   5.868  0.00  0.00    -0.003 C 
ATOM     33  C   UNL     1     -33.855  26.818   3.543  0.00  0.00    -0.003 C 
ATOM     34  C   UNL     1     -32.333  27.883   5.216  0.00  0.00    +0.031 C 
ENDBRANCH  25  28
ENDBRANCH  24  25
ENDBRANCH   3  24
TORSDOF 7
ENDMDL
MODEL 9
REMARK VINA RESULT:      -7.1      4.212     11.260
REMARK  Name = 20916937
REMARK  7 active torsions:
REMARK  status: ('A' for Active; 'I' for Inactive)
REMARK    1  A    between atoms: C_3  and  C_24
REMARK    2  A    between atoms: C_5  and  C_7
REMARK    3  A    between atoms: C_10  and  C_15
REMARK    4  A    between atoms: N_14  and  C_17
REMARK    5  A    between atoms: C_17  and  C_19
REMARK    6  A    between atoms: C_24  and  S_25
REMARK    7  A    between atoms: S_25  and  C_28
REMARK                            x       y       z     vdW  Elec       q    Type
REMARK                         _______ _______ _______ _____ _____    ______ ____
ROOT
ATOM      1  O   UNL     1     -31.313  27.649   5.804  0.00  0.00    -0.448 OA
ATOM      2  N   UNL     1     -32.677  29.184   4.856  0.00  0.00    -0.371 NA
ATOM      3  C   UNL     1     -31.572  29.805   5.381  0.00  0.00    +0.154 C 
ATOM      4  C   UNL     1     -30.742  28.877   5.958  0.00  0.00    +0.218 C 
ATOM      5  C   UNL     1     -32.464  27.922   5.136  0.00  0.00    +0.277 C 
ATOM      6  C   UNL     1     -29.454  28.931   6.658  0.00  0.00    +0.055 C 
ENDROOT
BRANCH   5   7
ATOM      7  C   UNL     1     -33.282  26.772   4.837  0.00  0.00    +0.066 C 
ATOM      8  C   UNL     1     -33.342  26.278   3.534  0.00  0.00    +0.006 C 
ATOM      9  C   UNL     1     -34.015  26.156   5.851  0.00  0.00    +0.006 C 
ATOM     10  C   UNL     1     -34.866  24.549   4.260  0.00  0.00    +0.053 C 
ATOM     11  C   UNL     1     -34.133  25.166   3.246  0.00  0.00    +0.005 C 
ATOM     12  C   UNL     1     -34.807  25.044   5.563  0.00  0.00    +0.005 C 
BRANCH  10  15
ATOM     13  O   UNL     1     -36.367  22.847   4.852  0.00  0.00    -0.270 OA
ATOM     14  N   UNL     1     -35.701  22.943   2.633  0.00  0.00    -0.297 N 
ATOM     15  C   UNL     1     -35.691  23.390   3.960  0.00  0.00    +0.246 C 
ATOM     16  H   UNL     1     -35.141  23.420   1.977  0.00  0.00    +0.150 HD
BRANCH  14  17
ATOM     17  C   UNL     1     -36.487  21.821   2.173  0.00  0.00    +0.118 C 
BRANCH  17  19
ATOM     18  N   UNL     1     -40.186  22.327   1.658  0.00  0.00    -0.243 NA
ATOM     19  C   UNL     1     -37.783  22.259   1.555  0.00  0.00    +0.017 C 
ATOM     20  C   UNL     1     -37.791  22.964   0.365  0.00  0.00    +0.001 C 
ATOM     21  C   UNL     1     -38.985  21.963   2.162  0.00  0.00    +0.096 C 
ATOM     22  C   UNL     1     -39.007  23.356  -0.185  0.00  0.00    +0.020 C 
ATOM     23  C   UNL     1     -40.165  23.015   0.494  0.00  0.00    +0.099 C 
ENDBRANCH  17  19
ENDBRANCH  14  17
ENDBRANCH  10  15
ENDBRANCH   5   7
BRANCH   3  24
ATOM     24  C   UNL     1     -31.406  31.262   5.284  0.00  0.00    +0.214 C 
BRANCH  24  25
ATOM     25  S   UNL     1     -30.664  31.743   3.747  0.00  0.00    +0.015 S 
ATOM     26  O   UNL     1     -30.562  30.571   2.900  0.00  0.00    -0.168 OA
ATOM     27  O   UNL     1     -29.488  32.532   4.059  0.00  0.00    -0.168 OA
BRANCH  25  28
ATOM     28  C   UNL     1     -31.865  32.812   3.017  0.00  0.00    +0.106 C 
ATOM     29  C   UNL     1     -33.001  32.263   2.445  0.00  0.00    +0.018 C 
ATOM     30  C   UNL     1     -31.652  34.180   3.028  0.00  0.00    +0.018 C 
ATOM     31  C   UNL     1     -33.750  34.487   1.871  0.00  0.00    -0.022 C 
ATOM     32  C   UNL     1     -33.950  33.107   1.867  0.00  0.00    -0.003 C 
ATOM     33  C   UNL     1     -32.601  35.024   2.453  0.00  0.00    -0.003 C 
ATOM     34  C   UNL     1     -34.764  35.389   1.253  0.00  0.00    +0.031 C 
ENDBRANCH  25  28
ENDBRANCH  24  25
ENDBRANCH   3  24
TORSDOF 7
ENDMDL
