MODEL 1
REMARK VINA RESULT:      -7.5      0.000      0.000
REMARK  Name = 21585555
REMARK  7 active torsions:
REMARK  status: ('A' for Active; 'I' for Inactive)
REMARK    1  A    between atoms: C_6  and  O_20
REMARK    2  A    between atoms: C_8  and  O_22
REMARK    3  A    between atoms: C_13  and  C_24
REMARK    4  A    between atoms: C_25  and  C_26
REMARK    5  A    between atoms: C_27  and  C_28
REMARK    6  A    between atoms: C_29  and  C_31
REMARK    7  A    between atoms: C_31  and  O_32
REMARK                            x       y       z     vdW  Elec       q    Type
REMARK                         _______ _______ _______ _____ _____    ______ ____
ROOT
ATOM      1  O   UNL     1     -35.577  22.015   4.637  0.00  0.00    -0.474 OA
ATOM      2  O   UNL     1     -38.375  23.365   1.553  0.00  0.00    -0.449 OA
ATOM      3  O   UNL     1     -34.349  26.436   2.698  0.00  0.00    -0.289 OA
ATOM      4  O   UNL     1     -36.384  23.055   0.416  0.00  0.00    -0.245 OA
ATOM      5  C   UNL     1     -36.713  24.026   3.895  0.00  0.00    +0.110 C 
ATOM      6  C   UNL     1     -36.404  25.529   3.659  0.00  0.00    +0.175 C 
ATOM      7  C   UNL     1     -35.828  23.394   5.006  0.00  0.00    +0.195 C 
ATOM      8  C   UNL     1     -37.142  26.173   2.455  0.00  0.00    +0.142 C 
ATOM      9  C   UNL     1     -36.496  23.036   2.796  0.00  0.00    +0.094 C 
ATOM     10  C   UNL     1     -38.678  26.080   2.515  0.00  0.00    +0.032 C 
ATOM     11  C   UNL     1     -34.884  25.737   3.556  0.00  0.00    +0.200 C 
ATOM     12  C   UNL     1     -34.491  24.034   5.241  0.00  0.00    +0.020 C 
ATOM     13  C   UNL     1     -35.876  21.960   3.279  0.00  0.00    +0.141 C 
ATOM     14  C   UNL     1     -39.360  26.224   1.143  0.00  0.00    +0.006 C 
ATOM     15  C   UNL     1     -34.026  25.092   4.575  0.00  0.00    +0.039 C 
ATOM     16  C   UNL     1     -38.954  25.217   0.051  0.00  0.00    +0.044 C 
ATOM     17  C   UNL     1     -37.044  23.138   1.438  0.00  0.00    +0.340 C 
ATOM     18  C   UNL     1     -39.122  23.722   0.376  0.00  0.00    +0.169 C 
ATOM     19  C   UNL     1     -40.578  23.350   0.637  0.00  0.00    +0.047 C 
ENDROOT
BRANCH   6  20
ATOM     20  O   UNL     1     -36.797  26.226   4.849  0.00  0.00    -0.377 OA
ATOM     21  H   UNL     1     -36.411  25.787   5.624  0.00  0.00    +0.211 HD
ENDBRANCH   6  20
BRANCH   8  22
ATOM     22  O   UNL     1     -36.815  27.572   2.407  0.00  0.00    -0.382 OA
ATOM     23  H   UNL     1     -35.851  27.679   2.389  0.00  0.00    +0.210 HD
ENDBRANCH   8  22
BRANCH  13  24
ATOM     24  C   UNL     1     -35.549  20.733   2.621  0.00  0.00    +0.037 C 
ATOM     25  C   UNL     1     -34.468  20.574   1.840  0.00  0.00    +0.003 C 
BRANCH  25  26
ATOM     26  C   UNL     1     -34.145  19.329   1.178  0.00  0.00    +0.000 C 
ATOM     27  C   UNL     1     -32.982  18.685   1.361  0.00  0.00    +0.000 C 
BRANCH  27  28
ATOM     28  C   UNL     1     -32.598  17.454   0.704  0.00  0.00    +0.007 C 
ATOM     29  C   UNL     1     -33.439  16.637   0.057  0.00  0.00    +0.082 C 
BRANCH  29  31
ATOM     30  O   UNL     1     -33.261  14.915  -1.617  0.00  0.00    -0.245 OA
ATOM     31  C   UNL     1     -32.927  15.391  -0.546  0.00  0.00    +0.338 C 
BRANCH  31  32
ATOM     32  O   UNL     1     -32.011  14.848   0.290  0.00  0.00    -0.477 OA
ATOM     33  H   UNL     1     -31.568  14.059   0.050  0.00  0.00    +0.295 HD
ENDBRANCH  31  32
ENDBRANCH  29  31
ENDBRANCH  27  28
ENDBRANCH  25  26
ENDBRANCH  13  24
TORSDOF 7
ENDMDL
MODEL 2
REMARK VINA RESULT:      -7.1      1.969      2.365
REMARK  Name = 21585555
REMARK  7 active torsions:
REMARK  status: ('A' for Active; 'I' for Inactive)
REMARK    1  A    between atoms: C_6  and  O_20
REMARK    2  A    between atoms: C_8  and  O_22
REMARK    3  A    between atoms: C_13  and  C_24
REMARK    4  A    between atoms: C_25  and  C_26
REMARK    5  A    between atoms: C_27  and  C_28
REMARK    6  A    between atoms: C_29  and  C_31
REMARK    7  A    between atoms: C_31  and  O_32
REMARK                            x       y       z     vdW  Elec       q    Type
REMARK                         _______ _______ _______ _____ _____    ______ ____
ROOT
ATOM      1  O   UNL     1     -36.192  22.107   3.327  0.00  0.00    -0.474 OA
ATOM      2  O   UNL     1     -35.668  25.193   0.267  0.00  0.00    -0.449 OA
ATOM      3  O   UNL     1     -33.526  25.998   4.927  0.00  0.00    -0.289 OA
ATOM      4  O   UNL     1     -33.526  24.409   0.654  0.00  0.00    -0.245 OA
ATOM      5  C   UNL     1     -36.217  24.520   3.084  0.00  0.00    +0.110 C 
ATOM      6  C   UNL     1     -35.695  25.780   3.826  0.00  0.00    +0.175 C 
ATOM      7  C   UNL     1     -36.502  23.330   4.041  0.00  0.00    +0.195 C 
ATOM      8  C   UNL     1     -35.242  26.947   2.907  0.00  0.00    +0.142 C 
ATOM      9  C   UNL     1     -35.356  23.838   2.070  0.00  0.00    +0.094 C 
ATOM     10  C   UNL     1     -36.324  27.464   1.941  0.00  0.00    +0.032 C 
ATOM     11  C   UNL     1     -34.582  25.380   4.807  0.00  0.00    +0.200 C 
ATOM     12  C   UNL     1     -35.720  23.298   5.321  0.00  0.00    +0.020 C 
ATOM     13  C   UNL     1     -35.397  22.520   2.262  0.00  0.00    +0.141 C 
ATOM     14  C   UNL     1     -35.758  28.210   0.720  0.00  0.00    +0.006 C 
ATOM     15  C   UNL     1     -34.818  24.213   5.684  0.00  0.00    +0.039 C 
ATOM     16  C   UNL     1     -34.776  27.435  -0.178  0.00  0.00    +0.044 C 
ATOM     17  C   UNL     1     -34.713  24.489   0.923  0.00  0.00    +0.340 C 
ATOM     18  C   UNL     1     -35.268  26.104  -0.773  0.00  0.00    +0.169 C 
ATOM     19  C   UNL     1     -36.470  26.293  -1.692  0.00  0.00    +0.047 C 
ENDROOT
BRANCH   6  20
ATOM     20  O   UNL     1     -36.769  26.252   4.650  0.00  0.00    -0.377 OA
ATOM     21  H   UNL     1     -37.322  26.867   4.141  0.00  0.00    +0.211 HD
ENDBRANCH   6  20
BRANCH   8  22
ATOM     22  O   UNL     1     -34.857  28.060   3.730  0.00  0.00    -0.382 OA
ATOM     23  H   UNL     1     -34.258  28.638   3.233  0.00  0.00    +0.210 HD
ENDBRANCH   8  22
BRANCH  13  24
ATOM     24  C   UNL     1     -34.809  21.474   1.484  0.00  0.00    +0.037 C 
ATOM     25  C   UNL     1     -34.682  20.208   1.918  0.00  0.00    +0.003 C 
BRANCH  25  26
ATOM     26  C   UNL     1     -34.087  19.156   1.124  0.00  0.00    +0.000 C 
ATOM     27  C   UNL     1     -32.952  18.531   1.474  0.00  0.00    +0.000 C 
BRANCH  27  28
ATOM     28  C   UNL     1     -32.300  17.493   0.705  0.00  0.00    +0.007 C 
ATOM     29  C   UNL     1     -32.916  16.424   0.185  0.00  0.00    +0.082 C 
BRANCH  29  31
ATOM     30  O   UNL     1     -31.928  15.397  -1.756  0.00  0.00    -0.245 OA
ATOM     31  C   UNL     1     -32.131  15.417  -0.555  0.00  0.00    +0.338 C 
BRANCH  31  32
ATOM     32  O   UNL     1     -31.662  14.500   0.324  0.00  0.00    -0.477 OA
ATOM     33  H   UNL     1     -30.739  14.360   0.407  0.00  0.00    +0.295 HD
ENDBRANCH  31  32
ENDBRANCH  29  31
ENDBRANCH  27  28
ENDBRANCH  25  26
ENDBRANCH  13  24
TORSDOF 7
ENDMDL
MODEL 3
REMARK VINA RESULT:      -6.5      2.434      4.851
REMARK  Name = 21585555
REMARK  7 active torsions:
REMARK  status: ('A' for Active; 'I' for Inactive)
REMARK    1  A    between atoms: C_6  and  O_20
REMARK    2  A    between atoms: C_8  and  O_22
REMARK    3  A    between atoms: C_13  and  C_24
REMARK    4  A    between atoms: C_25  and  C_26
REMARK    5  A    between atoms: C_27  and  C_28
REMARK    6  A    between atoms: C_29  and  C_31
REMARK    7  A    between atoms: C_31  and  O_32
REMARK                            x       y       z     vdW  Elec       q    Type
REMARK                         _______ _______ _______ _____ _____    ______ ____
ROOT
ATOM      1  O   UNL     1     -35.861  20.758  -0.405  0.00  0.00    -0.474 OA
ATOM      2  O   UNL     1     -35.082  23.156   3.174  0.00  0.00    -0.449 OA
ATOM      3  O   UNL     1     -39.930  21.478   2.377  0.00  0.00    -0.289 OA
ATOM      4  O   UNL     1     -35.689  21.083   4.002  0.00  0.00    -0.245 OA
ATOM      5  C   UNL     1     -36.851  22.551   0.895  0.00  0.00    +0.110 C 
ATOM      6  C   UNL     1     -38.241  22.974   1.442  0.00  0.00    +0.175 C 
ATOM      7  C   UNL     1     -36.945  21.720  -0.415  0.00  0.00    +0.195 C 
ATOM      8  C   UNL     1     -38.220  23.668   2.831  0.00  0.00    +0.142 C 
ATOM      9  C   UNL     1     -35.968  21.657   1.706  0.00  0.00    +0.094 C 
ATOM     10  C   UNL     1     -37.351  24.937   2.905  0.00  0.00    +0.032 C 
ATOM     11  C   UNL     1     -39.191  21.766   1.437  0.00  0.00    +0.200 C 
ATOM     12  C   UNL     1     -38.213  20.947  -0.628  0.00  0.00    +0.020 C 
ATOM     13  C   UNL     1     -35.458  20.705   0.927  0.00  0.00    +0.141 C 
ATOM     14  C   UNL     1     -36.914  25.305   4.334  0.00  0.00    +0.006 C 
ATOM     15  C   UNL     1     -39.247  20.933   0.216  0.00  0.00    +0.039 C 
ATOM     16  C   UNL     1     -36.117  24.243   5.115  0.00  0.00    +0.044 C 
ATOM     17  C   UNL     1     -35.568  21.893   3.098  0.00  0.00    +0.340 C 
ATOM     18  C   UNL     1     -34.820  23.722   4.471  0.00  0.00    +0.169 C 
ATOM     19  C   UNL     1     -33.788  24.829   4.278  0.00  0.00    +0.047 C 
ENDROOT
BRANCH   6  20
ATOM     20  O   UNL     1     -38.799  23.893   0.493  0.00  0.00    -0.377 OA
ATOM     21  H   UNL     1     -38.528  23.636  -0.404  0.00  0.00    +0.211 HD
ENDBRANCH   6  20
BRANCH   8  22
ATOM     22  O   UNL     1     -39.560  24.064   3.169  0.00  0.00    -0.382 OA
ATOM     23  H   UNL     1     -40.134  23.959   2.395  0.00  0.00    +0.210 HD
ENDBRANCH   8  22
BRANCH  13  24
ATOM     24  C   UNL     1     -34.498  19.693   1.245  0.00  0.00    +0.037 C 
ATOM     25  C   UNL     1     -33.250  19.673   0.747  0.00  0.00    +0.003 C 
BRANCH  25  26
ATOM     26  C   UNL     1     -32.285  18.646   1.074  0.00  0.00    +0.000 C 
ATOM     27  C   UNL     1     -31.036  18.636   0.583  0.00  0.00    +0.000 C 
BRANCH  27  28
ATOM     28  C   UNL     1     -30.041  17.620   0.854  0.00  0.00    +0.007 C 
ATOM     29  C   UNL     1     -28.734  17.855   1.025  0.00  0.00    +0.082 C 
BRANCH  29  31
ATOM     30  O   UNL     1     -27.613  15.784   0.518  0.00  0.00    -0.245 OA
ATOM     31  C   UNL     1     -27.815  16.725   1.265  0.00  0.00    +0.338 C 
BRANCH  31  32
ATOM     32  O   UNL     1     -27.218  16.899   2.468  0.00  0.00    -0.477 OA
ATOM     33  H   UNL     1     -27.148  17.758   2.837  0.00  0.00    +0.295 HD
ENDBRANCH  31  32
ENDBRANCH  29  31
ENDBRANCH  27  28
ENDBRANCH  25  26
ENDBRANCH  13  24
TORSDOF 7
ENDMDL
MODEL 4
REMARK VINA RESULT:      -6.5      1.255      1.373
REMARK  Name = 21585555
REMARK  7 active torsions:
REMARK  status: ('A' for Active; 'I' for Inactive)
REMARK    1  A    between atoms: C_6  and  O_20
REMARK    2  A    between atoms: C_8  and  O_22
REMARK    3  A    between atoms: C_13  and  C_24
REMARK    4  A    between atoms: C_25  and  C_26
REMARK    5  A    between atoms: C_27  and  C_28
REMARK    6  A    between atoms: C_29  and  C_31
REMARK    7  A    between atoms: C_31  and  O_32
REMARK                            x       y       z     vdW  Elec       q    Type
REMARK                         _______ _______ _______ _____ _____    ______ ____
ROOT
ATOM      1  O   UNL     1     -35.515  21.321   3.976  0.00  0.00    -0.474 OA
ATOM      2  O   UNL     1     -38.423  22.726   1.020  0.00  0.00    -0.449 OA
ATOM      3  O   UNL     1     -34.890  26.110   2.757  0.00  0.00    -0.289 OA
ATOM      4  O   UNL     1     -36.389  22.866  -0.074  0.00  0.00    -0.245 OA
ATOM      5  C   UNL     1     -36.910  23.247   3.496  0.00  0.00    +0.110 C 
ATOM      6  C   UNL     1     -36.812  24.796   3.496  0.00  0.00    +0.175 C 
ATOM      7  C   UNL     1     -35.964  22.581   4.534  0.00  0.00    +0.195 C 
ATOM      8  C   UNL     1     -37.613  25.508   2.372  0.00  0.00    +0.142 C 
ATOM      9  C   UNL     1     -36.537  22.473   2.272  0.00  0.00    +0.094 C 
ATOM     10  C   UNL     1     -39.121  25.197   2.360  0.00  0.00    +0.032 C 
ATOM     11  C   UNL     1     -35.336  25.223   3.482  0.00  0.00    +0.200 C 
ATOM     12  C   UNL     1     -34.734  23.355   4.911  0.00  0.00    +0.020 C 
ATOM     13  C   UNL     1     -35.780  21.432   2.614  0.00  0.00    +0.141 C 
ATOM     14  C   UNL     1     -39.794  25.452   0.999  0.00  0.00    +0.006 C 
ATOM     15  C   UNL     1     -34.412  24.555   4.426  0.00  0.00    +0.039 C 
ATOM     16  C   UNL     1     -39.231  24.687  -0.213  0.00  0.00    +0.044 C 
ATOM     17  C   UNL     1     -37.071  22.703   0.924  0.00  0.00    +0.340 C 
ATOM     18  C   UNL     1     -39.193  23.152  -0.119  0.00  0.00    +0.169 C 
ATOM     19  C   UNL     1     -40.585  22.549   0.029  0.00  0.00    +0.047 C 
ENDROOT
BRANCH   6  20
ATOM     20  O   UNL     1     -37.319  25.245   4.759  0.00  0.00    -0.377 OA
ATOM     21  H   UNL     1     -36.778  25.983   5.082  0.00  0.00    +0.211 HD
ENDBRANCH   6  20
BRANCH   8  22
ATOM     22  O   UNL     1     -37.486  26.929   2.544  0.00  0.00    -0.382 OA
ATOM     23  H   UNL     1     -37.160  27.120   3.437  0.00  0.00    +0.210 HD
ENDBRANCH   8  22
BRANCH  13  24
ATOM     24  C   UNL     1     -35.273  20.374   1.795  0.00  0.00    +0.037 C 
ATOM     25  C   UNL     1     -34.053  19.832   1.954  0.00  0.00    +0.003 C 
BRANCH  25  26
ATOM     26  C   UNL     1     -33.548  18.763   1.122  0.00  0.00    +0.000 C 
ATOM     27  C   UNL     1     -32.291  18.302   1.210  0.00  0.00    +0.000 C 
BRANCH  27  28
ATOM     28  C   UNL     1     -31.727  17.255   0.384  0.00  0.00    +0.007 C 
ATOM     29  C   UNL     1     -30.419  16.992   0.269  0.00  0.00    +0.082 C 
BRANCH  29  31
ATOM     30  O   UNL     1     -29.306  16.050  -1.648  0.00  0.00    -0.245 OA
ATOM     31  C   UNL     1     -29.968  15.915  -0.634  0.00  0.00    +0.338 C 
BRANCH  31  32
ATOM     32  O   UNL     1     -30.410  14.730  -0.151  0.00  0.00    -0.477 OA
ATOM     33  H   UNL     1     -30.496  13.993  -0.724  0.00  0.00    +0.295 HD
ENDBRANCH  31  32
ENDBRANCH  29  31
ENDBRANCH  27  28
ENDBRANCH  25  26
ENDBRANCH  13  24
TORSDOF 7
ENDMDL
MODEL 5
REMARK VINA RESULT:      -6.5      1.902      4.379
REMARK  Name = 21585555
REMARK  7 active torsions:
REMARK  status: ('A' for Active; 'I' for Inactive)
REMARK    1  A    between atoms: C_6  and  O_20
REMARK    2  A    between atoms: C_8  and  O_22
REMARK    3  A    between atoms: C_13  and  C_24
REMARK    4  A    between atoms: C_25  and  C_26
REMARK    5  A    between atoms: C_27  and  C_28
REMARK    6  A    between atoms: C_29  and  C_31
REMARK    7  A    between atoms: C_31  and  O_32
REMARK                            x       y       z     vdW  Elec       q    Type
REMARK                         _______ _______ _______ _____ _____    ______ ____
ROOT
ATOM      1  O   UNL     1     -35.710  22.202  -0.565  0.00  0.00    -0.474 OA
ATOM      2  O   UNL     1     -34.818  23.968   3.340  0.00  0.00    -0.449 OA
ATOM      3  O   UNL     1     -39.637  22.230   2.500  0.00  0.00    -0.289 OA
ATOM      4  O   UNL     1     -35.298  21.755   3.815  0.00  0.00    -0.245 OA
ATOM      5  C   UNL     1     -36.691  23.690   1.081  0.00  0.00    +0.110 C 
ATOM      6  C   UNL     1     -38.062  23.945   1.763  0.00  0.00    +0.175 C 
ATOM      7  C   UNL     1     -36.829  23.099  -0.350  0.00  0.00    +0.195 C 
ATOM      8  C   UNL     1     -37.987  24.384   3.251  0.00  0.00    +0.142 C 
ATOM      9  C   UNL     1     -35.730  22.710   1.675  0.00  0.00    +0.094 C 
ATOM     10  C   UNL     1     -37.163  25.659   3.506  0.00  0.00    +0.032 C 
ATOM     11  C   UNL     1     -38.964  22.713   1.591  0.00  0.00    +0.200 C 
ATOM     12  C   UNL     1     -38.077  22.316  -0.634  0.00  0.00    +0.020 C 
ATOM     13  C   UNL     1     -35.230  21.935   0.714  0.00  0.00    +0.141 C 
ATOM     14  C   UNL     1     -36.658  25.790   4.954  0.00  0.00    +0.006 C 
ATOM     15  C   UNL     1     -39.059  22.106   0.246  0.00  0.00    +0.039 C 
ATOM     16  C   UNL     1     -35.779  24.647   5.494  0.00  0.00    +0.044 C 
ATOM     17  C   UNL     1     -35.259  22.716   3.065  0.00  0.00    +0.340 C 
ATOM     18  C   UNL     1     -34.502  24.309   4.702  0.00  0.00    +0.169 C 
ATOM     19  C   UNL     1     -33.526  25.479   4.658  0.00  0.00    +0.047 C 
ENDROOT
BRANCH   6  20
ATOM     20  O   UNL     1     -38.707  24.989   1.022  0.00  0.00    -0.377 OA
ATOM     21  H   UNL     1     -39.023  24.636   0.175  0.00  0.00    +0.211 HD
ENDBRANCH   6  20
BRANCH   8  22
ATOM     22  O   UNL     1     -39.319  24.651   3.721  0.00  0.00    -0.382 OA
ATOM     23  H   UNL     1     -39.715  23.831   4.053  0.00  0.00    +0.210 HD
ENDBRANCH   8  22
BRANCH  13  24
ATOM     24  C   UNL     1     -34.216  20.929   0.798  0.00  0.00    +0.037 C 
ATOM     25  C   UNL     1     -34.449  19.674   1.216  0.00  0.00    +0.003 C 
BRANCH  25  26
ATOM     26  C   UNL     1     -33.418  18.663   1.299  0.00  0.00    +0.000 C 
ATOM     27  C   UNL     1     -32.158  18.871   0.889  0.00  0.00    +0.000 C 
BRANCH  27  28
ATOM     28  C   UNL     1     -31.096  17.887   0.923  0.00  0.00    +0.007 C 
ATOM     29  C   UNL     1     -30.759  17.089  -0.099  0.00  0.00    +0.082 C 
BRANCH  29  31
ATOM     30  O   UNL     1     -28.480  16.312  -0.038  0.00  0.00    -0.245 OA
ATOM     31  C   UNL     1     -29.676  16.102   0.074  0.00  0.00    +0.338 C 
BRANCH  31  32
ATOM     32  O   UNL     1     -30.225  14.903   0.380  0.00  0.00    -0.477 OA
ATOM     33  H   UNL     1     -29.694  14.224   0.747  0.00  0.00    +0.295 HD
ENDBRANCH  31  32
ENDBRANCH  29  31
ENDBRANCH  27  28
ENDBRANCH  25  26
ENDBRANCH  13  24
TORSDOF 7
ENDMDL
MODEL 6
REMARK VINA RESULT:      -6.4      2.772      8.065
REMARK  Name = 21585555
REMARK  7 active torsions:
REMARK  status: ('A' for Active; 'I' for Inactive)
REMARK    1  A    between atoms: C_6  and  O_20
REMARK    2  A    between atoms: C_8  and  O_22
REMARK    3  A    between atoms: C_13  and  C_24
REMARK    4  A    between atoms: C_25  and  C_26
REMARK    5  A    between atoms: C_27  and  C_28
REMARK    6  A    between atoms: C_29  and  C_31
REMARK    7  A    between atoms: C_31  and  O_32
REMARK                            x       y       z     vdW  Elec       q    Type
REMARK                         _______ _______ _______ _____ _____    ______ ____
ROOT
ATOM      1  O   UNL     1     -37.467  22.936   3.399  0.00  0.00    -0.474 OA
ATOM      2  O   UNL     1     -34.504  20.392   1.421  0.00  0.00    -0.449 OA
ATOM      3  O   UNL     1     -38.173  22.593  -1.520  0.00  0.00    -0.289 OA
ATOM      4  O   UNL     1     -34.113  22.501   0.551  0.00  0.00    -0.245 OA
ATOM      5  C   UNL     1     -37.318  21.231   1.680  0.00  0.00    +0.110 C 
ATOM      6  C   UNL     1     -37.874  20.946   0.259  0.00  0.00    +0.175 C 
ATOM      7  C   UNL     1     -38.280  22.095   2.543  0.00  0.00    +0.195 C 
ATOM      8  C   UNL     1     -36.889  20.225  -0.702  0.00  0.00    +0.142 C 
ATOM      9  C   UNL     1     -36.052  22.008   1.847  0.00  0.00    +0.094 C 
ATOM     10  C   UNL     1     -36.367  18.869  -0.191  0.00  0.00    +0.032 C 
ATOM     11  C   UNL     1     -38.403  22.248  -0.362  0.00  0.00    +0.200 C 
ATOM     12  C   UNL     1     -39.214  23.003   1.798  0.00  0.00    +0.020 C 
ATOM     13  C   UNL     1     -36.207  22.917   2.808  0.00  0.00    +0.141 C 
ATOM     14  C   UNL     1     -35.048  18.427  -0.850  0.00  0.00    +0.006 C 
ATOM     15  C   UNL     1     -39.274  23.108   0.469  0.00  0.00    +0.039 C 
ATOM     16  C   UNL     1     -33.846  19.380  -0.716  0.00  0.00    +0.044 C 
ATOM     17  C   UNL     1     -34.773  21.702   1.194  0.00  0.00    +0.340 C 
ATOM     18  C   UNL     1     -33.417  19.774   0.709  0.00  0.00    +0.169 C 
ATOM     19  C   UNL     1     -32.970  18.569   1.529  0.00  0.00    +0.047 C 
ENDROOT
BRANCH   6  20
ATOM     20  O   UNL     1     -39.028  20.112   0.423  0.00  0.00    -0.377 OA
ATOM     21  H   UNL     1     -38.748  19.218   0.678  0.00  0.00    +0.211 HD
ENDBRANCH   6  20
BRANCH   8  22
ATOM     22  O   UNL     1     -37.564  19.966  -1.945  0.00  0.00    -0.382 OA
ATOM     23  H   UNL     1     -38.503  19.793  -1.774  0.00  0.00    +0.210 HD
ENDBRANCH   8  22
BRANCH  13  24
ATOM     24  C   UNL     1     -35.245  23.814   3.370  0.00  0.00    +0.037 C 
ATOM     25  C   UNL     1     -35.397  24.412   4.563  0.00  0.00    +0.003 C 
BRANCH  25  26
ATOM     26  C   UNL     1     -34.419  25.318   5.125  0.00  0.00    +0.000 C 
ATOM     27  C   UNL     1     -33.967  26.400   4.473  0.00  0.00    +0.000 C 
BRANCH  27  28
ATOM     28  C   UNL     1     -32.970  27.321   4.976  0.00  0.00    +0.007 C 
ATOM     29  C   UNL     1     -32.575  27.398   6.253  0.00  0.00    +0.082 C 
BRANCH  29  31
ATOM     30  O   UNL     1     -31.783  29.579   6.899  0.00  0.00    -0.245 OA
ATOM     31  C   UNL     1     -31.570  28.406   6.646  0.00  0.00    +0.338 C 
BRANCH  31  32
ATOM     32  O   UNL     1     -30.353  27.814   6.684  0.00  0.00    -0.477 OA
ATOM     33  H   UNL     1     -29.718  28.089   7.316  0.00  0.00    +0.295 HD
ENDBRANCH  31  32
ENDBRANCH  29  31
ENDBRANCH  27  28
ENDBRANCH  25  26
ENDBRANCH  13  24
TORSDOF 7
ENDMDL
MODEL 7
REMARK VINA RESULT:      -6.1      4.098      9.759
REMARK  Name = 21585555
REMARK  7 active torsions:
REMARK  status: ('A' for Active; 'I' for Inactive)
REMARK    1  A    between atoms: C_6  and  O_20
REMARK    2  A    between atoms: C_8  and  O_22
REMARK    3  A    between atoms: C_13  and  C_24
REMARK    4  A    between atoms: C_25  and  C_26
REMARK    5  A    between atoms: C_27  and  C_28
REMARK    6  A    between atoms: C_29  and  C_31
REMARK    7  A    between atoms: C_31  and  O_32
REMARK                            x       y       z     vdW  Elec       q    Type
REMARK                         _______ _______ _______ _____ _____    ______ ____
ROOT
ATOM      1  O   UNL     1     -34.822  27.621   1.418  0.00  0.00    -0.474 OA
ATOM      2  O   UNL     1     -38.329  25.044   0.955  0.00  0.00    -0.449 OA
ATOM      3  O   UNL     1     -35.996  25.168   5.591  0.00  0.00    -0.289 OA
ATOM      4  O   UNL     1     -38.997  26.640   2.492  0.00  0.00    -0.245 OA
ATOM      5  C   UNL     1     -35.613  25.414   2.039  0.00  0.00    +0.110 C 
ATOM      6  C   UNL     1     -35.628  24.478   3.277  0.00  0.00    +0.175 C 
ATOM      7  C   UNL     1     -34.393  26.376   2.023  0.00  0.00    +0.195 C 
ATOM      8  C   UNL     1     -36.904  23.608   3.431  0.00  0.00    +0.142 C 
ATOM      9  C   UNL     1     -36.721  26.397   1.831  0.00  0.00    +0.094 C 
ATOM     10  C   UNL     1     -37.211  22.695   2.229  0.00  0.00    +0.032 C 
ATOM     11  C   UNL     1     -35.355  25.296   4.549  0.00  0.00    +0.200 C 
ATOM     12  C   UNL     1     -33.794  26.721   3.355  0.00  0.00    +0.020 C 
ATOM     13  C   UNL     1     -36.211  27.580   1.488  0.00  0.00    +0.141 C 
ATOM     14  C   UNL     1     -38.684  22.256   2.147  0.00  0.00    +0.006 C 
ATOM     15  C   UNL     1     -34.231  26.258   4.528  0.00  0.00    +0.039 C 
ATOM     16  C   UNL     1     -39.742  23.372   2.066  0.00  0.00    +0.044 C 
ATOM     17  C   UNL     1     -38.153  26.075   1.817  0.00  0.00    +0.340 C 
ATOM     18  C   UNL     1     -39.608  24.385   0.914  0.00  0.00    +0.169 C 
ATOM     19  C   UNL     1     -39.729  23.722  -0.453  0.00  0.00    +0.047 C 
ENDROOT
BRANCH   6  20
ATOM     20  O   UNL     1     -34.502  23.600   3.148  0.00  0.00    -0.377 OA
ATOM     21  H   UNL     1     -33.762  24.081   2.743  0.00  0.00    +0.211 HD
ENDBRANCH   6  20
BRANCH   8  22
ATOM     22  O   UNL     1     -36.742  22.748   4.572  0.00  0.00    -0.382 OA
ATOM     23  H   UNL     1     -36.071  23.120   5.165  0.00  0.00    +0.210 HD
ENDBRANCH   8  22
BRANCH  13  24
ATOM     24  C   UNL     1     -36.889  28.779   1.104  0.00  0.00    +0.037 C 
ATOM     25  C   UNL     1     -36.348  30.005   1.216  0.00  0.00    +0.003 C 
BRANCH  25  26
ATOM     26  C   UNL     1     -37.040  31.213   0.826  0.00  0.00    +0.000 C 
ATOM     27  C   UNL     1     -37.277  32.225   1.674  0.00  0.00    +0.000 C 
BRANCH  27  28
ATOM     28  C   UNL     1     -37.987  33.442   1.344  0.00  0.00    +0.007 C 
ATOM     29  C   UNL     1     -38.653  34.203   2.222  0.00  0.00    +0.082 C 
BRANCH  29  31
ATOM     30  O   UNL     1     -39.261  35.928   0.656  0.00  0.00    -0.245 OA
ATOM     31  C   UNL     1     -39.365  35.407   1.753  0.00  0.00    +0.338 C 
BRANCH  31  32
ATOM     32  O   UNL     1     -40.169  35.851   2.747  0.00  0.00    -0.477 OA
ATOM     33  H   UNL     1     -39.799  36.282   3.492  0.00  0.00    +0.295 HD
ENDBRANCH  31  32
ENDBRANCH  29  31
ENDBRANCH  27  28
ENDBRANCH  25  26
ENDBRANCH  13  24
TORSDOF 7
ENDMDL
MODEL 8
REMARK VINA RESULT:      -5.9      2.779      3.415
REMARK  Name = 21585555
REMARK  7 active torsions:
REMARK  status: ('A' for Active; 'I' for Inactive)
REMARK    1  A    between atoms: C_6  and  O_20
REMARK    2  A    between atoms: C_8  and  O_22
REMARK    3  A    between atoms: C_13  and  C_24
REMARK    4  A    between atoms: C_25  and  C_26
REMARK    5  A    between atoms: C_27  and  C_28
REMARK    6  A    between atoms: C_29  and  C_31
REMARK    7  A    between atoms: C_31  and  O_32
REMARK                            x       y       z     vdW  Elec       q    Type
REMARK                         _______ _______ _______ _____ _____    ______ ____
ROOT
ATOM      1  O   UNL     1     -36.695  23.802   4.248  0.00  0.00    -0.474 OA
ATOM      2  O   UNL     1     -35.438  25.034   0.240  0.00  0.00    -0.449 OA
ATOM      3  O   UNL     1     -32.564  26.585   4.276  0.00  0.00    -0.289 OA
ATOM      4  O   UNL     1     -33.725  23.663   0.976  0.00  0.00    -0.245 OA
ATOM      5  C   UNL     1     -35.830  25.741   3.075  0.00  0.00    +0.110 C 
ATOM      6  C   UNL     1     -34.776  26.862   3.278  0.00  0.00    +0.175 C 
ATOM      7  C   UNL     1     -36.420  25.216   4.413  0.00  0.00    +0.195 C 
ATOM      8  C   UNL     1     -34.037  27.314   1.990  0.00  0.00    +0.142 C 
ATOM      9  C   UNL     1     -35.433  24.446   2.441  0.00  0.00    +0.094 C 
ATOM     10  C   UNL     1     -34.956  27.821   0.863  0.00  0.00    +0.032 C 
ATOM     11  C   UNL     1     -33.782  26.447   4.374  0.00  0.00    +0.200 C 
ATOM     12  C   UNL     1     -35.549  25.352   5.628  0.00  0.00    +0.020 C 
ATOM     13  C   UNL     1     -35.948  23.432   3.134  0.00  0.00    +0.141 C 
ATOM     14  C   UNL     1     -34.312  27.763  -0.533  0.00  0.00    +0.006 C 
ATOM     15  C   UNL     1     -34.328  25.891   5.631  0.00  0.00    +0.039 C 
ATOM     16  C   UNL     1     -33.824  26.386  -1.021  0.00  0.00    +0.044 C 
ATOM     17  C   UNL     1     -34.746  24.306   1.151  0.00  0.00    +0.340 C 
ATOM     18  C   UNL     1     -34.860  25.248  -1.060  0.00  0.00    +0.169 C 
ATOM     19  C   UNL     1     -36.007  25.546  -2.019  0.00  0.00    +0.047 C 
ENDROOT
BRANCH   6  20
ATOM     20  O   UNL     1     -35.472  27.995   3.814  0.00  0.00    -0.377 OA
ATOM     21  H   UNL     1     -36.427  27.819   3.811  0.00  0.00    +0.211 HD
ENDBRANCH   6  20
BRANCH   8  22
ATOM     22  O   UNL     1     -33.153  28.398   2.321  0.00  0.00    -0.382 OA
ATOM     23  H   UNL     1     -32.255  28.055   2.453  0.00  0.00    +0.210 HD
ENDBRANCH   8  22
BRANCH  13  24
ATOM     24  C   UNL     1     -35.910  22.030   2.850  0.00  0.00    +0.037 C 
ATOM     25  C   UNL     1     -36.564  21.464   1.822  0.00  0.00    +0.003 C 
BRANCH  25  26
ATOM     26  C   UNL     1     -36.521  20.045   1.542  0.00  0.00    +0.000 C 
ATOM     27  C   UNL     1     -36.420  19.550   0.299  0.00  0.00    +0.000 C 
BRANCH  27  28
ATOM     28  C   UNL     1     -36.400  18.142  -0.039  0.00  0.00    +0.007 C 
ATOM     29  C   UNL     1     -37.484  17.359  -0.118  0.00  0.00    +0.082 C 
BRANCH  29  31
ATOM     30  O   UNL     1     -37.908  15.317  -1.322  0.00  0.00    -0.245 OA
ATOM     31  C   UNL     1     -37.328  15.928  -0.441  0.00  0.00    +0.338 C 
BRANCH  31  32
ATOM     32  O   UNL     1     -36.423  15.387   0.408  0.00  0.00    -0.477 OA
ATOM     33  H   UNL     1     -36.686  14.719   1.010  0.00  0.00    +0.295 HD
ENDBRANCH  31  32
ENDBRANCH  29  31
ENDBRANCH  27  28
ENDBRANCH  25  26
ENDBRANCH  13  24
TORSDOF 7
ENDMDL
MODEL 9
REMARK VINA RESULT:      -5.9      3.397      5.016
REMARK  Name = 21585555
REMARK  7 active torsions:
REMARK  status: ('A' for Active; 'I' for Inactive)
REMARK    1  A    between atoms: C_6  and  O_20
REMARK    2  A    between atoms: C_8  and  O_22
REMARK    3  A    between atoms: C_13  and  C_24
REMARK    4  A    between atoms: C_25  and  C_26
REMARK    5  A    between atoms: C_27  and  C_28
REMARK    6  A    between atoms: C_29  and  C_31
REMARK    7  A    between atoms: C_31  and  O_32
REMARK                            x       y       z     vdW  Elec       q    Type
REMARK                         _______ _______ _______ _____ _____    ______ ____
ROOT
ATOM      1  O   UNL     1     -34.933  21.622  -0.481  0.00  0.00    -0.474 OA
ATOM      2  O   UNL     1     -35.379  22.411   3.801  0.00  0.00    -0.449 OA
ATOM      3  O   UNL     1     -36.492  26.251   0.491  0.00  0.00    -0.289 OA
ATOM      4  O   UNL     1     -37.532  22.569   2.968  0.00  0.00    -0.245 OA
ATOM      5  C   UNL     1     -34.491  23.357   1.155  0.00  0.00    +0.110 C 
ATOM      6  C   UNL     1     -34.627  24.897   1.298  0.00  0.00    +0.175 C 
ATOM      7  C   UNL     1     -34.277  22.904  -0.316  0.00  0.00    +0.195 C 
ATOM      8  C   UNL     1     -35.001  25.396   2.720  0.00  0.00    +0.142 C 
ATOM      9  C   UNL     1     -35.628  22.466   1.538  0.00  0.00    +0.094 C 
ATOM     10  C   UNL     1     -34.024  24.970   3.831  0.00  0.00    +0.032 C 
ATOM     11  C   UNL     1     -35.609  25.431   0.245  0.00  0.00    +0.200 C 
ATOM     12  C   UNL     1     -34.818  23.811  -1.382  0.00  0.00    +0.020 C 
ATOM     13  C   UNL     1     -35.807  21.538   0.599  0.00  0.00    +0.141 C 
ATOM     14  C   UNL     1     -34.640  24.998   5.241  0.00  0.00    +0.006 C 
ATOM     15  C   UNL     1     -35.453  24.962  -1.150  0.00  0.00    +0.039 C 
ATOM     16  C   UNL     1     -35.892  24.132   5.474  0.00  0.00    +0.044 C 
ATOM     17  C   UNL     1     -36.323  22.481   2.831  0.00  0.00    +0.340 C 
ATOM     18  C   UNL     1     -35.772  22.628   5.169  0.00  0.00    +0.169 C 
ATOM     19  C   UNL     1     -34.733  21.942   6.049  0.00  0.00    +0.047 C 
ENDROOT
BRANCH   6  20
ATOM     20  O   UNL     1     -33.357  25.461   0.947  0.00  0.00    -0.377 OA
ATOM     21  H   UNL     1     -32.664  25.072   1.505  0.00  0.00    +0.211 HD
ENDBRANCH   6  20
BRANCH   8  22
ATOM     22  O   UNL     1     -35.019  26.833   2.715  0.00  0.00    -0.382 OA
ATOM     23  H   UNL     1     -34.403  27.167   3.385  0.00  0.00    +0.210 HD
ENDBRANCH   8  22
BRANCH  13  24
ATOM     24  C   UNL     1     -36.708  20.428   0.583  0.00  0.00    +0.037 C 
ATOM     25  C   UNL     1     -36.706  19.484  -0.373  0.00  0.00    +0.003 C 
BRANCH  25  26
ATOM     26  C   UNL     1     -37.622  18.364  -0.382  0.00  0.00    +0.000 C 
ATOM     27  C   UNL     1     -37.246  17.112  -0.081  0.00  0.00    +0.000 C 
BRANCH  27  28
ATOM     28  C   UNL     1     -38.113  15.953  -0.101  0.00  0.00    +0.007 C 
ATOM     29  C   UNL     1     -39.252  15.861  -0.800  0.00  0.00    +0.082 C 
BRANCH  29  31
ATOM     30  O   UNL     1     -41.246  14.567  -0.415  0.00  0.00    -0.245 OA
ATOM     31  C   UNL     1     -40.066  14.633  -0.711  0.00  0.00    +0.338 C 
BRANCH  31  32
ATOM     32  O   UNL     1     -39.283  13.571  -1.016  0.00  0.00    -0.477 OA
ATOM     33  H   UNL     1     -39.673  12.739  -1.200  0.00  0.00    +0.295 HD
ENDBRANCH  31  32
ENDBRANCH  29  31
ENDBRANCH  27  28
ENDBRANCH  25  26
ENDBRANCH  13  24
TORSDOF 7
ENDMDL
