MODEL 1
REMARK VINA RESULT:      -6.1      0.000      0.000
REMARK  Name = 5281656
REMARK  4 active torsions:
REMARK  status: ('A' for Active; 'I' for Inactive)
REMARK    1  A    between atoms: C_8  and  O_16
REMARK    2  A    between atoms: C_12  and  O_18
REMARK    3  A    between atoms: C_13  and  O_20
REMARK    4  A    between atoms: C_15  and  O_22
REMARK                            x       y       z     vdW  Elec       q    Type
REMARK                         _______ _______ _______ _____ _____    ______ ____
ROOT
ATOM      1  O   UNL     1     -34.990  22.409   3.390  0.00  0.00    -0.453 OA
ATOM      2  O   UNL     1     -38.593  24.191   2.622  0.00  0.00    -0.286 OA
ATOM      3  C   UNL     1     -36.485  24.317   3.693  0.00  0.00    +0.107 A 
ATOM      4  C   UNL     1     -37.182  22.347   2.315  0.00  0.00    +0.077 A 
ATOM      5  C   UNL     1     -35.281  23.647   3.909  0.00  0.00    +0.154 A 
ATOM      6  C   UNL     1     -35.937  21.791   2.612  0.00  0.00    +0.152 A 
ATOM      7  C   UNL     1     -37.512  23.672   2.861  0.00  0.00    +0.204 A 
ATOM      8  C   UNL     1     -36.707  25.576   4.256  0.00  0.00    +0.143 C 
ATOM      9  C   UNL     1     -38.095  21.656   1.515  0.00  0.00    +0.046 C 
ATOM     10  C   UNL     1     -35.603  20.535   2.103  0.00  0.00    +0.077 C 
ATOM     11  C   UNL     1     -34.290  24.241   4.695  0.00  0.00    +0.074 C 
ATOM     12  C   UNL     1     -37.756  20.400   1.010  0.00  0.00    +0.168 C 
ATOM     13  C   UNL     1     -36.513  19.840   1.303  0.00  0.00    +0.171 C 
ATOM     14  C   UNL     1     -35.714  26.164   5.040  0.00  0.00    +0.073 C 
ATOM     15  C   UNL     1     -34.508  25.498   5.259  0.00  0.00    +0.140 C 
ENDROOT
BRANCH   8  16
ATOM     16  O   UNL     1     -37.866  26.267   4.075  0.00  0.00    -0.505 OA
ATOM     17  H   UNL     1     -38.455  26.391   4.794  0.00  0.00    +0.292 HD
ENDBRANCH   8  16
BRANCH  12  18
ATOM     18  O   UNL     1     -38.649  19.730   0.229  0.00  0.00    -0.503 OA
ATOM     19  H   UNL     1     -38.391  19.417  -0.615  0.00  0.00    +0.292 HD
ENDBRANCH  12  18
BRANCH  13  20
ATOM     20  O   UNL     1     -36.171  18.616   0.813  0.00  0.00    -0.503 OA
ATOM     21  H   UNL     1     -36.201  18.455  -0.109  0.00  0.00    +0.292 HD
ENDBRANCH  13  20
BRANCH  15  22
ATOM     22  O   UNL     1     -33.542  26.075   6.025  0.00  0.00    -0.505 OA
ATOM     23  H   UNL     1     -32.881  26.605   5.625  0.00  0.00    +0.292 HD
ENDBRANCH  15  22
TORSDOF 4
ENDMDL
MODEL 2
REMARK VINA RESULT:      -6.1      2.821      4.374
REMARK  Name = 5281656
REMARK  4 active torsions:
REMARK  status: ('A' for Active; 'I' for Inactive)
REMARK    1  A    between atoms: C_8  and  O_16
REMARK    2  A    between atoms: C_12  and  O_18
REMARK    3  A    between atoms: C_13  and  O_20
REMARK    4  A    between atoms: C_15  and  O_22
REMARK                            x       y       z     vdW  Elec       q    Type
REMARK                         _______ _______ _______ _____ _____    ______ ____
ROOT
ATOM      1  O   UNL     1     -34.642  24.793   2.047  0.00  0.00    -0.453 OA
ATOM      2  O   UNL     1     -33.758  25.676   5.944  0.00  0.00    -0.286 OA
ATOM      3  C   UNL     1     -33.809  26.398   3.689  0.00  0.00    +0.107 A 
ATOM      4  C   UNL     1     -34.559  24.116   4.392  0.00  0.00    +0.077 A 
ATOM      5  C   UNL     1     -34.135  26.023   2.386  0.00  0.00    +0.154 A 
ATOM      6  C   UNL     1     -34.841  23.874   3.047  0.00  0.00    +0.152 A 
ATOM      7  C   UNL     1     -34.017  25.427   4.775  0.00  0.00    +0.204 A 
ATOM      8  C   UNL     1     -33.296  27.670   3.956  0.00  0.00    +0.143 C 
ATOM      9  C   UNL     1     -34.790  23.129   5.354  0.00  0.00    +0.046 C 
ATOM     10  C   UNL     1     -35.359  22.635   2.661  0.00  0.00    +0.077 C 
ATOM     11  C   UNL     1     -33.947  26.929   1.339  0.00  0.00    +0.074 C 
ATOM     12  C   UNL     1     -35.306  21.892   4.962  0.00  0.00    +0.168 C 
ATOM     13  C   UNL     1     -35.589  21.646   3.619  0.00  0.00    +0.171 C 
ATOM     14  C   UNL     1     -33.111  28.570   2.906  0.00  0.00    +0.073 C 
ATOM     15  C   UNL     1     -33.435  28.201   1.600  0.00  0.00    +0.140 C 
ENDROOT
BRANCH   8  16
ATOM     16  O   UNL     1     -32.962  28.079   5.211  0.00  0.00    -0.505 OA
ATOM     17  H   UNL     1     -32.280  27.641   5.680  0.00  0.00    +0.292 HD
ENDBRANCH   8  16
BRANCH  12  18
ATOM     18  O   UNL     1     -35.530  20.933   5.903  0.00  0.00    -0.503 OA
ATOM     19  H   UNL     1     -36.314  20.952   6.414  0.00  0.00    +0.292 HD
ENDBRANCH  12  18
BRANCH  13  20
ATOM     20  O   UNL     1     -36.096  20.444   3.227  0.00  0.00    -0.503 OA
ATOM     21  H   UNL     1     -36.868  20.105   3.634  0.00  0.00    +0.292 HD
ENDBRANCH  13  20
BRANCH  15  22
ATOM     22  O   UNL     1     -33.252  29.082   0.579  0.00  0.00    -0.505 OA
ATOM     23  H   UNL     1     -32.979  29.959   0.760  0.00  0.00    +0.292 HD
ENDBRANCH  15  22
TORSDOF 4
ENDMDL
MODEL 3
REMARK VINA RESULT:      -6.0      2.656      3.908
REMARK  Name = 5281656
REMARK  4 active torsions:
REMARK  status: ('A' for Active; 'I' for Inactive)
REMARK    1  A    between atoms: C_8  and  O_16
REMARK    2  A    between atoms: C_12  and  O_18
REMARK    3  A    between atoms: C_13  and  O_20
REMARK    4  A    between atoms: C_15  and  O_22
REMARK                            x       y       z     vdW  Elec       q    Type
REMARK                         _______ _______ _______ _____ _____    ______ ____
ROOT
ATOM      1  O   UNL     1     -33.945  25.124   5.443  0.00  0.00    -0.453 OA
ATOM      2  O   UNL     1     -34.714  25.082   1.424  0.00  0.00    -0.286 OA
ATOM      3  C   UNL     1     -33.896  26.283   3.294  0.00  0.00    +0.107 A 
ATOM      4  C   UNL     1     -34.775  23.946   3.471  0.00  0.00    +0.077 A 
ATOM      5  C   UNL     1     -33.663  26.221   4.668  0.00  0.00    +0.154 A 
ATOM      6  C   UNL     1     -34.490  24.020   4.835  0.00  0.00    +0.152 A 
ATOM      7  C   UNL     1     -34.479  25.110   2.624  0.00  0.00    +0.204 A 
ATOM      8  C   UNL     1     -33.582  27.436   2.571  0.00  0.00    +0.143 C 
ATOM      9  C   UNL     1     -35.330  22.786   2.924  0.00  0.00    +0.046 C 
ATOM     10  C   UNL     1     -34.762  22.925   5.658  0.00  0.00    +0.077 C 
ATOM     11  C   UNL     1     -33.110  27.323   5.325  0.00  0.00    +0.074 C 
ATOM     12  C   UNL     1     -35.601  21.696   3.752  0.00  0.00    +0.168 C 
ATOM     13  C   UNL     1     -35.318  21.765   5.116  0.00  0.00    +0.171 C 
ATOM     14  C   UNL     1     -33.030  28.533   3.233  0.00  0.00    +0.073 C 
ATOM     15  C   UNL     1     -32.794  28.477   4.607  0.00  0.00    +0.140 C 
ENDROOT
BRANCH   8  16
ATOM     16  O   UNL     1     -33.794  27.544   1.230  0.00  0.00    -0.505 OA
ATOM     17  H   UNL     1     -34.637  27.347   0.872  0.00  0.00    +0.292 HD
ENDBRANCH   8  16
BRANCH  12  18
ATOM     18  O   UNL     1     -36.141  20.566   3.215  0.00  0.00    -0.503 OA
ATOM     19  H   UNL     1     -35.776  19.729   3.419  0.00  0.00    +0.292 HD
ENDBRANCH  12  18
BRANCH  13  20
ATOM     20  O   UNL     1     -35.576  20.705   5.932  0.00  0.00    -0.503 OA
ATOM     21  H   UNL     1     -35.335  20.740   6.837  0.00  0.00    +0.292 HD
ENDBRANCH  13  20
BRANCH  15  22
ATOM     22  O   UNL     1     -32.255  29.549   5.250  0.00  0.00    -0.505 OA
ATOM     23  H   UNL     1     -31.721  29.421   6.008  0.00  0.00    +0.292 HD
ENDBRANCH  15  22
TORSDOF 4
ENDMDL
MODEL 4
REMARK VINA RESULT:      -5.8      3.218      4.453
REMARK  Name = 5281656
REMARK  4 active torsions:
REMARK  status: ('A' for Active; 'I' for Inactive)
REMARK    1  A    between atoms: C_8  and  O_16
REMARK    2  A    between atoms: C_12  and  O_18
REMARK    3  A    between atoms: C_13  and  O_20
REMARK    4  A    between atoms: C_15  and  O_22
REMARK                            x       y       z     vdW  Elec       q    Type
REMARK                         _______ _______ _______ _____ _____    ______ ____
ROOT
ATOM      1  O   UNL     1     -34.977  24.617   1.559  0.00  0.00    -0.453 OA
ATOM      2  O   UNL     1     -35.463  26.837   4.963  0.00  0.00    -0.286 OA
ATOM      3  C   UNL     1     -35.040  26.810   2.633  0.00  0.00    +0.107 A 
ATOM      4  C   UNL     1     -35.407  24.720   3.961  0.00  0.00    +0.077 A 
ATOM      5  C   UNL     1     -34.887  25.986   1.518  0.00  0.00    +0.154 A 
ATOM      6  C   UNL     1     -35.233  24.018   2.768  0.00  0.00    +0.152 A 
ATOM      7  C   UNL     1     -35.315  26.187   3.937  0.00  0.00    +0.204 A 
ATOM      8  C   UNL     1     -34.934  28.197   2.511  0.00  0.00    +0.143 C 
ATOM      9  C   UNL     1     -35.665  24.040   5.154  0.00  0.00    +0.046 C 
ATOM     10  C   UNL     1     -35.317  22.624   2.768  0.00  0.00    +0.077 C 
ATOM     11  C   UNL     1     -34.626  26.556   0.269  0.00  0.00    +0.074 C 
ATOM     12  C   UNL     1     -35.747  22.646   5.148  0.00  0.00    +0.168 C 
ATOM     13  C   UNL     1     -35.573  21.940   3.957  0.00  0.00    +0.171 C 
ATOM     14  C   UNL     1     -34.673  28.760   1.262  0.00  0.00    +0.073 C 
ATOM     15  C   UNL     1     -34.519  27.941   0.142  0.00  0.00    +0.140 C 
ENDROOT
BRANCH   8  16
ATOM     16  O   UNL     1     -35.073  29.041   3.571  0.00  0.00    -0.505 OA
ATOM     17  H   UNL     1     -34.384  29.638   3.789  0.00  0.00    +0.292 HD
ENDBRANCH   8  16
BRANCH  12  18
ATOM     18  O   UNL     1     -35.999  21.986   6.312  0.00  0.00    -0.503 OA
ATOM     19  H   UNL     1     -36.383  22.441   7.035  0.00  0.00    +0.292 HD
ENDBRANCH  12  18
BRANCH  13  20
ATOM     20  O   UNL     1     -35.654  20.580   3.940  0.00  0.00    -0.503 OA
ATOM     21  H   UNL     1     -35.963  20.138   3.174  0.00  0.00    +0.292 HD
ENDBRANCH  13  20
BRANCH  15  22
ATOM     22  O   UNL     1     -34.265  28.494  -1.075  0.00  0.00    -0.505 OA
ATOM     23  H   UNL     1     -33.524  29.056  -1.189  0.00  0.00    +0.292 HD
ENDBRANCH  15  22
TORSDOF 4
ENDMDL
MODEL 5
REMARK VINA RESULT:      -5.8      2.901      4.958
REMARK  Name = 5281656
REMARK  4 active torsions:
REMARK  status: ('A' for Active; 'I' for Inactive)
REMARK    1  A    between atoms: C_8  and  O_16
REMARK    2  A    between atoms: C_12  and  O_18
REMARK    3  A    between atoms: C_13  and  O_20
REMARK    4  A    between atoms: C_15  and  O_22
REMARK                            x       y       z     vdW  Elec       q    Type
REMARK                         _______ _______ _______ _____ _____    ______ ____
ROOT
ATOM      1  O   UNL     1     -33.782  25.869   6.186  0.00  0.00    -0.453 OA
ATOM      2  O   UNL     1     -33.378  27.087   2.301  0.00  0.00    -0.286 OA
ATOM      3  C   UNL     1     -32.904  27.491   4.585  0.00  0.00    +0.107 A 
ATOM      4  C   UNL     1     -34.234  25.517   3.813  0.00  0.00    +0.077 A 
ATOM      5  C   UNL     1     -33.084  27.012   5.883  0.00  0.00    +0.154 A 
ATOM      6  C   UNL     1     -34.337  25.153   5.155  0.00  0.00    +0.152 A 
ATOM      7  C   UNL     1     -33.490  26.736   3.467  0.00  0.00    +0.204 A 
ATOM      8  C   UNL     1     -32.180  28.664   4.356  0.00  0.00    +0.143 C 
ATOM      9  C   UNL     1     -34.827  24.735   2.818  0.00  0.00    +0.046 C 
ATOM     10  C   UNL     1     -35.038  23.997   5.506  0.00  0.00    +0.077 C 
ATOM     11  C   UNL     1     -32.536  27.712   6.961  0.00  0.00    +0.074 C 
ATOM     12  C   UNL     1     -35.527  23.581   3.174  0.00  0.00    +0.168 C 
ATOM     13  C   UNL     1     -35.633  23.213   4.516  0.00  0.00    +0.171 C 
ATOM     14  C   UNL     1     -31.635  29.358   5.436  0.00  0.00    +0.073 C 
ATOM     15  C   UNL     1     -31.813  28.884   6.736  0.00  0.00    +0.140 C 
ENDROOT
BRANCH   8  16
ATOM     16  O   UNL     1     -31.980  29.171   3.108  0.00  0.00    -0.505 OA
ATOM     17  H   UNL     1     -32.297  28.708   2.357  0.00  0.00    +0.292 HD
ENDBRANCH   8  16
BRANCH  12  18
ATOM     18  O   UNL     1     -36.103  22.821   2.201  0.00  0.00    -0.503 OA
ATOM     19  H   UNL     1     -36.985  22.988   1.937  0.00  0.00    +0.292 HD
ENDBRANCH  12  18
BRANCH  13  20
ATOM     20  O   UNL     1     -36.312  22.088   4.874  0.00  0.00    -0.503 OA
ATOM     21  H   UNL     1     -36.989  21.752   4.320  0.00  0.00    +0.292 HD
ENDBRANCH  13  20
BRANCH  15  22
ATOM     22  O   UNL     1     -31.279  29.564   7.787  0.00  0.00    -0.505 OA
ATOM     23  H   UNL     1     -31.692  29.528   8.627  0.00  0.00    +0.292 HD
ENDBRANCH  15  22
TORSDOF 4
ENDMDL
MODEL 6
REMARK VINA RESULT:      -5.7      3.050      7.523
REMARK  Name = 5281656
REMARK  4 active torsions:
REMARK  status: ('A' for Active; 'I' for Inactive)
REMARK    1  A    between atoms: C_8  and  O_16
REMARK    2  A    between atoms: C_12  and  O_18
REMARK    3  A    between atoms: C_13  and  O_20
REMARK    4  A    between atoms: C_15  and  O_22
REMARK                            x       y       z     vdW  Elec       q    Type
REMARK                         _______ _______ _______ _____ _____    ______ ____
ROOT
ATOM      1  O   UNL     1     -33.716  25.768   6.032  0.00  0.00    -0.453 OA
ATOM      2  O   UNL     1     -33.524  27.150   2.186  0.00  0.00    -0.286 OA
ATOM      3  C   UNL     1     -34.283  25.473   3.675  0.00  0.00    +0.107 A 
ATOM      4  C   UNL     1     -32.965  27.459   4.439  0.00  0.00    +0.077 A 
ATOM      5  C   UNL     1     -34.306  25.067   5.009  0.00  0.00    +0.154 A 
ATOM      6  C   UNL     1     -33.064  26.937   5.729  0.00  0.00    +0.152 A 
ATOM      7  C   UNL     1     -33.590  26.724   3.330  0.00  0.00    +0.204 A 
ATOM      8  C   UNL     1     -34.907  24.705   2.689  0.00  0.00    +0.143 C 
ATOM      9  C   UNL     1     -32.283  28.657   4.208  0.00  0.00    +0.046 C 
ATOM     10  C   UNL     1     -32.478  27.619   6.797  0.00  0.00    +0.077 C 
ATOM     11  C   UNL     1     -34.959  23.883   5.360  0.00  0.00    +0.074 C 
ATOM     12  C   UNL     1     -31.699  29.334   5.280  0.00  0.00    +0.168 C 
ATOM     13  C   UNL     1     -31.796  28.816   6.571  0.00  0.00    +0.171 C 
ATOM     14  C   UNL     1     -35.557  23.524   3.045  0.00  0.00    +0.073 C 
ATOM     15  C   UNL     1     -35.583  23.113   4.379  0.00  0.00    +0.140 C 
ENDROOT
BRANCH   8  16
ATOM     16  O   UNL     1     -34.909  25.060   1.373  0.00  0.00    -0.505 OA
ATOM     17  H   UNL     1     -34.169  24.862   0.834  0.00  0.00    +0.292 HD
ENDBRANCH   8  16
BRANCH  12  18
ATOM     18  O   UNL     1     -31.037  30.502   5.051  0.00  0.00    -0.503 OA
ATOM     19  H   UNL     1     -30.780  30.733   4.181  0.00  0.00    +0.292 HD
ENDBRANCH  12  18
BRANCH  13  20
ATOM     20  O   UNL     1     -31.231  29.471   7.624  0.00  0.00    -0.503 OA
ATOM     21  H   UNL     1     -31.766  29.768   8.334  0.00  0.00    +0.292 HD
ENDBRANCH  13  20
BRANCH  15  22
ATOM     22  O   UNL     1     -36.219  21.960   4.723  0.00  0.00    -0.505 OA
ATOM     23  H   UNL     1     -36.784  21.535   4.108  0.00  0.00    +0.292 HD
ENDBRANCH  15  22
TORSDOF 4
ENDMDL
MODEL 7
REMARK VINA RESULT:      -5.7      1.433      2.911
REMARK  Name = 5281656
REMARK  4 active torsions:
REMARK  status: ('A' for Active; 'I' for Inactive)
REMARK    1  A    between atoms: C_8  and  O_16
REMARK    2  A    between atoms: C_12  and  O_18
REMARK    3  A    between atoms: C_13  and  O_20
REMARK    4  A    between atoms: C_15  and  O_22
REMARK                            x       y       z     vdW  Elec       q    Type
REMARK                         _______ _______ _______ _____ _____    ______ ____
ROOT
ATOM      1  O   UNL     1     -37.542  23.403   1.997  0.00  0.00    -0.453 OA
ATOM      2  O   UNL     1     -35.200  20.577   3.807  0.00  0.00    -0.286 OA
ATOM      3  C   UNL     1     -36.063  22.782   3.839  0.00  0.00    +0.107 A 
ATOM      4  C   UNL     1     -36.613  21.145   2.027  0.00  0.00    +0.077 A 
ATOM      5  C   UNL     1     -36.879  23.691   3.164  0.00  0.00    +0.154 A 
ATOM      6  C   UNL     1     -37.396  22.149   1.458  0.00  0.00    +0.152 A 
ATOM      7  C   UNL     1     -35.896  21.433   3.278  0.00  0.00    +0.204 A 
ATOM      8  C   UNL     1     -35.421  23.149   5.024  0.00  0.00    +0.143 C 
ATOM      9  C   UNL     1     -36.514  19.891   1.419  0.00  0.00    +0.046 C 
ATOM     10  C   UNL     1     -38.087  21.897   0.270  0.00  0.00    +0.077 C 
ATOM     11  C   UNL     1     -37.053  24.978   3.679  0.00  0.00    +0.074 C 
ATOM     12  C   UNL     1     -37.205  19.645   0.232  0.00  0.00    +0.168 C 
ATOM     13  C   UNL     1     -37.990  20.646  -0.341  0.00  0.00    +0.171 C 
ATOM     14  C   UNL     1     -35.599  24.435   5.533  0.00  0.00    +0.073 C 
ATOM     15  C   UNL     1     -36.414  25.348   4.862  0.00  0.00    +0.140 C 
ENDROOT
BRANCH   8  16
ATOM     16  O   UNL     1     -34.614  22.298   5.717  0.00  0.00    -0.505 OA
ATOM     17  H   UNL     1     -33.858  22.627   6.161  0.00  0.00    +0.292 HD
ENDBRANCH   8  16
BRANCH  12  18
ATOM     18  O   UNL     1     -37.107  18.421  -0.358  0.00  0.00    -0.503 OA
ATOM     19  H   UNL     1     -37.224  17.644   0.152  0.00  0.00    +0.292 HD
ENDBRANCH  12  18
BRANCH  13  20
ATOM     20  O   UNL     1     -38.671  20.415  -1.498  0.00  0.00    -0.503 OA
ATOM     21  H   UNL     1     -39.608  20.407  -1.498  0.00  0.00    +0.292 HD
ENDBRANCH  13  20
BRANCH  15  22
ATOM     22  O   UNL     1     -36.585  26.603   5.363  0.00  0.00    -0.505 OA
ATOM     23  H   UNL     1     -36.380  27.349   4.835  0.00  0.00    +0.292 HD
ENDBRANCH  15  22
TORSDOF 4
ENDMDL
MODEL 8
REMARK VINA RESULT:      -5.6      2.142      2.979
REMARK  Name = 5281656
REMARK  4 active torsions:
REMARK  status: ('A' for Active; 'I' for Inactive)
REMARK    1  A    between atoms: C_8  and  O_16
REMARK    2  A    between atoms: C_12  and  O_18
REMARK    3  A    between atoms: C_13  and  O_20
REMARK    4  A    between atoms: C_15  and  O_22
REMARK                            x       y       z     vdW  Elec       q    Type
REMARK                         _______ _______ _______ _____ _____    ______ ____
ROOT
ATOM      1  O   UNL     1     -35.427  23.566   1.622  0.00  0.00    -0.453 OA
ATOM      2  O   UNL     1     -35.201  20.655   4.489  0.00  0.00    -0.286 OA
ATOM      3  C   UNL     1     -35.453  22.955   3.987  0.00  0.00    +0.107 A 
ATOM      4  C   UNL     1     -35.170  21.211   2.214  0.00  0.00    +0.077 A 
ATOM      5  C   UNL     1     -35.521  23.889   2.953  0.00  0.00    +0.154 A 
ATOM      6  C   UNL     1     -35.255  22.247   1.283  0.00  0.00    +0.152 A 
ATOM      7  C   UNL     1     -35.270  21.536   3.644  0.00  0.00    +0.204 A 
ATOM      8  C   UNL     1     -35.557  23.361   5.319  0.00  0.00    +0.143 C 
ATOM      9  C   UNL     1     -34.995  19.891   1.792  0.00  0.00    +0.046 C 
ATOM     10  C   UNL     1     -35.164  21.960  -0.080  0.00  0.00    +0.077 C 
ATOM     11  C   UNL     1     -35.695  25.242   3.255  0.00  0.00    +0.074 C 
ATOM     12  C   UNL     1     -34.903  19.610   0.427  0.00  0.00    +0.168 C 
ATOM     13  C   UNL     1     -34.988  20.643  -0.507  0.00  0.00    +0.171 C 
ATOM     14  C   UNL     1     -35.731  24.713   5.614  0.00  0.00    +0.073 C 
ATOM     15  C   UNL     1     -35.800  25.653   4.585  0.00  0.00    +0.140 C 
ENDROOT
BRANCH   8  16
ATOM     16  O   UNL     1     -35.494  22.487   6.361  0.00  0.00    -0.505 OA
ATOM     17  H   UNL     1     -35.883  22.709   7.184  0.00  0.00    +0.292 HD
ENDBRANCH   8  16
BRANCH  12  18
ATOM     18  O   UNL     1     -34.733  18.322   0.020  0.00  0.00    -0.503 OA
ATOM     19  H   UNL     1     -35.282  17.645   0.362  0.00  0.00    +0.292 HD
ENDBRANCH  12  18
BRANCH  13  20
ATOM     20  O   UNL     1     -34.902  20.379  -1.840  0.00  0.00    -0.503 OA
ATOM     21  H   UNL     1     -35.280  19.596  -2.189  0.00  0.00    +0.292 HD
ENDBRANCH  13  20
BRANCH  15  22
ATOM     22  O   UNL     1     -35.970  26.971   4.877  0.00  0.00    -0.505 OA
ATOM     23  H   UNL     1     -35.224  27.526   4.989  0.00  0.00    +0.292 HD
ENDBRANCH  15  22
TORSDOF 4
ENDMDL
MODEL 9
REMARK VINA RESULT:      -5.5      2.073      6.038
REMARK  Name = 5281656
REMARK  4 active torsions:
REMARK  status: ('A' for Active; 'I' for Inactive)
REMARK    1  A    between atoms: C_8  and  O_16
REMARK    2  A    between atoms: C_12  and  O_18
REMARK    3  A    between atoms: C_13  and  O_20
REMARK    4  A    between atoms: C_15  and  O_22
REMARK                            x       y       z     vdW  Elec       q    Type
REMARK                         _______ _______ _______ _____ _____    ______ ____
ROOT
ATOM      1  O   UNL     1     -34.373  23.944   1.343  0.00  0.00    -0.453 OA
ATOM      2  O   UNL     1     -36.828  21.967   3.953  0.00  0.00    -0.286 OA
ATOM      3  C   UNL     1     -35.465  21.866   2.019  0.00  0.00    +0.107 A 
ATOM      4  C   UNL     1     -35.796  23.974   3.328  0.00  0.00    +0.077 A 
ATOM      5  C   UNL     1     -34.639  22.608   1.174  0.00  0.00    +0.154 A 
ATOM      6  C   UNL     1     -34.951  24.593   2.406  0.00  0.00    +0.152 A 
ATOM      7  C   UNL     1     -36.092  22.544   3.164  0.00  0.00    +0.204 A 
ATOM      8  C   UNL     1     -35.688  20.508   1.781  0.00  0.00    +0.143 C 
ATOM      9  C   UNL     1     -36.347  24.702   4.385  0.00  0.00    +0.046 C 
ATOM     10  C   UNL     1     -34.655  25.951   2.543  0.00  0.00    +0.077 C 
ATOM     11  C   UNL     1     -34.031  21.985   0.081  0.00  0.00    +0.074 C 
ATOM     12  C   UNL     1     -36.049  26.059   4.516  0.00  0.00    +0.168 C 
ATOM     13  C   UNL     1     -35.204  26.682   3.597  0.00  0.00    +0.171 C 
ATOM     14  C   UNL     1     -35.078  19.892   0.688  0.00  0.00    +0.073 C 
ATOM     15  C   UNL     1     -34.251  20.629  -0.161  0.00  0.00    +0.140 C 
ENDROOT
BRANCH   8  16
ATOM     16  O   UNL     1     -36.487  19.744   2.577  0.00  0.00    -0.505 OA
ATOM     17  H   UNL     1     -36.265  19.617   3.478  0.00  0.00    +0.292 HD
ENDBRANCH   8  16
BRANCH  12  18
ATOM     18  O   UNL     1     -36.587  26.765   5.549  0.00  0.00    -0.503 OA
ATOM     19  H   UNL     1     -36.509  27.698   5.571  0.00  0.00    +0.292 HD
ENDBRANCH  12  18
BRANCH  13  20
ATOM     20  O   UNL     1     -34.904  28.005   3.719  0.00  0.00    -0.503 OA
ATOM     21  H   UNL     1     -34.089  28.334   3.394  0.00  0.00    +0.292 HD
ENDBRANCH  13  20
BRANCH  15  22
ATOM     22  O   UNL     1     -33.658  20.024  -1.226  0.00  0.00    -0.505 OA
ATOM     23  H   UNL     1     -33.126  20.524  -1.813  0.00  0.00    +0.292 HD
ENDBRANCH  15  22
TORSDOF 4
ENDMDL
