MODEL 1
REMARK VINA RESULT:      -7.9      0.000      0.000
REMARK  Name = 5327686
REMARK  3 active torsions:
REMARK  status: ('A' for Active; 'I' for Inactive)
REMARK    1  A    between atoms: C_4  and  C_10
REMARK    2  A    between atoms: C_5  and  C_23
REMARK    3  A    between atoms: C_17  and  N_21
REMARK                            x       y       z     vdW  Elec       q    Type
REMARK                         _______ _______ _______ _____ _____    ______ ____
ROOT
ATOM      1  O   UNL     1     -36.781  19.172  -0.874  0.00  0.00    -0.270 OA
ATOM      2  O   UNL     1     -39.254  21.603   2.114  0.00  0.00    -0.270 OA
ATOM      3  N   UNL     1     -38.339  20.183   0.521  0.00  0.00    -0.248 N 
ATOM      4  C   UNL     1     -36.194  20.949   0.643  0.00  0.00    +0.059 C 
ATOM      5  C   UNL     1     -36.923  21.671   1.513  0.00  0.00    +0.059 C 
ATOM      6  C   UNL     1     -37.103  19.977  -0.016  0.00  0.00    +0.252 C 
ATOM      7  C   UNL     1     -38.324  21.182   1.448  0.00  0.00    +0.252 C 
ATOM      8  H   UNL     1     -39.144  19.674   0.269  0.00  0.00    +0.158 HD
ENDROOT
BRANCH   4  10
ATOM      9  N   UNL     1     -32.874  21.870  -0.409  0.00  0.00    -0.284 N 
ATOM     10  C   UNL     1     -34.803  21.043   0.324  0.00  0.00    +0.021 C 
ATOM     11  C   UNL     1     -33.788  20.064   0.530  0.00  0.00    +0.015 C 
ATOM     12  C   UNL     1     -32.589  20.608   0.063  0.00  0.00    +0.053 C 
ATOM     13  C   UNL     1     -34.207  22.141  -0.256  0.00  0.00    +0.066 C 
ATOM     14  C   UNL     1     -33.776  18.764   1.073  0.00  0.00    +0.003 C 
ATOM     15  C   UNL     1     -31.375  19.915   0.111  0.00  0.00    +0.039 C 
ATOM     16  C   UNL     1     -31.916  22.788  -0.986  0.00  0.00    +0.117 C 
ATOM     17  C   UNL     1     -31.388  18.627   0.653  0.00  0.00    +0.144 C 
ATOM     18  C   UNL     1     -32.568  18.058   1.128  0.00  0.00    +0.024 C 
BRANCH  17  21
ATOM     19  O   UNL     1     -29.087  18.504   0.729  0.00  0.00    -0.126 OA
ATOM     20  O   UNL     1     -30.234  16.634   0.768  0.00  0.00    -0.126 OA
ATOM     21  N   UNL     1     -30.177  17.886   0.720  0.00  0.00    +0.058 N 
ENDBRANCH  17  21
ENDBRANCH   4  10
BRANCH   5  23
ATOM     22  N   UNL     1     -36.113  24.757   3.177  0.00  0.00    -0.284 N 
ATOM     23  C   UNL     1     -36.512  22.718   2.397  0.00  0.00    +0.021 C 
ATOM     24  C   UNL     1     -35.961  22.594   3.701  0.00  0.00    +0.015 C 
ATOM     25  C   UNL     1     -35.720  23.888   4.169  0.00  0.00    +0.052 C 
ATOM     26  C   UNL     1     -36.593  24.060   2.101  0.00  0.00    +0.066 C 
ATOM     27  C   UNL     1     -35.643  21.502   4.533  0.00  0.00    +0.001 C 
ATOM     28  C   UNL     1     -35.174  24.145   5.432  0.00  0.00    +0.015 C 
ATOM     29  C   UNL     1     -36.033  26.200   3.244  0.00  0.00    +0.117 C 
ATOM     30  C   UNL     1     -35.097  21.744   5.799  0.00  0.00    +0.000 C 
ATOM     31  C   UNL     1     -34.866  23.046   6.240  0.00  0.00    +0.001 C 
ENDBRANCH   5  23
TORSDOF 3
ENDMDL
MODEL 2
REMARK VINA RESULT:      -7.9      2.589      6.354
REMARK  Name = 5327686
REMARK  3 active torsions:
REMARK  status: ('A' for Active; 'I' for Inactive)
REMARK    1  A    between atoms: C_4  and  C_10
REMARK    2  A    between atoms: C_5  and  C_23
REMARK    3  A    between atoms: C_17  and  N_21
REMARK                            x       y       z     vdW  Elec       q    Type
REMARK                         _______ _______ _______ _____ _____    ______ ____
ROOT
ATOM      1  O   UNL     1     -38.778  21.768   2.249  0.00  0.00    -0.270 OA
ATOM      2  O   UNL     1     -36.644  20.190  -1.482  0.00  0.00    -0.270 OA
ATOM      3  N   UNL     1     -38.059  20.889   0.222  0.00  0.00    -0.248 N 
ATOM      4  C   UNL     1     -36.447  21.634   1.654  0.00  0.00    +0.059 C 
ATOM      5  C   UNL     1     -35.819  21.160   0.563  0.00  0.00    +0.059 C 
ATOM      6  C   UNL     1     -37.908  21.461   1.450  0.00  0.00    +0.252 C 
ATOM      7  C   UNL     1     -36.856  20.673  -0.382  0.00  0.00    +0.252 C 
ATOM      8  H   UNL     1     -38.929  20.659  -0.178  0.00  0.00    +0.158 HD
ENDROOT
BRANCH   4  10
ATOM      9  N   UNL     1     -35.242  22.385   4.964  0.00  0.00    -0.284 N 
ATOM     10  C   UNL     1     -35.896  22.196   2.849  0.00  0.00    +0.021 C 
ATOM     11  C   UNL     1     -35.330  23.491   3.028  0.00  0.00    +0.015 C 
ATOM     12  C   UNL     1     -34.927  23.583   4.363  0.00  0.00    +0.053 C 
ATOM     13  C   UNL     1     -35.827  21.541   4.059  0.00  0.00    +0.066 C 
ATOM     14  C   UNL     1     -35.119  24.595   2.179  0.00  0.00    +0.003 C 
ATOM     15  C   UNL     1     -34.323  24.728   4.892  0.00  0.00    +0.039 C 
ATOM     16  C   UNL     1     -34.996  22.050   6.351  0.00  0.00    +0.117 C 
ATOM     17  C   UNL     1     -34.125  25.811   4.032  0.00  0.00    +0.144 C 
ATOM     18  C   UNL     1     -34.516  25.748   2.696  0.00  0.00    +0.024 C 
BRANCH  17  21
ATOM     19  O   UNL     1     -32.663  26.902   5.441  0.00  0.00    -0.126 OA
ATOM     20  O   UNL     1     -33.851  28.101   4.039  0.00  0.00    -0.126 OA
ATOM     21  N   UNL     1     -33.517  26.996   4.528  0.00  0.00    +0.058 N 
ENDBRANCH  17  21
ENDBRANCH   4  10
BRANCH   5  23
ATOM     22  N   UNL     1     -32.422  21.721  -0.482  0.00  0.00    -0.284 N 
ATOM     23  C   UNL     1     -34.421  21.112   0.265  0.00  0.00    +0.021 C 
ATOM     24  C   UNL     1     -33.502  20.066   0.553  0.00  0.00    +0.015 C 
ATOM     25  C   UNL     1     -32.254  20.474   0.074  0.00  0.00    +0.052 C 
ATOM     26  C   UNL     1     -33.728  22.116  -0.373  0.00  0.00    +0.066 C 
ATOM     27  C   UNL     1     -33.611  18.808   1.179  0.00  0.00    +0.001 C 
ATOM     28  C   UNL     1     -31.106  19.681   0.190  0.00  0.00    +0.015 C 
ATOM     29  C   UNL     1     -31.381  22.511  -1.102  0.00  0.00    +0.117 C 
ATOM     30  C   UNL     1     -32.470  18.006   1.301  0.00  0.00    +0.000 C 
ATOM     31  C   UNL     1     -31.238  18.438   0.813  0.00  0.00    +0.001 C 
ENDBRANCH   5  23
TORSDOF 3
ENDMDL
MODEL 3
REMARK VINA RESULT:      -7.5      1.213      1.299
REMARK  Name = 5327686
REMARK  3 active torsions:
REMARK  status: ('A' for Active; 'I' for Inactive)
REMARK    1  A    between atoms: C_4  and  C_10
REMARK    2  A    between atoms: C_5  and  C_23
REMARK    3  A    between atoms: C_17  and  N_21
REMARK                            x       y       z     vdW  Elec       q    Type
REMARK                         _______ _______ _______ _____ _____    ______ ____
ROOT
ATOM      1  O   UNL     1     -37.727  21.206  -1.488  0.00  0.00    -0.270 OA
ATOM      2  O   UNL     1     -39.797  23.013   2.173  0.00  0.00    -0.270 OA
ATOM      3  N   UNL     1     -39.114  22.017   0.190  0.00  0.00    -0.248 N 
ATOM      4  C   UNL     1     -36.866  22.250   0.505  0.00  0.00    +0.059 C 
ATOM      5  C   UNL     1     -37.475  22.791   1.576  0.00  0.00    +0.059 C 
ATOM      6  C   UNL     1     -37.920  21.744  -0.410  0.00  0.00    +0.252 C 
ATOM      7  C   UNL     1     -38.940  22.645   1.387  0.00  0.00    +0.252 C 
ATOM      8  H   UNL     1     -39.992  21.791  -0.194  0.00  0.00    +0.158 HD
ENDROOT
BRANCH   4  10
ATOM      9  N   UNL     1     -33.451  22.690  -0.551  0.00  0.00    -0.284 N 
ATOM     10  C   UNL     1     -35.471  22.153   0.203  0.00  0.00    +0.021 C 
ATOM     11  C   UNL     1     -34.585  21.075   0.489  0.00  0.00    +0.015 C 
ATOM     12  C   UNL     1     -33.325  21.439   0.007  0.00  0.00    +0.053 C 
ATOM     13  C   UNL     1     -34.742  23.131  -0.438  0.00  0.00    +0.066 C 
ATOM     14  C   UNL     1     -34.734  19.823   1.117  0.00  0.00    +0.003 C 
ATOM     15  C   UNL     1     -32.204  20.608   0.120  0.00  0.00    +0.039 C 
ATOM     16  C   UNL     1     -32.383  23.446  -1.172  0.00  0.00    +0.117 C 
ATOM     17  C   UNL     1     -32.377  19.370   0.745  0.00  0.00    +0.144 C 
ATOM     18  C   UNL     1     -33.621  18.982   1.237  0.00  0.00    +0.024 C 
BRANCH  17  21
ATOM     19  O   UNL     1     -30.194  18.780   0.295  0.00  0.00    -0.126 OA
ATOM     20  O   UNL     1     -31.389  17.462   1.580  0.00  0.00    -0.126 OA
ATOM     21  N   UNL     1     -31.266  18.495   0.880  0.00  0.00    +0.058 N 
ENDBRANCH  17  21
ENDBRANCH   4  10
BRANCH   5  23
ATOM     22  N   UNL     1     -36.305  24.950   4.206  0.00  0.00    -0.284 N 
ATOM     23  C   UNL     1     -36.903  23.396   2.739  0.00  0.00    +0.021 C 
ATOM     24  C   UNL     1     -36.199  22.760   3.798  0.00  0.00    +0.015 C 
ATOM     25  C   UNL     1     -35.835  23.758   4.706  0.00  0.00    +0.052 C 
ATOM     26  C   UNL     1     -36.952  24.743   3.017  0.00  0.00    +0.066 C 
ATOM     27  C   UNL     1     -35.836  21.426   4.074  0.00  0.00    +0.001 C 
ATOM     28  C   UNL     1     -35.122  23.487   5.880  0.00  0.00    +0.015 C 
ATOM     29  C   UNL     1     -36.143  26.245   4.831  0.00  0.00    +0.117 C 
ATOM     30  C   UNL     1     -35.123  21.141   5.245  0.00  0.00    +0.000 C 
ATOM     31  C   UNL     1     -34.773  22.157   6.132  0.00  0.00    +0.001 C 
ENDBRANCH   5  23
TORSDOF 3
ENDMDL
MODEL 4
REMARK VINA RESULT:      -7.5      2.905      6.729
REMARK  Name = 5327686
REMARK  3 active torsions:
REMARK  status: ('A' for Active; 'I' for Inactive)
REMARK    1  A    between atoms: C_4  and  C_10
REMARK    2  A    between atoms: C_5  and  C_23
REMARK    3  A    between atoms: C_17  and  N_21
REMARK                            x       y       z     vdW  Elec       q    Type
REMARK                         _______ _______ _______ _____ _____    ______ ____
ROOT
ATOM      1  O   UNL     1     -38.393  23.640   1.550  0.00  0.00    -0.270 OA
ATOM      2  O   UNL     1     -36.536  20.940  -1.648  0.00  0.00    -0.270 OA
ATOM      3  N   UNL     1     -37.770  22.361  -0.288  0.00  0.00    -0.248 N 
ATOM      4  C   UNL     1     -36.344  22.374   1.493  0.00  0.00    +0.059 C 
ATOM      5  C   UNL     1     -35.804  21.572   0.558  0.00  0.00    +0.059 C 
ATOM      6  C   UNL     1     -37.629  22.894   0.960  0.00  0.00    +0.252 C 
ATOM      7  C   UNL     1     -36.720  21.555  -0.610  0.00  0.00    +0.252 C 
ATOM      8  H   UNL     1     -38.537  22.536  -0.881  0.00  0.00    +0.158 HD
ENDROOT
BRANCH   4  10
ATOM      9  N   UNL     1     -35.374  22.527   4.959  0.00  0.00    -0.284 N 
ATOM     10  C   UNL     1     -35.860  22.707   2.797  0.00  0.00    +0.021 C 
ATOM     11  C   UNL     1     -35.224  23.912   3.216  0.00  0.00    +0.015 C 
ATOM     12  C   UNL     1     -34.930  23.772   4.574  0.00  0.00    +0.053 C 
ATOM     13  C   UNL     1     -35.937  21.877   3.894  0.00  0.00    +0.066 C 
ATOM     14  C   UNL     1     -34.869  25.110   2.565  0.00  0.00    +0.003 C 
ATOM     15  C   UNL     1     -34.297  24.775   5.317  0.00  0.00    +0.039 C 
ATOM     16  C   UNL     1     -35.269  21.972   6.291  0.00  0.00    +0.117 C 
ATOM     17  C   UNL     1     -33.955  25.955   4.651  0.00  0.00    +0.144 C 
ATOM     18  C   UNL     1     -34.235  26.122   3.296  0.00  0.00    +0.024 C 
BRANCH  17  21
ATOM     19  O   UNL     1     -33.133  28.103   4.800  0.00  0.00    -0.126 OA
ATOM     20  O   UNL     1     -32.943  26.789   6.547  0.00  0.00    -0.126 OA
ATOM     21  N   UNL     1     -33.313  27.000   5.367  0.00  0.00    +0.058 N 
ENDBRANCH  17  21
ENDBRANCH   4  10
BRANCH   5  23
ATOM     22  N   UNL     1     -33.102  19.238   1.004  0.00  0.00    -0.284 N 
ATOM     23  C   UNL     1     -34.571  20.846   0.583  0.00  0.00    +0.021 C 
ATOM     24  C   UNL     1     -33.323  21.226   0.018  0.00  0.00    +0.015 C 
ATOM     25  C   UNL     1     -32.418  20.199   0.296  0.00  0.00    +0.052 C 
ATOM     26  C   UNL     1     -34.404  19.620   1.183  0.00  0.00    +0.066 C 
ATOM     27  C   UNL     1     -32.874  22.348  -0.708  0.00  0.00    +0.001 C 
ATOM     28  C   UNL     1     -31.080  20.239  -0.115  0.00  0.00    +0.015 C 
ATOM     29  C   UNL     1     -32.540  18.000   1.500  0.00  0.00    +0.117 C 
ATOM     30  C   UNL     1     -31.539  22.401  -1.125  0.00  0.00    +0.000 C 
ATOM     31  C   UNL     1     -30.657  21.362  -0.833  0.00  0.00    +0.001 C 
ENDBRANCH   5  23
TORSDOF 3
ENDMDL
MODEL 5
REMARK VINA RESULT:      -7.3      1.069      1.958
REMARK  Name = 5327686
REMARK  3 active torsions:
REMARK  status: ('A' for Active; 'I' for Inactive)
REMARK    1  A    between atoms: C_4  and  C_10
REMARK    2  A    between atoms: C_5  and  C_23
REMARK    3  A    between atoms: C_17  and  N_21
REMARK                            x       y       z     vdW  Elec       q    Type
REMARK                         _______ _______ _______ _____ _____    ______ ____
ROOT
ATOM      1  O   UNL     1     -36.679  20.365  -1.497  0.00  0.00    -0.270 OA
ATOM      2  O   UNL     1     -38.754  21.955   2.262  0.00  0.00    -0.270 OA
ATOM      3  N   UNL     1     -38.068  21.076   0.225  0.00  0.00    -0.248 N 
ATOM      4  C   UNL     1     -35.820  21.292   0.555  0.00  0.00    +0.059 C 
ATOM      5  C   UNL     1     -36.430  21.770   1.654  0.00  0.00    +0.059 C 
ATOM      6  C   UNL     1     -36.873  20.840  -0.390  0.00  0.00    +0.252 C 
ATOM      7  C   UNL     1     -37.896  21.633   1.457  0.00  0.00    +0.252 C 
ATOM      8  H   UNL     1     -38.945  20.871  -0.173  0.00  0.00    +0.158 HD
ENDROOT
BRANCH   4  10
ATOM      9  N   UNL     1     -32.410  21.789  -0.493  0.00  0.00    -0.284 N 
ATOM     10  C   UNL     1     -34.426  21.215   0.248  0.00  0.00    +0.021 C 
ATOM     11  C   UNL     1     -33.530  20.137   0.503  0.00  0.00    +0.015 C 
ATOM     12  C   UNL     1     -32.274  20.523   0.029  0.00  0.00    +0.053 C 
ATOM     13  C   UNL     1     -33.705  22.216  -0.366  0.00  0.00    +0.066 C 
ATOM     14  C   UNL     1     -33.669  18.865   1.095  0.00  0.00    +0.003 C 
ATOM     15  C   UNL     1     -31.147  19.699   0.118  0.00  0.00    +0.039 C 
ATOM     16  C   UNL     1     -31.349  22.570  -1.093  0.00  0.00    +0.117 C 
ATOM     17  C   UNL     1     -31.309  18.442   0.708  0.00  0.00    +0.144 C 
ATOM     18  C   UNL     1     -32.550  18.030   1.190  0.00  0.00    +0.024 C 
BRANCH  17  21
ATOM     19  O   UNL     1     -29.050  18.067   0.972  0.00  0.00    -0.126 OA
ATOM     20  O   UNL     1     -30.378  16.333   0.753  0.00  0.00    -0.126 OA
ATOM     21  N   UNL     1     -30.191  17.572   0.816  0.00  0.00    +0.058 N 
ENDBRANCH  17  21
ENDBRANCH   4  10
BRANCH   5  23
ATOM     22  N   UNL     1     -35.226  22.474   4.971  0.00  0.00    -0.284 N 
ATOM     23  C   UNL     1     -35.860  22.307   2.851  0.00  0.00    +0.021 C 
ATOM     24  C   UNL     1     -35.212  23.561   3.023  0.00  0.00    +0.015 C 
ATOM     25  C   UNL     1     -34.823  23.641   4.363  0.00  0.00    +0.052 C 
ATOM     26  C   UNL     1     -35.855  21.662   4.067  0.00  0.00    +0.066 C 
ATOM     27  C   UNL     1     -34.915  24.639   2.165  0.00  0.00    +0.001 C 
ATOM     28  C   UNL     1     -34.152  24.751   4.889  0.00  0.00    +0.015 C 
ATOM     29  C   UNL     1     -35.028  22.142   6.365  0.00  0.00    +0.117 C 
ATOM     30  C   UNL     1     -34.244  25.755   2.678  0.00  0.00    +0.000 C 
ATOM     31  C   UNL     1     -33.869  25.808   4.020  0.00  0.00    +0.001 C 
ENDBRANCH   5  23
TORSDOF 3
ENDMDL
MODEL 6
REMARK VINA RESULT:      -7.3      1.992      2.684
REMARK  Name = 5327686
REMARK  3 active torsions:
REMARK  status: ('A' for Active; 'I' for Inactive)
REMARK    1  A    between atoms: C_4  and  C_10
REMARK    2  A    between atoms: C_5  and  C_23
REMARK    3  A    between atoms: C_17  and  N_21
REMARK                            x       y       z     vdW  Elec       q    Type
REMARK                         _______ _______ _______ _____ _____    ______ ____
ROOT
ATOM      1  O   UNL     1     -39.419  21.094   0.705  0.00  0.00    -0.270 OA
ATOM      2  O   UNL     1     -39.950  24.620   3.576  0.00  0.00    -0.270 OA
ATOM      3  N   UNL     1     -40.054  22.742   2.214  0.00  0.00    -0.248 N 
ATOM      4  C   UNL     1     -37.926  22.853   1.399  0.00  0.00    +0.059 C 
ATOM      5  C   UNL     1     -38.086  23.895   2.234  0.00  0.00    +0.059 C 
ATOM      6  C   UNL     1     -39.201  22.093   1.371  0.00  0.00    +0.252 C 
ATOM      7  C   UNL     1     -39.467  23.836   2.776  0.00  0.00    +0.252 C 
ATOM      8  H   UNL     1     -40.980  22.456   2.393  0.00  0.00    +0.158 HD
ENDROOT
BRANCH   4  10
ATOM      9  N   UNL     1     -35.331  22.402  -1.058  0.00  0.00    -0.284 N 
ATOM     10  C   UNL     1     -36.787  22.477   0.620  0.00  0.00    +0.021 C 
ATOM     11  C   UNL     1     -35.771  21.535   0.950  0.00  0.00    +0.015 C 
ATOM     12  C   UNL     1     -34.870  21.508  -0.118  0.00  0.00    +0.053 C 
ATOM     13  C   UNL     1     -36.487  22.992  -0.622  0.00  0.00    +0.066 C 
ATOM     14  C   UNL     1     -35.529  20.702   2.061  0.00  0.00    +0.003 C 
ATOM     15  C   UNL     1     -33.738  20.687  -0.131  0.00  0.00    +0.039 C 
ATOM     16  C   UNL     1     -34.697  22.689  -2.327  0.00  0.00    +0.117 C 
ATOM     17  C   UNL     1     -33.520  19.868   0.981  0.00  0.00    +0.144 C 
ATOM     18  C   UNL     1     -34.400  19.875   2.061  0.00  0.00    +0.024 C 
BRANCH  17  21
ATOM     19  O   UNL     1     -31.374  19.329   0.333  0.00  0.00    -0.126 OA
ATOM     20  O   UNL     1     -32.421  17.976   1.708  0.00  0.00    -0.126 OA
ATOM     21  N   UNL     1     -32.383  19.016   1.008  0.00  0.00    +0.058 N 
ENDBRANCH  17  21
ENDBRANCH   4  10
BRANCH   5  23
ATOM     22  N   UNL     1     -36.014  26.816   2.588  0.00  0.00    -0.284 N 
ATOM     23  C   UNL     1     -37.152  24.911   2.612  0.00  0.00    +0.021 C 
ATOM     24  C   UNL     1     -36.245  24.899   3.706  0.00  0.00    +0.015 C 
ATOM     25  C   UNL     1     -35.542  26.107   3.669  0.00  0.00    +0.052 C 
ATOM     26  C   UNL     1     -36.987  26.102   1.942  0.00  0.00    +0.066 C 
ATOM     27  C   UNL     1     -35.952  23.976   4.730  0.00  0.00    +0.001 C 
ATOM     28  C   UNL     1     -34.558  26.437   4.608  0.00  0.00    +0.015 C 
ATOM     29  C   UNL     1     -35.555  28.125   2.177  0.00  0.00    +0.117 C 
ATOM     30  C   UNL     1     -34.970  24.293   5.676  0.00  0.00    +0.000 C 
ATOM     31  C   UNL     1     -34.285  25.506   5.614  0.00  0.00    +0.001 C 
ENDBRANCH   5  23
TORSDOF 3
ENDMDL
MODEL 7
REMARK VINA RESULT:      -7.2      3.140      5.924
REMARK  Name = 5327686
REMARK  3 active torsions:
REMARK  status: ('A' for Active; 'I' for Inactive)
REMARK    1  A    between atoms: C_4  and  C_10
REMARK    2  A    between atoms: C_5  and  C_23
REMARK    3  A    between atoms: C_17  and  N_21
REMARK                            x       y       z     vdW  Elec       q    Type
REMARK                         _______ _______ _______ _____ _____    ______ ____
ROOT
ATOM      1  O   UNL     1     -35.187  20.860   5.495  0.00  0.00    -0.270 OA
ATOM      2  O   UNL     1     -36.079  25.348   5.630  0.00  0.00    -0.270 OA
ATOM      3  N   UNL     1     -35.545  23.111   5.947  0.00  0.00    -0.248 N 
ATOM      4  C   UNL     1     -35.887  22.421   3.799  0.00  0.00    +0.059 C 
ATOM      5  C   UNL     1     -36.160  23.738   3.841  0.00  0.00    +0.059 C 
ATOM      6  C   UNL     1     -35.489  21.995   5.165  0.00  0.00    +0.252 C 
ATOM      7  C   UNL     1     -35.939  24.203   5.234  0.00  0.00    +0.252 C 
ATOM      8  H   UNL     1     -35.330  23.125   6.908  0.00  0.00    +0.158 HD
ENDROOT
BRANCH   4  10
ATOM      9  N   UNL     1     -35.351  19.997   1.189  0.00  0.00    -0.284 N 
ATOM     10  C   UNL     1     -35.961  21.511   2.698  0.00  0.00    +0.021 C 
ATOM     11  C   UNL     1     -37.085  21.225   1.871  0.00  0.00    +0.015 C 
ATOM     12  C   UNL     1     -36.676  20.272   0.934  0.00  0.00    +0.053 C 
ATOM     13  C   UNL     1     -34.910  20.740   2.252  0.00  0.00    +0.066 C 
ATOM     14  C   UNL     1     -38.416  21.686   1.831  0.00  0.00    +0.003 C 
ATOM     15  C   UNL     1     -37.534  19.757  -0.043  0.00  0.00    +0.039 C 
ATOM     16  C   UNL     1     -34.530  19.061   0.452  0.00  0.00    +0.117 C 
ATOM     17  C   UNL     1     -38.849  20.229  -0.063  0.00  0.00    +0.144 C 
ATOM     18  C   UNL     1     -39.286  21.178   0.859  0.00  0.00    +0.024 C 
BRANCH  17  21
ATOM     19  O   UNL     1     -39.952  18.498  -1.113  0.00  0.00    -0.126 OA
ATOM     20  O   UNL     1     -40.328  20.547  -1.803  0.00  0.00    -0.126 OA
ATOM     21  N   UNL     1     -39.753  19.734  -1.041  0.00  0.00    +0.058 N 
ENDBRANCH  17  21
ENDBRANCH   4  10
BRANCH   5  23
ATOM     22  N   UNL     1     -36.465  25.927   1.002  0.00  0.00    -0.284 N 
ATOM     23  C   UNL     1     -36.570  24.617   2.790  0.00  0.00    +0.021 C 
ATOM     24  C   UNL     1     -37.876  25.113   2.525  0.00  0.00    +0.015 C 
ATOM     25  C   UNL     1     -37.783  25.933   1.398  0.00  0.00    +0.052 C 
ATOM     26  C   UNL     1     -35.723  25.136   1.837  0.00  0.00    +0.066 C 
ATOM     27  C   UNL     1     -39.134  24.942   3.137  0.00  0.00    +0.001 C 
ATOM     28  C   UNL     1     -38.889  26.593   0.851  0.00  0.00    +0.015 C 
ATOM     29  C   UNL     1     -35.924  26.653  -0.127  0.00  0.00    +0.117 C 
ATOM     30  C   UNL     1     -40.249  25.597   2.601  0.00  0.00    +0.000 C 
ATOM     31  C   UNL     1     -40.126  26.409   1.475  0.00  0.00    +0.001 C 
ENDBRANCH   5  23
TORSDOF 3
ENDMDL
MODEL 8
REMARK VINA RESULT:      -7.2      3.425      7.968
REMARK  Name = 5327686
REMARK  3 active torsions:
REMARK  status: ('A' for Active; 'I' for Inactive)
REMARK    1  A    between atoms: C_4  and  C_10
REMARK    2  A    between atoms: C_5  and  C_23
REMARK    3  A    between atoms: C_17  and  N_21
REMARK                            x       y       z     vdW  Elec       q    Type
REMARK                         _______ _______ _______ _____ _____    ______ ____
ROOT
ATOM      1  O   UNL     1     -36.038  25.422   5.610  0.00  0.00    -0.270 OA
ATOM      2  O   UNL     1     -35.226  20.919   5.468  0.00  0.00    -0.270 OA
ATOM      3  N   UNL     1     -35.540  23.174   5.923  0.00  0.00    -0.248 N 
ATOM      4  C   UNL     1     -36.181  23.809   3.826  0.00  0.00    +0.059 C 
ATOM      5  C   UNL     1     -35.931  22.488   3.782  0.00  0.00    +0.059 C 
ATOM      6  C   UNL     1     -35.926  24.274   5.214  0.00  0.00    +0.252 C 
ATOM      7  C   UNL     1     -35.516  22.058   5.142  0.00  0.00    +0.252 C 
ATOM      8  H   UNL     1     -35.307  23.186   6.879  0.00  0.00    +0.158 HD
ENDROOT
BRANCH   4  10
ATOM      9  N   UNL     1     -36.497  26.008   0.992  0.00  0.00    -0.284 N 
ATOM     10  C   UNL     1     -36.594  24.693   2.781  0.00  0.00    +0.021 C 
ATOM     11  C   UNL     1     -37.900  25.202   2.528  0.00  0.00    +0.015 C 
ATOM     12  C   UNL     1     -37.812  26.022   1.400  0.00  0.00    +0.053 C 
ATOM     13  C   UNL     1     -35.754  25.209   1.818  0.00  0.00    +0.066 C 
ATOM     14  C   UNL     1     -39.153  25.040   3.151  0.00  0.00    +0.003 C 
ATOM     15  C   UNL     1     -38.917  26.691   0.865  0.00  0.00    +0.039 C 
ATOM     16  C   UNL     1     -35.962  26.727  -0.145  0.00  0.00    +0.117 C 
ATOM     17  C   UNL     1     -40.150  26.516   1.500  0.00  0.00    +0.144 C 
ATOM     18  C   UNL     1     -40.268  25.703   2.626  0.00  0.00    +0.024 C 
BRANCH  17  21
ATOM     19  O   UNL     1     -41.692  28.229   1.551  0.00  0.00    -0.126 OA
ATOM     20  O   UNL     1     -41.886  26.694  -0.006  0.00  0.00    -0.126 OA
ATOM     21  N   UNL     1     -41.298  27.179   0.990  0.00  0.00    +0.058 N 
ENDBRANCH  17  21
ENDBRANCH   4  10
BRANCH   5  23
ATOM     22  N   UNL     1     -35.480  20.062   1.163  0.00  0.00    -0.284 N 
ATOM     23  C   UNL     1     -36.040  21.577   2.685  0.00  0.00    +0.021 C 
ATOM     24  C   UNL     1     -37.188  21.297   1.893  0.00  0.00    +0.015 C 
ATOM     25  C   UNL     1     -36.809  20.342   0.946  0.00  0.00    +0.052 C 
ATOM     26  C   UNL     1     -35.005  20.803   2.212  0.00  0.00    +0.066 C 
ATOM     27  C   UNL     1     -38.518  21.764   1.892  0.00  0.00    +0.001 C 
ATOM     28  C   UNL     1     -37.697  19.831  -0.007  0.00  0.00    +0.015 C 
ATOM     29  C   UNL     1     -34.682  19.126   0.400  0.00  0.00    +0.117 C 
ATOM     30  C   UNL     1     -39.416  21.260   0.944  0.00  0.00    +0.000 C 
ATOM     31  C   UNL     1     -39.011  20.309   0.010  0.00  0.00    +0.001 C 
ENDBRANCH   5  23
TORSDOF 3
ENDMDL
MODEL 9
REMARK VINA RESULT:      -7.2      3.179      6.946
REMARK  Name = 5327686
REMARK  3 active torsions:
REMARK  status: ('A' for Active; 'I' for Inactive)
REMARK    1  A    between atoms: C_4  and  C_10
REMARK    2  A    between atoms: C_5  and  C_23
REMARK    3  A    between atoms: C_17  and  N_21
REMARK                            x       y       z     vdW  Elec       q    Type
REMARK                         _______ _______ _______ _____ _____    ______ ____
ROOT
ATOM      1  O   UNL     1     -38.843  19.814   0.077  0.00  0.00    -0.270 OA
ATOM      2  O   UNL     1     -34.800  19.852   2.225  0.00  0.00    -0.270 OA
ATOM      3  N   UNL     1     -36.814  19.439   1.144  0.00  0.00    -0.248 N 
ATOM      4  C   UNL     1     -37.442  21.613   0.855  0.00  0.00    +0.059 C 
ATOM      5  C   UNL     1     -36.259  21.624   1.496  0.00  0.00    +0.059 C 
ATOM      6  C   UNL     1     -37.820  20.196   0.621  0.00  0.00    +0.252 C 
ATOM      7  C   UNL     1     -35.835  20.214   1.690  0.00  0.00    +0.252 C 
ATOM      8  H   UNL     1     -36.797  18.454   1.130  0.00  0.00    +0.158 HD
ENDROOT
BRANCH   4  10
ATOM      9  N   UNL     1     -39.345  24.149  -0.854  0.00  0.00    -0.284 N 
ATOM     10  C   UNL     1     -38.269  22.708   0.452  0.00  0.00    +0.021 C 
ATOM     11  C   UNL     1     -38.981  23.621   1.283  0.00  0.00    +0.015 C 
ATOM     12  C   UNL     1     -39.647  24.513   0.439  0.00  0.00    +0.053 C 
ATOM     13  C   UNL     1     -38.514  23.061  -0.857  0.00  0.00    +0.066 C 
ATOM     14  C   UNL     1     -39.123  23.773   2.676  0.00  0.00    +0.003 C 
ATOM     15  C   UNL     1     -40.451  25.552   0.920  0.00  0.00    +0.039 C 
ATOM     16  C   UNL     1     -39.828  24.809  -2.048  0.00  0.00    +0.117 C 
ATOM     17  C   UNL     1     -40.576  25.683   2.306  0.00  0.00    +0.144 C 
ATOM     18  C   UNL     1     -39.924  24.808   3.173  0.00  0.00    +0.024 C 
BRANCH  17  21
ATOM     19  O   UNL     1     -41.632  27.725   2.123  0.00  0.00    -0.126 OA
ATOM     20  O   UNL     1     -41.818  26.618   4.009  0.00  0.00    -0.126 OA
ATOM     21  N   UNL     1     -41.381  26.726   2.839  0.00  0.00    +0.058 N 
ENDBRANCH  17  21
ENDBRANCH   4  10
BRANCH   5  23
ATOM     22  N   UNL     1     -34.078  24.462   1.864  0.00  0.00    -0.284 N 
ATOM     23  C   UNL     1     -35.469  22.734   1.931  0.00  0.00    +0.021 C 
ATOM     24  C   UNL     1     -35.345  23.255   3.248  0.00  0.00    +0.015 C 
ATOM     25  C   UNL     1     -34.466  24.339   3.178  0.00  0.00    +0.052 C 
ATOM     26  C   UNL     1     -34.678  23.496   1.102  0.00  0.00    +0.066 C 
ATOM     27  C   UNL     1     -35.898  22.910   4.497  0.00  0.00    +0.001 C 
ATOM     28  C   UNL     1     -34.111  25.096   4.301  0.00  0.00    +0.015 C 
ATOM     29  C   UNL     1     -33.164  25.457   1.347  0.00  0.00    +0.117 C 
ATOM     30  C   UNL     1     -35.551  23.658   5.628  0.00  0.00    +0.000 C 
ATOM     31  C   UNL     1     -34.671  24.735   5.529  0.00  0.00    +0.001 C 
ENDBRANCH   5  23
TORSDOF 3
ENDMDL
