MODEL 1
REMARK VINA RESULT:      -6.8      0.000      0.000
REMARK  Name = 2024
REMARK  4 active torsions:
REMARK  status: ('A' for Active; 'I' for Inactive)
REMARK    1  A    between atoms: P_1  and  O_22
REMARK    2  A    between atoms: C_8  and  N_10
REMARK    3  A    between atoms: C_9  and  C_24
REMARK    4  A    between atoms: C_24  and  O_25
REMARK                            x       y       z     vdW  Elec       q    Type
REMARK                         _______ _______ _______ _____ _____    ______ ____
ROOT
ATOM      1  P   UNL     1     -34.479  26.073   4.413  0.00  0.00    +0.477 P 
ATOM      2  O   UNL     1     -35.932  22.224   3.773  0.00  0.00    -0.333 OA
ATOM      3  O   UNL     1     -35.031  25.241   3.129  0.00  0.00    -0.269 OA
ATOM      4  O   UNL     1     -35.280  25.246   5.562  0.00  0.00    -0.271 OA
ATOM      5  O   UNL     1     -32.992  26.166   4.560  0.00  0.00    -0.227 OA
ATOM      6  C   UNL     1     -36.253  24.581   3.489  0.00  0.00    +0.203 C 
ATOM      7  C   UNL     1     -36.102  24.247   4.964  0.00  0.00    +0.187 C 
ATOM      8  C   UNL     1     -36.338  23.220   2.812  0.00  0.00    +0.226 C 
ATOM      9  C   UNL     1     -35.407  22.898   4.928  0.00  0.00    +0.176 C 
ENDROOT
BRANCH   8  10
ATOM     10  N   UNL     1     -37.678  22.891   2.330  0.00  0.00    -0.247 N 
ATOM     11  N   UNL     1     -39.892  23.011   2.077  0.00  0.00    -0.242 NA
ATOM     12  N   UNL     1     -37.194  21.017   0.862  0.00  0.00    -0.228 NA
ATOM     13  N   UNL     1     -39.227  20.152  -0.174  0.00  0.00    -0.229 NA
ATOM     14  C   UNL     1     -38.016  21.896   1.455  0.00  0.00    +0.152 C 
ATOM     15  C   UNL     1     -38.841  23.532   2.674  0.00  0.00    +0.223 C 
ATOM     16  C   UNL     1     -39.390  21.987   1.312  0.00  0.00    +0.140 C 
ATOM     17  C   UNL     1     -39.997  21.071   0.460  0.00  0.00    +0.143 C 
ATOM     18  C   UNL     1     -37.893  20.182   0.063  0.00  0.00    +0.253 C 
ATOM     19  N   UNL     1     -41.387  21.091   0.254  0.00  0.00    -0.342 N 
ATOM     20  H   UNL     1     -41.805  20.437  -0.352  0.00  0.00    +0.144 HD
ATOM     21  H   UNL     1     -41.943  21.759   0.715  0.00  0.00    +0.144 HD
ENDBRANCH   8  10
BRANCH   1  22
ATOM     22  O   UNL     1     -35.282  27.474   4.329  0.00  0.00    -0.302 OA
ATOM     23  H   UNL     1     -34.995  28.054   5.051  0.00  0.00    +0.222 HD
ENDBRANCH   1  22
BRANCH   9  24
ATOM     24  C   UNL     1     -35.658  22.061   6.168  0.00  0.00    +0.169 C 
BRANCH  24  25
ATOM     25  O   UNL     1     -35.352  20.709   5.875  0.00  0.00    -0.379 OA
ATOM     26  H   UNL     1     -34.530  20.458   6.325  0.00  0.00    +0.211 HD
ENDBRANCH  24  25
ENDBRANCH   9  24
TORSDOF 4
ENDMDL
MODEL 2
REMARK VINA RESULT:      -6.6      4.690      7.450
REMARK  Name = 2024
REMARK  4 active torsions:
REMARK  status: ('A' for Active; 'I' for Inactive)
REMARK    1  A    between atoms: P_1  and  O_22
REMARK    2  A    between atoms: C_8  and  N_10
REMARK    3  A    between atoms: C_9  and  C_24
REMARK    4  A    between atoms: C_24  and  O_25
REMARK                            x       y       z     vdW  Elec       q    Type
REMARK                         _______ _______ _______ _____ _____    ______ ____
ROOT
ATOM      1  P   UNL     1     -36.123  21.861   2.626  0.00  0.00    +0.477 P 
ATOM      2  O   UNL     1     -35.928  26.009   2.918  0.00  0.00    -0.333 OA
ATOM      3  O   UNL     1     -34.930  22.965   2.656  0.00  0.00    -0.269 OA
ATOM      4  O   UNL     1     -37.235  22.727   3.438  0.00  0.00    -0.271 OA
ATOM      5  O   UNL     1     -36.522  21.344   1.278  0.00  0.00    -0.227 OA
ATOM      6  C   UNL     1     -35.171  23.887   3.730  0.00  0.00    +0.203 C 
ATOM      7  C   UNL     1     -36.685  23.980   3.837  0.00  0.00    +0.187 C 
ATOM      8  C   UNL     1     -34.746  25.292   3.327  0.00  0.00    +0.226 C 
ATOM      9  C   UNL     1     -37.019  25.079   2.845  0.00  0.00    +0.176 C 
ENDROOT
BRANCH   8  10
ATOM     10  N   UNL     1     -34.092  26.033   4.403  0.00  0.00    -0.247 N 
ATOM     11  N   UNL     1     -33.562  26.672   6.475  0.00  0.00    -0.242 NA
ATOM     12  N   UNL     1     -32.667  27.534   3.131  0.00  0.00    -0.228 NA
ATOM     13  N   UNL     1     -31.367  28.985   4.600  0.00  0.00    -0.229 NA
ATOM     14  C   UNL     1     -33.165  27.030   4.269  0.00  0.00    +0.152 C 
ATOM     15  C   UNL     1     -34.297  25.856   5.748  0.00  0.00    +0.223 C 
ATOM     16  C   UNL     1     -32.851  27.411   5.563  0.00  0.00    +0.140 C 
ATOM     17  C   UNL     1     -31.913  28.428   5.710  0.00  0.00    +0.143 C 
ATOM     18  C   UNL     1     -31.772  28.509   3.398  0.00  0.00    +0.253 C 
ATOM     19  N   UNL     1     -31.533  28.878   6.985  0.00  0.00    -0.342 N 
ATOM     20  H   UNL     1     -30.868  29.598   7.077  0.00  0.00    +0.144 HD
ATOM     21  H   UNL     1     -31.931  28.471   7.789  0.00  0.00    +0.144 HD
ENDBRANCH   8  10
BRANCH   1  22
ATOM     22  O   UNL     1     -35.644  20.757   3.705  0.00  0.00    -0.302 OA
ATOM     23  H   UNL     1     -35.123  21.189   4.400  0.00  0.00    +0.222 HD
ENDBRANCH   1  22
BRANCH   9  24
ATOM     24  C   UNL     1     -38.322  25.792   3.157  0.00  0.00    +0.169 C 
BRANCH  24  25
ATOM     25  O   UNL     1     -39.133  24.934   3.941  0.00  0.00    -0.379 OA
ATOM     26  H   UNL     1     -39.744  24.450   3.365  0.00  0.00    +0.211 HD
ENDBRANCH  24  25
ENDBRANCH   9  24
TORSDOF 4
ENDMDL
MODEL 3
REMARK VINA RESULT:      -6.4      4.477      6.643
REMARK  Name = 2024
REMARK  4 active torsions:
REMARK  status: ('A' for Active; 'I' for Inactive)
REMARK    1  A    between atoms: P_1  and  O_22
REMARK    2  A    between atoms: C_8  and  N_10
REMARK    3  A    between atoms: C_9  and  C_24
REMARK    4  A    between atoms: C_24  and  O_25
REMARK                            x       y       z     vdW  Elec       q    Type
REMARK                         _______ _______ _______ _____ _____    ______ ____
ROOT
ATOM      1  P   UNL     1     -37.208  22.483   2.143  0.00  0.00    +0.477 P 
ATOM      2  O   UNL     1     -35.855  24.255   5.659  0.00  0.00    -0.333 OA
ATOM      3  O   UNL     1     -37.119  24.002   2.714  0.00  0.00    -0.269 OA
ATOM      4  O   UNL     1     -35.990  21.854   3.018  0.00  0.00    -0.271 OA
ATOM      5  O   UNL     1     -38.539  21.805   2.254  0.00  0.00    -0.227 OA
ATOM      6  C   UNL     1     -35.810  24.220   3.264  0.00  0.00    +0.203 C 
ATOM      7  C   UNL     1     -35.385  22.868   3.816  0.00  0.00    +0.187 C 
ATOM      8  C   UNL     1     -35.895  25.108   4.497  0.00  0.00    +0.226 C 
ATOM      9  C   UNL     1     -35.958  22.891   5.222  0.00  0.00    +0.176 C 
ENDROOT
BRANCH   8  10
ATOM     10  N   UNL     1     -34.811  26.083   4.589  0.00  0.00    -0.247 N 
ATOM     11  N   UNL     1     -33.014  27.136   5.390  0.00  0.00    -0.242 NA
ATOM     12  N   UNL     1     -35.215  27.413   2.596  0.00  0.00    -0.228 NA
ATOM     13  N   UNL     1     -33.570  29.202   2.373  0.00  0.00    -0.229 NA
ATOM     14  C   UNL     1     -34.542  27.099   3.713  0.00  0.00    +0.152 C 
ATOM     15  C   UNL     1     -33.864  26.148   5.579  0.00  0.00    +0.223 C 
ATOM     16  C   UNL     1     -33.426  27.738   4.228  0.00  0.00    +0.140 C 
ATOM     17  C   UNL     1     -32.940  28.828   3.513  0.00  0.00    +0.143 C 
ATOM     18  C   UNL     1     -34.652  28.481   1.990  0.00  0.00    +0.253 C 
ATOM     19  N   UNL     1     -31.811  29.535   3.960  0.00  0.00    -0.342 N 
ATOM     20  H   UNL     1     -31.475  30.304   3.446  0.00  0.00    +0.144 HD
ATOM     21  H   UNL     1     -31.355  29.261   4.789  0.00  0.00    +0.144 HD
ENDBRANCH   8  10
BRANCH   1  22
ATOM     22  O   UNL     1     -36.584  22.600   0.657  0.00  0.00    -0.302 OA
ATOM     23  H   UNL     1     -37.124  23.206   0.127  0.00  0.00    +0.222 HD
ENDBRANCH   1  22
BRANCH   9  24
ATOM     24  C   UNL     1     -35.214  21.986   6.186  0.00  0.00    +0.169 C 
BRANCH  24  25
ATOM     25  O   UNL     1     -35.216  20.668   5.665  0.00  0.00    -0.379 OA
ATOM     26  H   UNL     1     -36.126  20.336   5.626  0.00  0.00    +0.211 HD
ENDBRANCH  24  25
ENDBRANCH   9  24
TORSDOF 4
ENDMDL
MODEL 4
REMARK VINA RESULT:      -6.3      0.973      1.146
REMARK  Name = 2024
REMARK  4 active torsions:
REMARK  status: ('A' for Active; 'I' for Inactive)
REMARK    1  A    between atoms: P_1  and  O_22
REMARK    2  A    between atoms: C_8  and  N_10
REMARK    3  A    between atoms: C_9  and  C_24
REMARK    4  A    between atoms: C_24  and  O_25
REMARK                            x       y       z     vdW  Elec       q    Type
REMARK                         _______ _______ _______ _____ _____    ______ ____
ROOT
ATOM      1  P   UNL     1     -34.497  26.173   4.673  0.00  0.00    +0.477 P 
ATOM      2  O   UNL     1     -35.271  22.149   3.942  0.00  0.00    -0.333 OA
ATOM      3  O   UNL     1     -34.639  25.244   3.347  0.00  0.00    -0.269 OA
ATOM      4  O   UNL     1     -35.421  25.274   5.664  0.00  0.00    -0.271 OA
ATOM      5  O   UNL     1     -33.103  26.471   5.133  0.00  0.00    -0.227 OA
ATOM      6  C   UNL     1     -35.817  24.432   3.468  0.00  0.00    +0.203 C 
ATOM      7  C   UNL     1     -35.956  24.159   4.957  0.00  0.00    +0.187 C 
ATOM      8  C   UNL     1     -35.576  23.056   2.863  0.00  0.00    +0.226 C 
ATOM      9  C   UNL     1     -35.105  22.915   5.144  0.00  0.00    +0.176 C 
ENDROOT
BRANCH   8  10
ATOM     10  N   UNL     1     -36.723  22.537   2.120  0.00  0.00    -0.247 N 
ATOM     11  N   UNL     1     -38.805  22.393   1.330  0.00  0.00    -0.242 NA
ATOM     12  N   UNL     1     -35.744  20.579   1.067  0.00  0.00    -0.228 NA
ATOM     13  N   UNL     1     -37.379  19.397  -0.306  0.00  0.00    -0.229 NA
ATOM     14  C   UNL     1     -36.753  21.424   1.326  0.00  0.00    +0.152 C 
ATOM     15  C   UNL     1     -37.981  23.084   2.090  0.00  0.00    +0.223 C 
ATOM     16  C   UNL     1     -38.051  21.353   0.847  0.00  0.00    +0.140 C 
ATOM     17  C   UNL     1     -38.351  20.291   0.001  0.00  0.00    +0.143 C 
ATOM     18  C   UNL     1     -36.154  19.595   0.238  0.00  0.00    +0.253 C 
ATOM     19  N   UNL     1     -39.642  20.141  -0.534  0.00  0.00    -0.342 N 
ATOM     20  H   UNL     1     -39.844  19.386  -1.132  0.00  0.00    +0.144 HD
ATOM     21  H   UNL     1     -40.346  20.792  -0.310  0.00  0.00    +0.144 HD
ENDBRANCH   8  10
BRANCH   1  22
ATOM     22  O   UNL     1     -35.432  27.450   4.342  0.00  0.00    -0.302 OA
ATOM     23  H   UNL     1     -35.538  27.532   3.381  0.00  0.00    +0.222 HD
ENDBRANCH   1  22
BRANCH   9  24
ATOM     24  C   UNL     1     -35.517  22.083   6.344  0.00  0.00    +0.169 C 
BRANCH  24  25
ATOM     25  O   UNL     1     -35.505  20.715   5.975  0.00  0.00    -0.379 OA
ATOM     26  H   UNL     1     -34.672  20.508   5.524  0.00  0.00    +0.211 HD
ENDBRANCH  24  25
ENDBRANCH   9  24
TORSDOF 4
ENDMDL
MODEL 5
REMARK VINA RESULT:      -6.2      3.825      5.657
REMARK  Name = 2024
REMARK  4 active torsions:
REMARK  status: ('A' for Active; 'I' for Inactive)
REMARK    1  A    between atoms: P_1  and  O_22
REMARK    2  A    between atoms: C_8  and  N_10
REMARK    3  A    between atoms: C_9  and  C_24
REMARK    4  A    between atoms: C_24  and  O_25
REMARK                            x       y       z     vdW  Elec       q    Type
REMARK                         _______ _______ _______ _____ _____    ______ ____
ROOT
ATOM      1  P   UNL     1     -31.755  28.383   6.179  0.00  0.00    +0.477 P 
ATOM      2  O   UNL     1     -34.865  27.654   3.508  0.00  0.00    -0.333 OA
ATOM      3  O   UNL     1     -33.083  27.445   6.175  0.00  0.00    -0.269 OA
ATOM      4  O   UNL     1     -31.554  28.472   4.568  0.00  0.00    -0.271 OA
ATOM      5  O   UNL     1     -31.855  29.680   6.920  0.00  0.00    -0.227 OA
ATOM      6  C   UNL     1     -33.160  26.745   4.924  0.00  0.00    +0.203 C 
ATOM      7  C   UNL     1     -32.545  27.691   3.905  0.00  0.00    +0.187 C 
ATOM      8  C   UNL     1     -34.609  26.617   4.477  0.00  0.00    +0.226 C 
ATOM      9  C   UNL     1     -33.733  28.538   3.482  0.00  0.00    +0.176 C 
ENDROOT
BRANCH   8  10
ATOM     10  N   UNL     1     -34.921  25.322   3.877  0.00  0.00    -0.247 N 
ATOM     11  N   UNL     1     -35.383  23.809   2.303  0.00  0.00    -0.242 NA
ATOM     12  N   UNL     1     -34.971  23.900   5.846  0.00  0.00    -0.228 NA
ATOM     13  N   UNL     1     -35.473  21.585   5.258  0.00  0.00    -0.229 NA
ATOM     14  C   UNL     1     -35.073  24.129   4.528  0.00  0.00    +0.152 C 
ATOM     15  C   UNL     1     -35.118  25.076   2.542  0.00  0.00    +0.223 C 
ATOM     16  C   UNL     1     -35.359  23.206   3.536  0.00  0.00    +0.140 C 
ATOM     17  C   UNL     1     -35.562  21.890   3.940  0.00  0.00    +0.143 C 
ATOM     18  C   UNL     1     -35.186  22.594   6.116  0.00  0.00    +0.253 C 
ATOM     19  N   UNL     1     -35.854  20.887   3.001  0.00  0.00    -0.342 N 
ATOM     20  H   UNL     1     -35.996  19.959   3.298  0.00  0.00    +0.144 HD
ATOM     21  H   UNL     1     -35.918  21.112   2.044  0.00  0.00    +0.144 HD
ENDBRANCH   8  10
BRANCH   1  22
ATOM     22  O   UNL     1     -30.582  27.375   6.650  0.00  0.00    -0.302 OA
ATOM     23  H   UNL     1     -29.979  27.841   7.250  0.00  0.00    +0.222 HD
ENDBRANCH   1  22
BRANCH   9  24
ATOM     24  C   UNL     1     -33.580  29.134   2.095  0.00  0.00    +0.169 C 
BRANCH  24  25
ATOM     25  O   UNL     1     -32.208  29.111   1.740  0.00  0.00    -0.379 OA
ATOM     26  H   UNL     1     -31.680  28.827   2.501  0.00  0.00    +0.211 HD
ENDBRANCH  24  25
ENDBRANCH   9  24
TORSDOF 4
ENDMDL
MODEL 6
REMARK VINA RESULT:      -6.0      4.885      7.317
REMARK  Name = 2024
REMARK  4 active torsions:
REMARK  status: ('A' for Active; 'I' for Inactive)
REMARK    1  A    between atoms: P_1  and  O_22
REMARK    2  A    between atoms: C_8  and  N_10
REMARK    3  A    between atoms: C_9  and  C_24
REMARK    4  A    between atoms: C_24  and  O_25
REMARK                            x       y       z     vdW  Elec       q    Type
REMARK                         _______ _______ _______ _____ _____    ______ ____
ROOT
ATOM      1  P   UNL     1     -38.503  24.657   3.027  0.00  0.00    +0.477 P 
ATOM      2  O   UNL     1     -35.151  25.542   5.331  0.00  0.00    -0.333 OA
ATOM      3  O   UNL     1     -37.580  25.972   3.270  0.00  0.00    -0.269 OA
ATOM      4  O   UNL     1     -37.381  23.538   3.390  0.00  0.00    -0.271 OA
ATOM      5  O   UNL     1     -39.791  24.594   3.790  0.00  0.00    -0.227 OA
ATOM      6  C   UNL     1     -36.197  25.598   3.177  0.00  0.00    +0.203 C 
ATOM      7  C   UNL     1     -36.140  24.169   3.694  0.00  0.00    +0.187 C 
ATOM      8  C   UNL     1     -35.367  26.385   4.181  0.00  0.00    +0.226 C 
ATOM      9  C   UNL     1     -35.964  24.367   5.190  0.00  0.00    +0.176 C 
ENDROOT
BRANCH   8  10
ATOM     10  N   UNL     1     -34.070  26.811   3.657  0.00  0.00    -0.247 N 
ATOM     11  N   UNL     1     -32.442  27.201   2.182  0.00  0.00    -0.242 NA
ATOM     12  N   UNL     1     -32.992  27.606   5.684  0.00  0.00    -0.228 NA
ATOM     13  N   UNL     1     -30.741  28.429   5.229  0.00  0.00    -0.229 NA
ATOM     14  C   UNL     1     -33.036  27.354   4.367  0.00  0.00    +0.152 C 
ATOM     15  C   UNL     1     -33.664  26.739   2.349  0.00  0.00    +0.223 C 
ATOM     16  C   UNL     1     -32.037  27.588   3.436  0.00  0.00    +0.140 C 
ATOM     17  C   UNL     1     -30.855  28.148   3.908  0.00  0.00    +0.143 C 
ATOM     18  C   UNL     1     -31.801  28.146   6.023  0.00  0.00    +0.253 C 
ATOM     19  N   UNL     1     -29.790  28.421   3.033  0.00  0.00    -0.342 N 
ATOM     20  H   UNL     1     -28.957  28.817   3.378  0.00  0.00    +0.144 HD
ATOM     21  H   UNL     1     -29.876  28.216   2.074  0.00  0.00    +0.144 HD
ENDBRANCH   8  10
BRANCH   1  22
ATOM     22  O   UNL     1     -38.618  24.567   1.417  0.00  0.00    -0.302 OA
ATOM     23  H   UNL     1     -39.150  23.794   1.174  0.00  0.00    +0.222 HD
ENDBRANCH   1  22
BRANCH   9  24
ATOM     24  C   UNL     1     -35.292  23.192   5.874  0.00  0.00    +0.169 C 
BRANCH  24  25
ATOM     25  O   UNL     1     -36.193  22.099   5.892  0.00  0.00    -0.379 OA
ATOM     26  H   UNL     1     -36.666  22.082   6.738  0.00  0.00    +0.211 HD
ENDBRANCH  24  25
ENDBRANCH   9  24
TORSDOF 4
ENDMDL
MODEL 7
REMARK VINA RESULT:      -6.0      3.683      5.156
REMARK  Name = 2024
REMARK  4 active torsions:
REMARK  status: ('A' for Active; 'I' for Inactive)
REMARK    1  A    between atoms: P_1  and  O_22
REMARK    2  A    between atoms: C_8  and  N_10
REMARK    3  A    between atoms: C_9  and  C_24
REMARK    4  A    between atoms: C_24  and  O_25
REMARK                            x       y       z     vdW  Elec       q    Type
REMARK                         _______ _______ _______ _____ _____    ______ ____
ROOT
ATOM      1  P   UNL     1     -35.623  22.377   5.375  0.00  0.00    +0.477 P 
ATOM      2  O   UNL     1     -35.826  26.510   4.919  0.00  0.00    -0.333 OA
ATOM      3  O   UNL     1     -36.673  23.418   4.699  0.00  0.00    -0.269 OA
ATOM      4  O   UNL     1     -34.292  23.302   5.241  0.00  0.00    -0.271 OA
ATOM      5  O   UNL     1     -35.965  21.879   6.745  0.00  0.00    -0.227 OA
ATOM      6  C   UNL     1     -35.948  24.353   3.885  0.00  0.00    +0.203 C 
ATOM      7  C   UNL     1     -34.608  24.525   4.582  0.00  0.00    +0.187 C 
ATOM      8  C   UNL     1     -36.585  25.733   3.971  0.00  0.00    +0.226 C 
ATOM      9  C   UNL     1     -34.893  25.638   5.575  0.00  0.00    +0.176 C 
ENDROOT
BRANCH   8  10
ATOM     10  N   UNL     1     -36.613  26.442   2.693  0.00  0.00    -0.247 N 
ATOM     11  N   UNL     1     -35.875  27.587   0.926  0.00  0.00    -0.242 NA
ATOM     12  N   UNL     1     -38.966  26.263   2.117  0.00  0.00    -0.228 NA
ATOM     13  N   UNL     1     -39.445  27.352  -0.013  0.00  0.00    -0.229 NA
ATOM     14  C   UNL     1     -37.703  26.655   1.895  0.00  0.00    +0.152 C 
ATOM     15  C   UNL     1     -35.539  27.022   2.067  0.00  0.00    +0.223 C 
ATOM     16  C   UNL     1     -37.224  27.366   0.807  0.00  0.00    +0.140 C 
ATOM     17  C   UNL     1     -38.148  27.716  -0.172  0.00  0.00    +0.143 C 
ATOM     18  C   UNL     1     -39.768  26.658   1.104  0.00  0.00    +0.253 C 
ATOM     19  N   UNL     1     -37.751  28.436  -1.311  0.00  0.00    -0.342 N 
ATOM     20  H   UNL     1     -38.414  28.678  -1.998  0.00  0.00    +0.144 HD
ATOM     21  H   UNL     1     -36.809  28.698  -1.423  0.00  0.00    +0.144 HD
ENDBRANCH   8  10
BRANCH   1  22
ATOM     22  O   UNL     1     -35.417  21.252   4.233  0.00  0.00    -0.302 OA
ATOM     23  H   UNL     1     -35.296  20.386   4.652  0.00  0.00    +0.222 HD
ENDBRANCH   1  22
BRANCH   9  24
ATOM     24  C   UNL     1     -33.653  26.418   5.971  0.00  0.00    +0.169 C 
BRANCH  24  25
ATOM     25  O   UNL     1     -32.878  26.662   4.809  0.00  0.00    -0.379 OA
ATOM     26  H   UNL     1     -32.825  25.851   4.279  0.00  0.00    +0.211 HD
ENDBRANCH  24  25
ENDBRANCH   9  24
TORSDOF 4
ENDMDL
MODEL 8
REMARK VINA RESULT:      -6.0      2.166      3.090
REMARK  Name = 2024
REMARK  4 active torsions:
REMARK  status: ('A' for Active; 'I' for Inactive)
REMARK    1  A    between atoms: P_1  and  O_22
REMARK    2  A    between atoms: C_8  and  N_10
REMARK    3  A    between atoms: C_9  and  C_24
REMARK    4  A    between atoms: C_24  and  O_25
REMARK                            x       y       z     vdW  Elec       q    Type
REMARK                         _______ _______ _______ _____ _____    ______ ____
ROOT
ATOM      1  P   UNL     1     -34.800  25.333   4.784  0.00  0.00    +0.477 P 
ATOM      2  O   UNL     1     -36.440  22.831   1.888  0.00  0.00    -0.333 OA
ATOM      3  O   UNL     1     -35.741  25.538   3.474  0.00  0.00    -0.269 OA
ATOM      4  O   UNL     1     -35.210  23.791   5.101  0.00  0.00    -0.271 OA
ATOM      5  O   UNL     1     -33.341  25.622   4.611  0.00  0.00    -0.227 OA
ATOM      6  C   UNL     1     -36.798  24.567   3.499  0.00  0.00    +0.203 C 
ATOM      7  C   UNL     1     -36.195  23.345   4.172  0.00  0.00    +0.187 C 
ATOM      8  C   UNL     1     -37.113  24.091   2.088  0.00  0.00    +0.226 C 
ATOM      9  C   UNL     1     -35.567  22.602   3.005  0.00  0.00    +0.176 C 
ENDROOT
BRANCH   8  10
ATOM     10  N   UNL     1     -38.541  23.908   1.840  0.00  0.00    -0.247 N 
ATOM     11  N   UNL     1     -40.513  22.878   1.662  0.00  0.00    -0.242 NA
ATOM     12  N   UNL     1     -39.197  26.165   1.229  0.00  0.00    -0.228 NA
ATOM     13  N   UNL     1     -41.581  26.293   0.724  0.00  0.00    -0.229 NA
ATOM     14  C   UNL     1     -39.438  24.866   1.457  0.00  0.00    +0.152 C 
ATOM     15  C   UNL     1     -39.236  22.730   1.949  0.00  0.00    +0.223 C 
ATOM     16  C   UNL     1     -40.653  24.208   1.353  0.00  0.00    +0.140 C 
ATOM     17  C   UNL     1     -41.751  24.971   0.971  0.00  0.00    +0.143 C 
ATOM     18  C   UNL     1     -40.333  26.800   0.867  0.00  0.00    +0.253 C 
ATOM     19  N   UNL     1     -43.022  24.386   0.842  0.00  0.00    -0.342 N 
ATOM     20  H   UNL     1     -43.793  24.936   0.571  0.00  0.00    +0.144 HD
ATOM     21  H   UNL     1     -43.143  23.426   1.022  0.00  0.00    +0.144 HD
ENDBRANCH   8  10
BRANCH   1  22
ATOM     22  O   UNL     1     -35.566  26.170   5.935  0.00  0.00    -0.302 OA
ATOM     23  H   UNL     1     -36.245  26.731   5.528  0.00  0.00    +0.222 HD
ENDBRANCH   1  22
BRANCH   9  24
ATOM     24  C   UNL     1     -35.427  21.111   3.250  0.00  0.00    +0.169 C 
BRANCH  24  25
ATOM     25  O   UNL     1     -35.362  20.884   4.647  0.00  0.00    -0.379 OA
ATOM     26  H   UNL     1     -36.141  21.270   5.075  0.00  0.00    +0.211 HD
ENDBRANCH  24  25
ENDBRANCH   9  24
TORSDOF 4
ENDMDL
MODEL 9
REMARK VINA RESULT:      -5.9      2.107      3.505
REMARK  Name = 2024
REMARK  4 active torsions:
REMARK  status: ('A' for Active; 'I' for Inactive)
REMARK    1  A    between atoms: P_1  and  O_22
REMARK    2  A    between atoms: C_8  and  N_10
REMARK    3  A    between atoms: C_9  and  C_24
REMARK    4  A    between atoms: C_24  and  O_25
REMARK                            x       y       z     vdW  Elec       q    Type
REMARK                         _______ _______ _______ _____ _____    ______ ____
ROOT
ATOM      1  P   UNL     1     -34.250  25.404   4.349  0.00  0.00    +0.477 P 
ATOM      2  O   UNL     1     -37.782  23.341   3.574  0.00  0.00    -0.333 OA
ATOM      3  O   UNL     1     -34.684  23.839   4.268  0.00  0.00    -0.269 OA
ATOM      4  O   UNL     1     -35.402  25.995   3.365  0.00  0.00    -0.271 OA
ATOM      5  O   UNL     1     -34.159  26.002   5.719  0.00  0.00    -0.227 OA
ATOM      6  C   UNL     1     -35.457  23.628   3.077  0.00  0.00    +0.203 C 
ATOM      7  C   UNL     1     -36.205  24.933   2.856  0.00  0.00    +0.187 C 
ATOM      8  C   UNL     1     -36.561  22.613   3.335  0.00  0.00    +0.226 C 
ATOM      9  C   UNL     1     -37.463  24.737   3.684  0.00  0.00    +0.176 C 
ENDROOT
BRANCH   8  10
ATOM     10  N   UNL     1     -36.773  21.687   2.225  0.00  0.00    -0.247 N 
ATOM     11  N   UNL     1     -37.790  20.681   0.512  0.00  0.00    -0.242 NA
ATOM     12  N   UNL     1     -34.687  20.442   2.257  0.00  0.00    -0.228 NA
ATOM     13  N   UNL     1     -34.637  18.746   0.503  0.00  0.00    -0.229 NA
ATOM     14  C   UNL     1     -35.905  20.730   1.775  0.00  0.00    +0.152 C 
ATOM     15  C   UNL     1     -37.891  21.616   1.433  0.00  0.00    +0.223 C 
ATOM     16  C   UNL     1     -36.554  20.119   0.715  0.00  0.00    +0.140 C 
ATOM     17  C   UNL     1     -35.874  19.092   0.069  0.00  0.00    +0.143 C 
ATOM     18  C   UNL     1     -34.128  19.433   1.554  0.00  0.00    +0.253 C 
ATOM     19  N   UNL     1     -36.455  18.417  -1.017  0.00  0.00    -0.342 N 
ATOM     20  H   UNL     1     -35.965  17.691  -1.467  0.00  0.00    +0.144 HD
ATOM     21  H   UNL     1     -37.354  18.670  -1.330  0.00  0.00    +0.144 HD
ENDBRANCH   8  10
BRANCH   1  22
ATOM     22  O   UNL     1     -32.911  25.473   3.446  0.00  0.00    -0.302 OA
ATOM     23  H   UNL     1     -32.931  24.765   2.784  0.00  0.00    +0.222 HD
ENDBRANCH   1  22
BRANCH   9  24
ATOM     24  C   UNL     1     -38.634  25.571   3.201  0.00  0.00    +0.169 C 
BRANCH  24  25
ATOM     25  O   UNL     1     -38.133  26.721   2.542  0.00  0.00    -0.379 OA
ATOM     26  H   UNL     1     -38.761  27.453   2.643  0.00  0.00    +0.211 HD
ENDBRANCH  24  25
ENDBRANCH   9  24
TORSDOF 4
ENDMDL
