MODEL 1
REMARK VINA RESULT:      -6.7      0.000      0.000
REMARK  Name = 54282370
REMARK  8 active torsions:
REMARK  status: ('A' for Active; 'I' for Inactive)
REMARK    1  A    between atoms: N_1  and  C1*_12
REMARK    2  A    between atoms: C2*_11  and  O2*_15
REMARK    3  A    between atoms: C3*_13  and  O3*_17
REMARK    4  A    between atoms: C4*_14  and  C5*_19
REMARK    5  A    between atoms: C5*_19  and  O5*_20
REMARK    6  A    between atoms: N_22  and  C_24
REMARK    7  A    between atoms: C_24  and  C_25
REMARK    8  A    between atoms: C_24  and  C_31
REMARK                            x       y       z     vdW  Elec       q    Type
REMARK                         _______ _______ _______ _____ _____    ______ ____
ROOT
ATOM      1  N   UNL     1     -31.272  28.455   3.850  0.00  0.00    -0.247 N 
ATOM      2  N   UNL     1     -32.936  27.547   2.678  0.00  0.00    -0.242 NA
ATOM      3  N   UNL     1     -31.918  27.773   6.091  0.00  0.00    -0.228 NA
ATOM      4  N   UNL     1     -33.982  26.472   6.060  0.00  0.00    -0.228 NA
ATOM      5  C   UNL     1     -32.079  27.835   4.760  0.00  0.00    +0.152 C 
ATOM      6  C   UNL     1     -31.828  28.255   2.615  0.00  0.00    +0.223 C 
ATOM      7  C   UNL     1     -33.105  27.277   4.013  0.00  0.00    +0.140 C 
ATOM      8  C   UNL     1     -34.081  26.575   4.713  0.00  0.00    +0.146 C 
ATOM      9  C   UNL     1     -32.922  27.070   6.656  0.00  0.00    +0.253 C 
ATOM     10  N   UNL     1     -35.159  25.977   4.036  0.00  0.00    -0.315 N 
ATOM     11  H   UNL     1     -35.205  26.066   3.056  0.00  0.00    +0.148 HD
ENDROOT
BRANCH   1  14
ATOM     12  O4* UNL     1     -29.007  28.378   4.756  0.00  0.00    -0.333 OA
ATOM     13  C2* UNL     1     -30.215  30.385   5.102  0.00  0.00    +0.187 C 
ATOM     14  C1* UNL     1     -30.002  29.221   4.139  0.00  0.00    +0.225 C 
ATOM     15  C3* UNL     1     -28.834  30.552   5.703  0.00  0.00    +0.171 C 
ATOM     16  C4* UNL     1     -28.358  29.110   5.822  0.00  0.00    +0.175 C 
BRANCH  13  17
ATOM     17  O2* UNL     1     -30.684  31.553   4.460  0.00  0.00    -0.378 OA
ATOM     18  H2* UNL     1     -30.758  31.391   3.507  0.00  0.00    +0.211 HD
ENDBRANCH  13  17
BRANCH  15  19
ATOM     19  O3* UNL     1     -27.971  31.226   4.787  0.00  0.00    -0.379 OA
ATOM     20  H3* UNL     1     -27.365  30.585   4.383  0.00  0.00    +0.211 HD
ENDBRANCH  15  19
BRANCH  16  21
ATOM     21  C5* UNL     1     -28.740  28.462   7.146  0.00  0.00    +0.169 C 
BRANCH  21  22
ATOM     22  O5* UNL     1     -29.175  27.137   6.894  0.00  0.00    -0.379 OA
ATOM     23  H5* UNL     1     -29.293  26.670   7.736  0.00  0.00    +0.211 HD
ENDBRANCH  21  22
ENDBRANCH  16  21
ENDBRANCH   1  14
BRANCH  10  24
ATOM     24  C   UNL     1     -36.191  25.242   4.705  0.00  0.00    +0.093 C 
BRANCH  24  25
ATOM     25  C   UNL     1     -35.792  23.784   4.804  0.00  0.00    -0.005 C 
ATOM     26  C   UNL     1     -35.794  22.981   3.663  0.00  0.00    -0.003 C 
ATOM     27  C   UNL     1     -35.425  23.243   6.036  0.00  0.00    -0.003 C 
ATOM     28  C   UNL     1     -35.427  21.639   3.753  0.00  0.00    -0.000 C 
ATOM     29  C   UNL     1     -35.058  21.901   6.127  0.00  0.00    -0.000 C 
ATOM     30  C   UNL     1     -35.060  21.098   4.986  0.00  0.00    -0.000 C 
ENDBRANCH  24  25
BRANCH  24  31
ATOM     31  C   UNL     1     -37.533  25.428   3.979  0.00  0.00    +0.024 C 
ATOM     32  C   UNL     1     -37.375  26.106   2.623  0.00  0.00    +0.002 C 
ENDBRANCH  24  31
ENDBRANCH  10  24
TORSDOF 8
ENDMDL
MODEL 2
REMARK VINA RESULT:      -6.6      3.430      8.244
REMARK  Name = 54282370
REMARK  8 active torsions:
REMARK  status: ('A' for Active; 'I' for Inactive)
REMARK    1  A    between atoms: N_1  and  C1*_12
REMARK    2  A    between atoms: C2*_11  and  O2*_15
REMARK    3  A    between atoms: C3*_13  and  O3*_17
REMARK    4  A    between atoms: C4*_14  and  C5*_19
REMARK    5  A    between atoms: C5*_19  and  O5*_20
REMARK    6  A    between atoms: N_22  and  C_24
REMARK    7  A    between atoms: C_24  and  C_25
REMARK    8  A    between atoms: C_24  and  C_31
REMARK                            x       y       z     vdW  Elec       q    Type
REMARK                         _______ _______ _______ _____ _____    ______ ____
ROOT
ATOM      1  N   UNL     1     -34.349  25.896   4.874  0.00  0.00    -0.247 N 
ATOM      2  N   UNL     1     -33.088  27.012   6.335  0.00  0.00    -0.242 NA
ATOM      3  N   UNL     1     -33.663  26.985   2.813  0.00  0.00    -0.228 NA
ATOM      4  N   UNL     1     -31.995  28.716   3.238  0.00  0.00    -0.228 NA
ATOM      5  C   UNL     1     -33.630  26.797   4.141  0.00  0.00    +0.152 C 
ATOM      6  C   UNL     1     -33.989  26.063   6.184  0.00  0.00    +0.223 C 
ATOM      7  C   UNL     1     -32.854  27.479   5.066  0.00  0.00    +0.140 C 
ATOM      8  C   UNL     1     -32.014  28.470   4.571  0.00  0.00    +0.146 C 
ATOM      9  C   UNL     1     -32.809  27.969   2.455  0.00  0.00    +0.253 C 
ATOM     10  N   UNL     1     -31.192  29.212   5.437  0.00  0.00    -0.315 N 
ATOM     11  H   UNL     1     -31.224  29.013   6.401  0.00  0.00    +0.148 HD
ENDROOT
BRANCH   1  14
ATOM     12  O4* UNL     1     -36.056  24.240   5.424  0.00  0.00    -0.333 OA
ATOM     13  C2* UNL     1     -34.713  23.783   3.529  0.00  0.00    +0.187 C 
ATOM     14  C1* UNL     1     -35.354  24.898   4.348  0.00  0.00    +0.225 C 
ATOM     15  C3* UNL     1     -35.724  22.663   3.676  0.00  0.00    +0.171 C 
ATOM     16  C4* UNL     1     -36.183  22.833   5.119  0.00  0.00    +0.175 C 
BRANCH  13  17
ATOM     17  O2* UNL     1     -34.486  24.148   2.183  0.00  0.00    -0.378 OA
ATOM     18  H2* UNL     1     -35.335  24.320   1.746  0.00  0.00    +0.211 HD
ENDBRANCH  13  17
BRANCH  15  19
ATOM     19  O3* UNL     1     -36.849  22.894   2.828  0.00  0.00    -0.379 OA
ATOM     20  H3* UNL     1     -36.572  22.829   1.900  0.00  0.00    +0.211 HD
ENDBRANCH  15  19
BRANCH  16  21
ATOM     21  C5* UNL     1     -35.332  22.051   6.111  0.00  0.00    +0.169 C 
BRANCH  21  22
ATOM     22  O5* UNL     1     -35.332  20.686   5.732  0.00  0.00    -0.379 OA
ATOM     23  H5* UNL     1     -34.521  20.487   5.239  0.00  0.00    +0.211 HD
ENDBRANCH  21  22
ENDBRANCH  16  21
ENDBRANCH   1  14
BRANCH  10  24
ATOM     24  C   UNL     1     -30.307  30.244   4.983  0.00  0.00    +0.093 C 
BRANCH  24  25
ATOM     25  C   UNL     1     -29.135  30.363   5.936  0.00  0.00    -0.005 C 
ATOM     26  C   UNL     1     -28.127  31.296   5.690  0.00  0.00    -0.003 C 
ATOM     27  C   UNL     1     -29.062  29.537   7.057  0.00  0.00    -0.003 C 
ATOM     28  C   UNL     1     -27.049  31.404   6.566  0.00  0.00    -0.000 C 
ATOM     29  C   UNL     1     -27.984  29.645   7.934  0.00  0.00    -0.000 C 
ATOM     30  C   UNL     1     -26.976  30.579   7.689  0.00  0.00    -0.000 C 
ENDBRANCH  24  25
BRANCH  24  31
ATOM     31  C   UNL     1     -31.069  31.571   4.833  0.00  0.00    +0.024 C 
ATOM     32  C   UNL     1     -30.937  32.167   3.436  0.00  0.00    +0.002 C 
ENDBRANCH  24  31
ENDBRANCH  10  24
TORSDOF 8
ENDMDL
MODEL 3
REMARK VINA RESULT:      -6.3      5.852      8.738
REMARK  Name = 54282370
REMARK  8 active torsions:
REMARK  status: ('A' for Active; 'I' for Inactive)
REMARK    1  A    between atoms: N_1  and  C1*_12
REMARK    2  A    between atoms: C2*_11  and  O2*_15
REMARK    3  A    between atoms: C3*_13  and  O3*_17
REMARK    4  A    between atoms: C4*_14  and  C5*_19
REMARK    5  A    between atoms: C5*_19  and  O5*_20
REMARK    6  A    between atoms: N_22  and  C_24
REMARK    7  A    between atoms: C_24  and  C_25
REMARK    8  A    between atoms: C_24  and  C_31
REMARK                            x       y       z     vdW  Elec       q    Type
REMARK                         _______ _______ _______ _____ _____    ______ ____
ROOT
ATOM      1  N   UNL     1     -37.714  23.998   2.908  0.00  0.00    -0.247 N 
ATOM      2  N   UNL     1     -39.458  22.819   2.175  0.00  0.00    -0.242 NA
ATOM      3  N   UNL     1     -38.453  26.240   2.331  0.00  0.00    -0.228 NA
ATOM      4  N   UNL     1     -40.650  26.202   1.268  0.00  0.00    -0.228 NA
ATOM      5  C   UNL     1     -38.593  24.907   2.392  0.00  0.00    +0.152 C 
ATOM      6  C   UNL     1     -38.277  22.760   2.755  0.00  0.00    +0.223 C 
ATOM      7  C   UNL     1     -39.668  24.155   1.943  0.00  0.00    +0.140 C 
ATOM      8  C   UNL     1     -40.723  24.852   1.363  0.00  0.00    +0.146 C 
ATOM      9  C   UNL     1     -39.535  26.802   1.751  0.00  0.00    +0.253 C 
ATOM     10  N   UNL     1     -41.854  24.171   0.880  0.00  0.00    -0.315 N 
ATOM     11  H   UNL     1     -41.882  23.190   0.963  0.00  0.00    +0.148 HD
ENDROOT
BRANCH   1  14
ATOM     12  O4* UNL     1     -35.613  23.084   3.749  0.00  0.00    -0.333 OA
ATOM     13  C2* UNL     1     -36.482  24.962   4.898  0.00  0.00    +0.187 C 
ATOM     14  C1* UNL     1     -36.370  24.293   3.533  0.00  0.00    +0.225 C 
ATOM     15  C3* UNL     1     -35.169  24.574   5.547  0.00  0.00    +0.171 C 
ATOM     16  C4* UNL     1     -34.969  23.151   5.042  0.00  0.00    +0.175 C 
BRANCH  13  17
ATOM     17  O2* UNL     1     -36.664  26.361   4.814  0.00  0.00    -0.378 OA
ATOM     18  H2* UNL     1     -36.616  26.638   3.886  0.00  0.00    +0.211 HD
ENDBRANCH  13  17
BRANCH  15  19
ATOM     19  O3* UNL     1     -34.105  25.376   5.035  0.00  0.00    -0.379 OA
ATOM     20  H3* UNL     1     -33.434  25.501   5.725  0.00  0.00    +0.211 HD
ENDBRANCH  15  19
BRANCH  16  21
ATOM     21  C5* UNL     1     -35.603  22.102   5.945  0.00  0.00    +0.169 C 
BRANCH  21  22
ATOM     22  O5* UNL     1     -35.155  20.821   5.537  0.00  0.00    -0.379 OA
ATOM     23  H5* UNL     1     -35.106  20.235   6.308  0.00  0.00    +0.211 HD
ENDBRANCH  21  22
ENDBRANCH  16  21
ENDBRANCH   1  14
BRANCH  10  24
ATOM     24  C   UNL     1     -42.969  24.837   0.275  0.00  0.00    +0.093 C 
BRANCH  24  25
ATOM     25  C   UNL     1     -44.120  24.895   1.259  0.00  0.00    -0.005 C 
ATOM     26  C   UNL     1     -45.196  24.018   1.128  0.00  0.00    -0.003 C 
ATOM     27  C   UNL     1     -44.104  25.829   2.296  0.00  0.00    -0.003 C 
ATOM     28  C   UNL     1     -46.255  24.072   2.033  0.00  0.00    -0.000 C 
ATOM     29  C   UNL     1     -45.163  25.883   3.201  0.00  0.00    -0.000 C 
ATOM     30  C   UNL     1     -46.239  25.005   3.070  0.00  0.00    -0.000 C 
ENDBRANCH  24  25
BRANCH  24  31
ATOM     31  C   UNL     1     -43.362  24.135  -1.035  0.00  0.00    +0.024 C 
ATOM     32  C   UNL     1     -42.511  22.902  -1.315  0.00  0.00    +0.002 C 
ENDBRANCH  24  31
ENDBRANCH  10  24
TORSDOF 8
ENDMDL
MODEL 4
REMARK VINA RESULT:      -6.1      6.015      8.821
REMARK  Name = 54282370
REMARK  8 active torsions:
REMARK  status: ('A' for Active; 'I' for Inactive)
REMARK    1  A    between atoms: N_1  and  C1*_12
REMARK    2  A    between atoms: C2*_11  and  O2*_15
REMARK    3  A    between atoms: C3*_13  and  O3*_17
REMARK    4  A    between atoms: C4*_14  and  C5*_19
REMARK    5  A    between atoms: C5*_19  and  O5*_20
REMARK    6  A    between atoms: N_22  and  C_24
REMARK    7  A    between atoms: C_24  and  C_25
REMARK    8  A    between atoms: C_24  and  C_31
REMARK                            x       y       z     vdW  Elec       q    Type
REMARK                         _______ _______ _______ _____ _____    ______ ____
ROOT
ATOM      1  N   UNL     1     -35.439  27.733   2.408  0.00  0.00    -0.247 N 
ATOM      2  N   UNL     1     -36.836  28.998   1.216  0.00  0.00    -0.242 NA
ATOM      3  N   UNL     1     -33.995  29.458   3.326  0.00  0.00    -0.228 NA
ATOM      4  N   UNL     1     -34.679  31.678   2.578  0.00  0.00    -0.228 NA
ATOM      5  C   UNL     1     -35.027  29.023   2.587  0.00  0.00    +0.152 C 
ATOM      6  C   UNL     1     -36.527  27.770   1.577  0.00  0.00    +0.223 C 
ATOM      7  C   UNL     1     -35.906  29.791   1.840  0.00  0.00    +0.140 C 
ATOM      8  C   UNL     1     -35.704  31.168   1.852  0.00  0.00    +0.146 C 
ATOM      9  C   UNL     1     -33.900  30.803   3.259  0.00  0.00    +0.253 C 
ATOM     10  N   UNL     1     -36.547  32.024   1.123  0.00  0.00    -0.315 N 
ATOM     11  H   UNL     1     -37.285  31.626   0.605  0.00  0.00    +0.148 HD
ENDROOT
BRANCH   1  14
ATOM     12  O4* UNL     1     -35.325  25.295   2.381  0.00  0.00    -0.333 OA
ATOM     13  C2* UNL     1     -35.115  26.339   4.495  0.00  0.00    +0.187 C 
ATOM     14  C1* UNL     1     -34.819  26.493   3.007  0.00  0.00    +0.225 C 
ATOM     15  C3* UNL     1     -34.982  24.841   4.689  0.00  0.00    +0.171 C 
ATOM     16  C4* UNL     1     -35.575  24.297   3.396  0.00  0.00    +0.175 C 
BRANCH  13  17
ATOM     17  O2* UNL     1     -34.233  27.082   5.312  0.00  0.00    -0.378 OA
ATOM     18  H2* UNL     1     -34.546  27.059   6.230  0.00  0.00    +0.211 HD
ENDBRANCH  13  17
BRANCH  15  19
ATOM     19  O3* UNL     1     -33.606  24.466   4.734  0.00  0.00    -0.379 OA
ATOM     20  H3* UNL     1     -33.483  23.630   4.257  0.00  0.00    +0.211 HD
ENDBRANCH  15  19
BRANCH  16  21
ATOM     21  C5* UNL     1     -37.078  24.067   3.479  0.00  0.00    +0.169 C 
BRANCH  21  22
ATOM     22  O5* UNL     1     -37.319  22.673   3.566  0.00  0.00    -0.379 OA
ATOM     23  H5* UNL     1     -36.995  22.341   4.416  0.00  0.00    +0.211 HD
ENDBRANCH  21  22
ENDBRANCH  16  21
ENDBRANCH   1  14
BRANCH  10  24
ATOM     24  C   UNL     1     -36.386  33.447   1.100  0.00  0.00    +0.093 C 
BRANCH  24  25
ATOM     25  C   UNL     1     -37.716  34.113   1.389  0.00  0.00    -0.005 C 
ATOM     26  C   UNL     1     -38.903  33.393   1.246  0.00  0.00    -0.003 C 
ATOM     27  C   UNL     1     -37.754  35.446   1.797  0.00  0.00    -0.003 C 
ATOM     28  C   UNL     1     -40.126  34.006   1.511  0.00  0.00    -0.000 C 
ATOM     29  C   UNL     1     -38.978  36.059   2.063  0.00  0.00    -0.000 C 
ATOM     30  C   UNL     1     -40.164  35.340   1.919  0.00  0.00    -0.000 C 
ENDBRANCH  24  25
BRANCH  24  31
ATOM     31  C   UNL     1     -35.794  33.894  -0.247  0.00  0.00    +0.024 C 
ATOM     32  C   UNL     1     -34.535  34.737  -0.082  0.00  0.00    +0.002 C 
ENDBRANCH  24  31
ENDBRANCH  10  24
TORSDOF 8
ENDMDL
MODEL 5
REMARK VINA RESULT:      -6.1      7.059     10.725
REMARK  Name = 54282370
REMARK  8 active torsions:
REMARK  status: ('A' for Active; 'I' for Inactive)
REMARK    1  A    between atoms: N_1  and  C1*_12
REMARK    2  A    between atoms: C2*_11  and  O2*_15
REMARK    3  A    between atoms: C3*_13  and  O3*_17
REMARK    4  A    between atoms: C4*_14  and  C5*_19
REMARK    5  A    between atoms: C5*_19  and  O5*_20
REMARK    6  A    between atoms: N_22  and  C_24
REMARK    7  A    between atoms: C_24  and  C_25
REMARK    8  A    between atoms: C_24  and  C_31
REMARK                            x       y       z     vdW  Elec       q    Type
REMARK                         _______ _______ _______ _____ _____    ______ ____
ROOT
ATOM      1  N   UNL     1     -36.091  19.251   0.221  0.00  0.00    -0.247 N 
ATOM      2  N   UNL     1     -34.608  20.047   1.681  0.00  0.00    -0.242 NA
ATOM      3  N   UNL     1     -38.008  20.637   0.775  0.00  0.00    -0.228 NA
ATOM      4  N   UNL     1     -37.484  22.194   2.580  0.00  0.00    -0.228 NA
ATOM      5  C   UNL     1     -36.739  20.227   0.922  0.00  0.00    +0.152 C 
ATOM      6  C   UNL     1     -34.816  19.180   0.713  0.00  0.00    +0.223 C 
ATOM      7  C   UNL     1     -35.802  20.709   1.822  0.00  0.00    +0.140 C 
ATOM      8  C   UNL     1     -36.214  21.730   2.672  0.00  0.00    +0.146 C 
ATOM      9  C   UNL     1     -38.290  21.626   1.650  0.00  0.00    +0.253 C 
ATOM     10  N   UNL     1     -35.329  22.278   3.618  0.00  0.00    -0.315 N 
ATOM     11  H   UNL     1     -34.412  21.923   3.663  0.00  0.00    +0.148 HD
ENDROOT
BRANCH   1  14
ATOM     12  O4* UNL     1     -37.079  17.109  -0.406  0.00  0.00    -0.333 OA
ATOM     13  C2* UNL     1     -35.662  18.127  -2.006  0.00  0.00    +0.187 C 
ATOM     14  C1* UNL     1     -36.664  18.403  -0.891  0.00  0.00    +0.225 C 
ATOM     15  C3* UNL     1     -36.196  16.837  -2.597  0.00  0.00    +0.171 C 
ATOM     16  C4* UNL     1     -36.685  16.096  -1.359  0.00  0.00    +0.175 C 
BRANCH  13  17
ATOM     17  O2* UNL     1     -35.584  19.176  -2.950  0.00  0.00    -0.378 OA
ATOM     18  H2* UNL     1     -35.166  19.949  -2.541  0.00  0.00    +0.211 HD
ENDBRANCH  13  17
BRANCH  15  19
ATOM     19  O3* UNL     1     -37.328  17.101  -3.426  0.00  0.00    -0.379 OA
ATOM     20  H3* UNL     1     -37.553  18.044  -3.375  0.00  0.00    +0.211 HD
ENDBRANCH  15  19
BRANCH  16  21
ATOM     21  C5* UNL     1     -35.608  15.231  -0.718  0.00  0.00    +0.169 C 
BRANCH  21  22
ATOM     22  O5* UNL     1     -35.716  15.343   0.691  0.00  0.00    -0.379 OA
ATOM     23  H5* UNL     1     -35.859  14.464   1.075  0.00  0.00    +0.211 HD
ENDBRANCH  21  22
ENDBRANCH  16  21
ENDBRANCH   1  14
BRANCH  10  24
ATOM     24  C   UNL     1     -35.700  23.330   4.517  0.00  0.00    +0.093 C 
BRANCH  24  25
ATOM     25  C   UNL     1     -34.833  24.546   4.258  0.00  0.00    -0.005 C 
ATOM     26  C   UNL     1     -34.531  25.423   5.301  0.00  0.00    -0.003 C 
ATOM     27  C   UNL     1     -34.338  24.790   2.977  0.00  0.00    -0.003 C 
ATOM     28  C   UNL     1     -33.734  26.542   5.063  0.00  0.00    -0.000 C 
ATOM     29  C   UNL     1     -33.540  25.908   2.739  0.00  0.00    -0.000 C 
ATOM     30  C   UNL     1     -33.239  26.785   3.782  0.00  0.00    -0.000 C 
ENDBRANCH  24  25
BRANCH  24  31
ATOM     31  C   UNL     1     -35.600  22.846   5.973  0.00  0.00    +0.024 C 
ATOM     32  C   UNL     1     -35.056  21.427   6.081  0.00  0.00    +0.002 C 
ENDBRANCH  24  31
ENDBRANCH  10  24
TORSDOF 8
ENDMDL
MODEL 6
REMARK VINA RESULT:      -6.1      2.566      3.964
REMARK  Name = 54282370
REMARK  8 active torsions:
REMARK  status: ('A' for Active; 'I' for Inactive)
REMARK    1  A    between atoms: N_1  and  C1*_12
REMARK    2  A    between atoms: C2*_11  and  O2*_15
REMARK    3  A    between atoms: C3*_13  and  O3*_17
REMARK    4  A    between atoms: C4*_14  and  C5*_19
REMARK    5  A    between atoms: C5*_19  and  O5*_20
REMARK    6  A    between atoms: N_22  and  C_24
REMARK    7  A    between atoms: C_24  and  C_25
REMARK    8  A    between atoms: C_24  and  C_31
REMARK                            x       y       z     vdW  Elec       q    Type
REMARK                         _______ _______ _______ _____ _____    ______ ____
ROOT
ATOM      1  N   UNL     1     -33.249  27.241   4.287  0.00  0.00    -0.247 N 
ATOM      2  N   UNL     1     -33.581  26.361   2.266  0.00  0.00    -0.242 NA
ATOM      3  N   UNL     1     -34.213  25.490   5.668  0.00  0.00    -0.228 NA
ATOM      4  N   UNL     1     -35.066  23.654   4.304  0.00  0.00    -0.228 NA
ATOM      5  C   UNL     1     -33.869  26.042   4.495  0.00  0.00    +0.152 C 
ATOM      6  C   UNL     1     -33.099  27.388   2.934  0.00  0.00    +0.223 C 
ATOM      7  C   UNL     1     -34.065  25.512   3.229  0.00  0.00    +0.140 C 
ATOM      8  C   UNL     1     -34.689  24.270   3.158  0.00  0.00    +0.146 C 
ATOM      9  C   UNL     1     -34.808  24.293   5.470  0.00  0.00    +0.253 C 
ATOM     10  N   UNL     1     -34.930  23.658   1.915  0.00  0.00    -0.315 N 
ATOM     11  H   UNL     1     -34.645  24.128   1.097  0.00  0.00    +0.148 HD
ENDROOT
BRANCH   1  14
ATOM     12  O4* UNL     1     -32.647  29.551   4.793  0.00  0.00    -0.333 OA
ATOM     13  C2* UNL     1     -31.464  27.870   5.967  0.00  0.00    +0.187 C 
ATOM     14  C1* UNL     1     -32.809  28.227   5.343  0.00  0.00    +0.225 C 
ATOM     15  C3* UNL     1     -30.972  29.221   6.447  0.00  0.00    +0.171 C 
ATOM     16  C4* UNL     1     -31.449  30.149   5.337  0.00  0.00    +0.175 C 
BRANCH  13  17
ATOM     17  O2* UNL     1     -31.574  26.921   7.008  0.00  0.00    -0.378 OA
ATOM     18  H2* UNL     1     -32.244  27.214   7.645  0.00  0.00    +0.211 HD
ENDBRANCH  13  17
BRANCH  15  19
ATOM     19  O3* UNL     1     -31.641  29.596   7.651  0.00  0.00    -0.379 OA
ATOM     20  H3* UNL     1     -32.589  29.703   7.473  0.00  0.00    +0.211 HD
ENDBRANCH  15  19
BRANCH  16  21
ATOM     21  C5* UNL     1     -30.437  30.300   4.209  0.00  0.00    +0.169 C 
BRANCH  21  22
ATOM     22  O5* UNL     1     -31.130  30.290   2.973  0.00  0.00    -0.379 OA
ATOM     23  H5* UNL     1     -31.673  29.490   2.913  0.00  0.00    +0.211 HD
ENDBRANCH  21  22
ENDBRANCH  16  21
ENDBRANCH   1  14
BRANCH  10  24
ATOM     24  C   UNL     1     -35.567  22.382   1.783  0.00  0.00    +0.093 C 
BRANCH  24  25
ATOM     25  C   UNL     1     -34.548  21.349   1.346  0.00  0.00    -0.005 C 
ATOM     26  C   UNL     1     -34.573  20.067   1.896  0.00  0.00    -0.003 C 
ATOM     27  C   UNL     1     -33.583  21.681   0.395  0.00  0.00    -0.003 C 
ATOM     28  C   UNL     1     -33.635  19.117   1.495  0.00  0.00    -0.000 C 
ATOM     29  C   UNL     1     -32.645  20.731  -0.008  0.00  0.00    -0.000 C 
ATOM     30  C   UNL     1     -32.670  19.449   0.543  0.00  0.00    -0.000 C 
ENDBRANCH  24  25
BRANCH  24  31
ATOM     31  C   UNL     1     -36.752  22.477   0.807  0.00  0.00    +0.024 C 
ATOM     32  C   UNL     1     -37.927  21.603   1.228  0.00  0.00    +0.002 C 
ENDBRANCH  24  31
ENDBRANCH  10  24
TORSDOF 8
ENDMDL
MODEL 7
REMARK VINA RESULT:      -6.0      3.931      8.255
REMARK  Name = 54282370
REMARK  8 active torsions:
REMARK  status: ('A' for Active; 'I' for Inactive)
REMARK    1  A    between atoms: N_1  and  C1*_12
REMARK    2  A    between atoms: C2*_11  and  O2*_15
REMARK    3  A    between atoms: C3*_13  and  O3*_17
REMARK    4  A    between atoms: C4*_14  and  C5*_19
REMARK    5  A    between atoms: C5*_19  and  O5*_20
REMARK    6  A    between atoms: N_22  and  C_24
REMARK    7  A    between atoms: C_24  and  C_25
REMARK    8  A    between atoms: C_24  and  C_31
REMARK                            x       y       z     vdW  Elec       q    Type
REMARK                         _______ _______ _______ _____ _____    ______ ____
ROOT
ATOM      1  N   UNL     1     -35.088  25.298   3.829  0.00  0.00    -0.247 N 
ATOM      2  N   UNL     1     -34.343  26.405   5.614  0.00  0.00    -0.242 NA
ATOM      3  N   UNL     1     -33.636  26.235   2.121  0.00  0.00    -0.228 NA
ATOM      4  N   UNL     1     -32.098  27.877   3.068  0.00  0.00    -0.228 NA
ATOM      5  C   UNL     1     -34.090  26.113   3.378  0.00  0.00    +0.152 C 
ATOM      6  C   UNL     1     -35.203  25.509   5.177  0.00  0.00    +0.223 C 
ATOM      7  C   UNL     1     -33.641  26.791   4.500  0.00  0.00    +0.140 C 
ATOM      8  C   UNL     1     -32.606  27.702   4.312  0.00  0.00    +0.146 C 
ATOM      9  C   UNL     1     -32.638  27.143   2.065  0.00  0.00    +0.253 C 
ATOM     10  N   UNL     1     -32.088  28.434   5.395  0.00  0.00    -0.315 N 
ATOM     11  H   UNL     1     -32.475  28.286   6.289  0.00  0.00    +0.148 HD
ENDROOT
BRANCH   1  14
ATOM     12  O4* UNL     1     -36.944  25.032   2.267  0.00  0.00    -0.333 OA
ATOM     13  C2* UNL     1     -36.642  23.300   3.852  0.00  0.00    +0.187 C 
ATOM     14  C1* UNL     1     -35.916  24.340   3.005  0.00  0.00    +0.225 C 
ATOM     15  C3* UNL     1     -37.812  22.930   2.962  0.00  0.00    +0.171 C 
ATOM     16  C4* UNL     1     -38.171  24.270   2.331  0.00  0.00    +0.175 C 
BRANCH  13  17
ATOM     17  O2* UNL     1     -35.829  22.193   4.184  0.00  0.00    -0.378 OA
ATOM     18  H2* UNL     1     -36.174  21.766   4.983  0.00  0.00    +0.211 HD
ENDBRANCH  13  17
BRANCH  15  19
ATOM     19  O3* UNL     1     -37.385  22.054   1.919  0.00  0.00    -0.379 OA
ATOM     20  H3* UNL     1     -37.538  21.134   2.187  0.00  0.00    +0.211 HD
ENDBRANCH  15  19
BRANCH  16  21
ATOM     21  C5* UNL     1     -39.182  25.062   3.149  0.00  0.00    +0.169 C 
BRANCH  21  22
ATOM     22  O5* UNL     1     -38.691  26.380   3.324  0.00  0.00    -0.379 OA
ATOM     23  H5* UNL     1     -39.428  27.009   3.279  0.00  0.00    +0.211 HD
ENDBRANCH  21  22
ENDBRANCH  16  21
ENDBRANCH   1  14
BRANCH  10  24
ATOM     24  C   UNL     1     -31.024  29.383   5.260  0.00  0.00    +0.093 C 
BRANCH  24  25
ATOM     25  C   UNL     1     -29.856  28.962   6.129  0.00  0.00    -0.005 C 
ATOM     26  C   UNL     1     -29.150  27.796   5.833  0.00  0.00    -0.003 C 
ATOM     27  C   UNL     1     -29.489  29.740   7.227  0.00  0.00    -0.003 C 
ATOM     28  C   UNL     1     -28.076  27.408   6.633  0.00  0.00    -0.000 C 
ATOM     29  C   UNL     1     -28.414  29.353   8.027  0.00  0.00    -0.000 C 
ATOM     30  C   UNL     1     -27.708  28.187   7.731  0.00  0.00    -0.000 C 
ENDBRANCH  24  25
BRANCH  24  31
ATOM     31  C   UNL     1     -31.523  30.796   5.604  0.00  0.00    +0.024 C 
ATOM     32  C   UNL     1     -31.193  31.813   4.518  0.00  0.00    +0.002 C 
ENDBRANCH  24  31
ENDBRANCH  10  24
TORSDOF 8
ENDMDL
MODEL 8
REMARK VINA RESULT:      -6.0      1.277      2.268
REMARK  Name = 54282370
REMARK  8 active torsions:
REMARK  status: ('A' for Active; 'I' for Inactive)
REMARK    1  A    between atoms: N_1  and  C1*_12
REMARK    2  A    between atoms: C2*_11  and  O2*_15
REMARK    3  A    between atoms: C3*_13  and  O3*_17
REMARK    4  A    between atoms: C4*_14  and  C5*_19
REMARK    5  A    between atoms: C5*_19  and  O5*_20
REMARK    6  A    between atoms: N_22  and  C_24
REMARK    7  A    between atoms: C_24  and  C_25
REMARK    8  A    between atoms: C_24  and  C_31
REMARK                            x       y       z     vdW  Elec       q    Type
REMARK                         _______ _______ _______ _____ _____    ______ ____
ROOT
ATOM      1  N   UNL     1     -31.187  28.372   4.006  0.00  0.00    -0.247 N 
ATOM      2  N   UNL     1     -32.838  27.563   2.747  0.00  0.00    -0.242 NA
ATOM      3  N   UNL     1     -31.934  27.634   6.198  0.00  0.00    -0.228 NA
ATOM      4  N   UNL     1     -34.038  26.406   6.050  0.00  0.00    -0.228 NA
ATOM      5  C   UNL     1     -32.046  27.748   4.865  0.00  0.00    +0.152 C 
ATOM      6  C   UNL     1     -31.706  28.235   2.747  0.00  0.00    +0.223 C 
ATOM      7  C   UNL     1     -33.063  27.252   4.064  0.00  0.00    +0.140 C 
ATOM      8  C   UNL     1     -34.085  26.559   4.704  0.00  0.00    +0.146 C 
ATOM      9  C   UNL     1     -32.980  26.946   6.702  0.00  0.00    +0.253 C 
ATOM     10  N   UNL     1     -35.157  26.022   3.970  0.00  0.00    -0.315 N 
ATOM     11  H   UNL     1     -35.166  26.147   2.993  0.00  0.00    +0.148 HD
ENDROOT
BRANCH   1  14
ATOM     12  O4* UNL     1     -29.469  29.957   3.303  0.00  0.00    -0.333 OA
ATOM     13  C2* UNL     1     -28.744  28.129   4.621  0.00  0.00    +0.187 C 
ATOM     14  C1* UNL     1     -29.905  29.084   4.367  0.00  0.00    +0.225 C 
ATOM     15  C3* UNL     1     -27.544  29.005   4.323  0.00  0.00    +0.171 C 
ATOM     16  C4* UNL     1     -28.037  29.835   3.144  0.00  0.00    +0.175 C 
BRANCH  13  17
ATOM     17  O2* UNL     1     -28.735  27.608   5.935  0.00  0.00    -0.378 OA
ATOM     18  H2* UNL     1     -29.143  28.248   6.539  0.00  0.00    +0.211 HD
ENDBRANCH  13  17
BRANCH  15  19
ATOM     19  O3* UNL     1     -27.293  29.893   5.412  0.00  0.00    -0.379 OA
ATOM     20  H3* UNL     1     -27.668  30.765   5.210  0.00  0.00    +0.211 HD
ENDBRANCH  15  19
BRANCH  16  21
ATOM     21  C5* UNL     1     -27.761  29.182   1.797  0.00  0.00    +0.169 C 
BRANCH  21  22
ATOM     22  O5* UNL     1     -28.908  29.330   0.977  0.00  0.00    -0.379 OA
ATOM     23  H5* UNL     1     -28.632  29.465   0.057  0.00  0.00    +0.211 HD
ENDBRANCH  21  22
ENDBRANCH  16  21
ENDBRANCH   1  14
BRANCH  10  24
ATOM     24  C   UNL     1     -36.236  25.300   4.576  0.00  0.00    +0.093 C 
BRANCH  24  25
ATOM     25  C   UNL     1     -35.844  23.845   4.736  0.00  0.00    -0.005 C 
ATOM     26  C   UNL     1     -35.500  23.348   5.993  0.00  0.00    -0.003 C 
ATOM     27  C   UNL     1     -35.826  23.002   3.625  0.00  0.00    -0.003 C 
ATOM     28  C   UNL     1     -35.139  22.010   6.140  0.00  0.00    -0.000 C 
ATOM     29  C   UNL     1     -35.465  21.663   3.771  0.00  0.00    -0.000 C 
ATOM     30  C   UNL     1     -35.121  21.166   5.029  0.00  0.00    -0.000 C 
ENDBRANCH  24  25
BRANCH  24  31
ATOM     31  C   UNL     1     -37.521  25.467   3.748  0.00  0.00    +0.024 C 
ATOM     32  C   UNL     1     -37.280  26.212   2.440  0.00  0.00    +0.002 C 
ENDBRANCH  24  31
ENDBRANCH  10  24
TORSDOF 8
ENDMDL
MODEL 9
REMARK VINA RESULT:      -6.0      7.121     10.592
REMARK  Name = 54282370
REMARK  8 active torsions:
REMARK  status: ('A' for Active; 'I' for Inactive)
REMARK    1  A    between atoms: N_1  and  C1*_12
REMARK    2  A    between atoms: C2*_11  and  O2*_15
REMARK    3  A    between atoms: C3*_13  and  O3*_17
REMARK    4  A    between atoms: C4*_14  and  C5*_19
REMARK    5  A    between atoms: C5*_19  and  O5*_20
REMARK    6  A    between atoms: N_22  and  C_24
REMARK    7  A    between atoms: C_24  and  C_25
REMARK    8  A    between atoms: C_24  and  C_31
REMARK                            x       y       z     vdW  Elec       q    Type
REMARK                         _______ _______ _______ _____ _____    ______ ____
ROOT
ATOM      1  N   UNL     1     -39.437  21.878   0.797  0.00  0.00    -0.247 N 
ATOM      2  N   UNL     1     -37.489  21.370   1.753  0.00  0.00    -0.242 NA
ATOM      3  N   UNL     1     -40.031  23.853   2.081  0.00  0.00    -0.228 NA
ATOM      4  N   UNL     1     -38.326  24.371   3.749  0.00  0.00    -0.228 NA
ATOM      5  C   UNL     1     -39.233  22.822   1.762  0.00  0.00    +0.152 C 
ATOM      6  C   UNL     1     -38.364  21.028   0.831  0.00  0.00    +0.223 C 
ATOM      7  C   UNL     1     -38.019  22.490   2.343  0.00  0.00    +0.140 C 
ATOM      8  C   UNL     1     -37.571  23.310   3.373  0.00  0.00    +0.146 C 
ATOM      9  C   UNL     1     -39.492  24.572   3.090  0.00  0.00    +0.253 C 
ATOM     10  N   UNL     1     -36.350  23.048   4.020  0.00  0.00    -0.315 N 
ATOM     11  H   UNL     1     -35.821  22.271   3.725  0.00  0.00    +0.148 HD
ENDROOT
BRANCH   1  14
ATOM     12  O4* UNL     1     -41.082  20.417  -0.260  0.00  0.00    -0.333 OA
ATOM     13  C2* UNL     1     -40.301  22.238  -1.555  0.00  0.00    +0.187 C 
ATOM     14  C1* UNL     1     -40.621  21.778  -0.137  0.00  0.00    +0.225 C 
ATOM     15  C3* UNL     1     -41.331  21.482  -2.370  0.00  0.00    +0.171 C 
ATOM     16  C4* UNL     1     -41.397  20.145  -1.644  0.00  0.00    +0.175 C 
BRANCH  13  17
ATOM     17  O2* UNL     1     -40.389  23.639  -1.714  0.00  0.00    -0.378 OA
ATOM     18  H2* UNL     1     -41.268  23.941  -1.439  0.00  0.00    +0.211 HD
ENDBRANCH  13  17
BRANCH  15  19
ATOM     19  O3* UNL     1     -42.609  22.107  -2.258  0.00  0.00    -0.379 OA
ATOM     20  H3* UNL     1     -42.492  23.050  -2.060  0.00  0.00    +0.211 HD
ENDBRANCH  15  19
BRANCH  16  21
ATOM     21  C5* UNL     1     -40.392  19.129  -2.171  0.00  0.00    +0.169 C 
BRANCH  21  22
ATOM     22  O5* UNL     1     -39.855  18.411  -1.074  0.00  0.00    -0.379 OA
ATOM     23  H5* UNL     1     -40.573  18.135  -0.485  0.00  0.00    +0.211 HD
ENDBRANCH  21  22
ENDBRANCH  16  21
ENDBRANCH   1  14
BRANCH  10  24
ATOM     24  C   UNL     1     -35.840  23.858   5.085  0.00  0.00    +0.093 C 
BRANCH  24  25
ATOM     25  C   UNL     1     -34.848  24.860   4.529  0.00  0.00    -0.005 C 
ATOM     26  C   UNL     1     -34.360  24.712   3.230  0.00  0.00    -0.003 C 
ATOM     27  C   UNL     1     -34.420  25.928   5.317  0.00  0.00    -0.003 C 
ATOM     28  C   UNL     1     -33.446  25.633   2.719  0.00  0.00    -0.000 C 
ATOM     29  C   UNL     1     -33.506  26.850   4.806  0.00  0.00    -0.000 C 
ATOM     30  C   UNL     1     -33.019  26.702   3.507  0.00  0.00    -0.000 C 
ENDBRANCH  24  25
BRANCH  24  31
ATOM     31  C   UNL     1     -35.220  22.973   6.178  0.00  0.00    +0.024 C 
ATOM     32  C   UNL     1     -35.134  21.508   5.765  0.00  0.00    +0.002 C 
ENDBRANCH  24  31
ENDBRANCH  10  24
TORSDOF 8
ENDMDL
