MODEL 1
REMARK VINA RESULT:      -5.5      0.000      0.000
REMARK  Name = 21578050
REMARK  11 active torsions:
REMARK  status: ('A' for Active; 'I' for Inactive)
REMARK    1  A    between atoms: C_2  and  C_20
REMARK    2  A    between atoms: C_3  and  C_7
REMARK    3  A    between atoms: C_7  and  C_8
REMARK    4  A    between atoms: C_11  and  O_14
REMARK    5  A    between atoms: C_12  and  O_16
REMARK    6  A    between atoms: C_13  and  O_18
REMARK    7  A    between atoms: C_20  and  C_21
REMARK    8  A    between atoms: C_20  and  O_33
REMARK    9  A    between atoms: C_24  and  O_27
REMARK   10  A    between atoms: C_25  and  O_29
REMARK   11  A    between atoms: C_26  and  O_31
REMARK                            x       y       z     vdW  Elec       q    Type
REMARK                         _______ _______ _______ _____ _____    ______ ____
ROOT
ATOM      1  O   UNL     1     -37.898  19.667  -0.509  0.00  0.00    -0.353 OA
ATOM      2  C   UNL     1     -38.258  21.600   0.760  0.00  0.00    +0.070 C 
ATOM      3  C   UNL     1     -36.964  20.979   1.260  0.00  0.00    +0.097 C 
ATOM      4  C   UNL     1     -38.946  20.415   0.114  0.00  0.00    +0.145 C 
ATOM      5  C   UNL     1     -36.702  19.858   0.262  0.00  0.00    +0.150 C 
ENDROOT
BRANCH   3   7
ATOM      6  O   UNL     1     -34.977  21.944   0.389  0.00  0.00    -0.291 OA
ATOM      7  C   UNL     1     -35.839  21.964   1.265  0.00  0.00    +0.175 C 
BRANCH   7   8
ATOM      8  C   UNL     1     -35.770  22.980   2.354  0.00  0.00    +0.041 C 
ATOM      9  C   UNL     1     -35.599  24.304   2.013  0.00  0.00    +0.043 C 
ATOM     10  C   UNL     1     -35.879  22.559   3.660  0.00  0.00    +0.043 C 
ATOM     11  C   UNL     1     -35.815  23.510   4.678  0.00  0.00    +0.176 C 
ATOM     12  C   UNL     1     -35.535  25.255   3.032  0.00  0.00    +0.176 C 
ATOM     13  C   UNL     1     -35.643  24.858   4.364  0.00  0.00    +0.206 C 
BRANCH  11  14
ATOM     14  O   UNL     1     -35.922  23.109   5.976  0.00  0.00    -0.468 OA
ATOM     15  C   UNL     1     -35.301  21.873   6.326  0.00  0.00    +0.253 C 
ENDBRANCH  11  14
BRANCH  12  16
ATOM     16  O   UNL     1     -35.368  26.569   2.712  0.00  0.00    -0.468 OA
ATOM     17  C   UNL     1     -36.381  27.175   1.911  0.00  0.00    +0.253 C 
ENDBRANCH  12  16
BRANCH  13  18
ATOM     18  O   UNL     1     -35.581  25.787   5.360  0.00  0.00    -0.465 OA
ATOM     19  C   UNL     1     -34.290  26.085   5.888  0.00  0.00    +0.253 C 
ENDBRANCH  13  18
ENDBRANCH   7   8
ENDBRANCH   3   7
BRANCH   2  20
ATOM     20  C   UNL     1     -39.090  22.255   1.850  0.00  0.00    +0.136 C 
BRANCH  20  21
ATOM     21  C   UNL     1     -39.366  23.708   1.551  0.00  0.00    +0.011 C 
ATOM     22  C   UNL     1     -39.777  24.547   2.574  0.00  0.00    +0.038 C 
ATOM     23  C   UNL     1     -39.201  24.178   0.258  0.00  0.00    +0.038 C 
ATOM     24  C   UNL     1     -39.456  25.522  -0.020  0.00  0.00    +0.175 C 
ATOM     25  C   UNL     1     -40.032  25.890   2.297  0.00  0.00    +0.175 C 
ATOM     26  C   UNL     1     -39.871  26.378   1.001  0.00  0.00    +0.206 C 
BRANCH  24  27
ATOM     27  O   UNL     1     -39.295  25.985  -1.291  0.00  0.00    -0.468 OA
ATOM     28  C   UNL     1     -40.217  25.515  -2.272  0.00  0.00    +0.253 C 
ENDBRANCH  24  27
BRANCH  25  29
ATOM     29  O   UNL     1     -40.437  26.715   3.303  0.00  0.00    -0.468 OA
ATOM     30  C   UNL     1     -41.800  26.621   3.710  0.00  0.00    +0.253 C 
ENDBRANCH  25  29
BRANCH  26  31
ATOM     31  O   UNL     1     -40.122  27.690   0.729  0.00  0.00    -0.465 OA
ATOM     32  C   UNL     1     -41.431  28.017   0.270  0.00  0.00    +0.253 C 
ENDBRANCH  26  31
ENDBRANCH  20  21
BRANCH  20  33
ATOM     33  O   UNL     1     -40.325  21.557   1.986  0.00  0.00    -0.380 OA
ATOM     34  H   UNL     1     -41.061  22.174   1.855  0.00  0.00    +0.211 HD
ENDBRANCH  20  33
ENDBRANCH   2  20
TORSDOF 11
ENDMDL
MODEL 2
REMARK VINA RESULT:      -5.5      0.169      3.092
REMARK  Name = 21578050
REMARK  11 active torsions:
REMARK  status: ('A' for Active; 'I' for Inactive)
REMARK    1  A    between atoms: C_2  and  C_20
REMARK    2  A    between atoms: C_3  and  C_7
REMARK    3  A    between atoms: C_7  and  C_8
REMARK    4  A    between atoms: C_11  and  O_14
REMARK    5  A    between atoms: C_12  and  O_16
REMARK    6  A    between atoms: C_13  and  O_18
REMARK    7  A    between atoms: C_20  and  C_21
REMARK    8  A    between atoms: C_20  and  O_33
REMARK    9  A    between atoms: C_24  and  O_27
REMARK   10  A    between atoms: C_25  and  O_29
REMARK   11  A    between atoms: C_26  and  O_31
REMARK                            x       y       z     vdW  Elec       q    Type
REMARK                         _______ _______ _______ _____ _____    ______ ____
ROOT
ATOM      1  O   UNL     1     -37.710  19.523  -0.542  0.00  0.00    -0.353 OA
ATOM      2  C   UNL     1     -38.225  21.459   0.668  0.00  0.00    +0.070 C 
ATOM      3  C   UNL     1     -36.901  20.941   1.206  0.00  0.00    +0.097 C 
ATOM      4  C   UNL     1     -38.819  20.214   0.042  0.00  0.00    +0.145 C 
ATOM      5  C   UNL     1     -36.545  19.815   0.244  0.00  0.00    +0.150 C 
ENDROOT
BRANCH   3   7
ATOM      6  O   UNL     1     -35.017  22.065   0.300  0.00  0.00    -0.291 OA
ATOM      7  C   UNL     1     -35.846  22.001   1.204  0.00  0.00    +0.175 C 
BRANCH   7   8
ATOM      8  C   UNL     1     -35.808  22.988   2.321  0.00  0.00    +0.041 C 
ATOM      9  C   UNL     1     -35.887  22.524   3.616  0.00  0.00    +0.043 C 
ATOM     10  C   UNL     1     -35.697  24.326   2.018  0.00  0.00    +0.043 C 
ATOM     11  C   UNL     1     -35.661  25.249   3.063  0.00  0.00    +0.176 C 
ATOM     12  C   UNL     1     -35.852  23.448   4.661  0.00  0.00    +0.176 C 
ATOM     13  C   UNL     1     -35.738  24.810   4.385  0.00  0.00    +0.206 C 
BRANCH  11  14
ATOM     14  O   UNL     1     -35.551  26.577   2.780  0.00  0.00    -0.468 OA
ATOM     15  C   UNL     1     -36.436  27.105   1.793  0.00  0.00    +0.253 C 
ENDBRANCH  11  14
BRANCH  12  16
ATOM     16  O   UNL     1     -35.926  23.006   5.948  0.00  0.00    -0.468 OA
ATOM     17  C   UNL     1     -35.182  21.834   6.276  0.00  0.00    +0.253 C 
ENDBRANCH  12  16
BRANCH  13  18
ATOM     18  O   UNL     1     -35.703  25.712   5.406  0.00  0.00    -0.465 OA
ATOM     19  C   UNL     1     -34.419  26.057   5.922  0.00  0.00    +0.253 C 
ENDBRANCH  13  18
ENDBRANCH   7   8
ENDBRANCH   3   7
BRANCH   2  20
ATOM     20  C   UNL     1     -39.120  22.083   1.725  0.00  0.00    +0.136 C 
BRANCH  20  21
ATOM     21  C   UNL     1     -39.382  23.543   1.450  0.00  0.00    +0.011 C 
ATOM     22  C   UNL     1     -39.280  24.020   0.153  0.00  0.00    +0.038 C 
ATOM     23  C   UNL     1     -39.722  24.382   2.500  0.00  0.00    +0.038 C 
ATOM     24  C   UNL     1     -39.964  25.733   2.247  0.00  0.00    +0.175 C 
ATOM     25  C   UNL     1     -39.522  25.370  -0.100  0.00  0.00    +0.175 C 
ATOM     26  C   UNL     1     -39.864  26.226   0.946  0.00  0.00    +0.206 C 
BRANCH  24  27
ATOM     27  O   UNL     1     -40.297  26.557   3.278  0.00  0.00    -0.468 OA
ATOM     28  C   UNL     1     -41.649  26.518   3.730  0.00  0.00    +0.253 C 
ENDBRANCH  24  27
BRANCH  25  29
ATOM     29  O   UNL     1     -39.421  25.840  -1.375  0.00  0.00    -0.468 OA
ATOM     30  C   UNL     1     -40.444  25.455  -2.290  0.00  0.00    +0.253 C 
ENDBRANCH  25  29
BRANCH  26  31
ATOM     31  O   UNL     1     -40.099  27.547   0.700  0.00  0.00    -0.465 OA
ATOM     32  C   UNL     1     -41.431  27.911   0.342  0.00  0.00    +0.253 C 
ENDBRANCH  26  31
ENDBRANCH  20  21
BRANCH  20  33
ATOM     33  O   UNL     1     -40.359  21.380   1.770  0.00  0.00    -0.380 OA
ATOM     34  H   UNL     1     -41.039  21.892   1.306  0.00  0.00    +0.211 HD
ENDBRANCH  20  33
ENDBRANCH   2  20
TORSDOF 11
ENDMDL
MODEL 3
REMARK VINA RESULT:      -5.4      2.018      2.809
REMARK  Name = 21578050
REMARK  11 active torsions:
REMARK  status: ('A' for Active; 'I' for Inactive)
REMARK    1  A    between atoms: C_2  and  C_20
REMARK    2  A    between atoms: C_3  and  C_7
REMARK    3  A    between atoms: C_7  and  C_8
REMARK    4  A    between atoms: C_11  and  O_14
REMARK    5  A    between atoms: C_12  and  O_16
REMARK    6  A    between atoms: C_13  and  O_18
REMARK    7  A    between atoms: C_20  and  C_21
REMARK    8  A    between atoms: C_20  and  O_33
REMARK    9  A    between atoms: C_24  and  O_27
REMARK   10  A    between atoms: C_25  and  O_29
REMARK   11  A    between atoms: C_26  and  O_31
REMARK                            x       y       z     vdW  Elec       q    Type
REMARK                         _______ _______ _______ _____ _____    ______ ____
ROOT
ATOM      1  O   UNL     1     -34.034  19.900  -0.209  0.00  0.00    -0.353 OA
ATOM      2  C   UNL     1     -35.716  20.977   1.012  0.00  0.00    +0.070 C 
ATOM      3  C   UNL     1     -34.414  21.699   1.321  0.00  0.00    +0.097 C 
ATOM      4  C   UNL     1     -35.221  19.625   0.542  0.00  0.00    +0.145 C 
ATOM      5  C   UNL     1     -33.424  21.075   0.346  0.00  0.00    +0.150 C 
ENDROOT
BRANCH   3   7
ATOM      6  O   UNL     1     -34.618  23.634  -0.039  0.00  0.00    -0.291 OA
ATOM      7  C   UNL     1     -34.528  23.174   1.097  0.00  0.00    +0.175 C 
BRANCH   7   8
ATOM      8  C   UNL     1     -34.530  24.088   2.274  0.00  0.00    +0.041 C 
ATOM      9  C   UNL     1     -34.244  25.421   2.076  0.00  0.00    +0.043 C 
ATOM     10  C   UNL     1     -34.817  23.567   3.516  0.00  0.00    +0.043 C 
ATOM     11  C   UNL     1     -34.818  24.423   4.617  0.00  0.00    +0.176 C 
ATOM     12  C   UNL     1     -34.246  26.276   3.178  0.00  0.00    +0.176 C 
ATOM     13  C   UNL     1     -34.533  25.778   4.449  0.00  0.00    +0.206 C 
BRANCH  11  14
ATOM     14  O   UNL     1     -35.100  23.922   5.853  0.00  0.00    -0.468 OA
ATOM     15  C   UNL     1     -35.418  22.534   5.933  0.00  0.00    +0.253 C 
ENDBRANCH  11  14
BRANCH  12  16
ATOM     16  O   UNL     1     -33.967  27.598   3.000  0.00  0.00    -0.468 OA
ATOM     17  C   UNL     1     -32.864  27.921   2.156  0.00  0.00    +0.253 C 
ENDBRANCH  12  16
BRANCH  13  18
ATOM     18  O   UNL     1     -34.535  26.613   5.525  0.00  0.00    -0.465 OA
ATOM     19  C   UNL     1     -33.307  26.760   6.234  0.00  0.00    +0.253 C 
ENDBRANCH  13  18
ENDBRANCH   7   8
ENDBRANCH   3   7
BRANCH   2  20
ATOM     20  C   UNL     1     -36.669  20.890   2.192  0.00  0.00    +0.136 C 
BRANCH  20  21
ATOM     21  C   UNL     1     -37.911  21.718   1.975  0.00  0.00    +0.011 C 
ATOM     22  C   UNL     1     -38.016  22.959   2.582  0.00  0.00    +0.038 C 
ATOM     23  C   UNL     1     -38.925  21.223   1.169  0.00  0.00    +0.038 C 
ATOM     24  C   UNL     1     -40.074  21.988   0.967  0.00  0.00    +0.175 C 
ATOM     25  C   UNL     1     -39.165  23.724   2.381  0.00  0.00    +0.175 C 
ATOM     26  C   UNL     1     -40.194  23.239   1.574  0.00  0.00    +0.206 C 
BRANCH  24  27
ATOM     27  O   UNL     1     -41.071  21.502   0.178  0.00  0.00    -0.468 OA
ATOM     28  C   UNL     1     -40.822  21.456  -1.226  0.00  0.00    +0.253 C 
ENDBRANCH  24  27
BRANCH  25  29
ATOM     29  O   UNL     1     -39.269  24.944   2.978  0.00  0.00    -0.468 OA
ATOM     30  C   UNL     1     -38.111  25.775   2.961  0.00  0.00    +0.253 C 
ENDBRANCH  25  29
BRANCH  26  31
ATOM     31  O   UNL     1     -41.318  23.986   1.378  0.00  0.00    -0.465 OA
ATOM     32  C   UNL     1     -41.298  24.913   0.295  0.00  0.00    +0.253 C 
ENDBRANCH  26  31
ENDBRANCH  20  21
BRANCH  20  33
ATOM     33  O   UNL     1     -37.037  19.529   2.402  0.00  0.00    -0.380 OA
ATOM     34  H   UNL     1     -36.337  18.949   2.067  0.00  0.00    +0.211 HD
ENDBRANCH  20  33
ENDBRANCH   2  20
TORSDOF 11
ENDMDL
MODEL 4
REMARK VINA RESULT:      -5.4      2.038      6.942
REMARK  Name = 21578050
REMARK  11 active torsions:
REMARK  status: ('A' for Active; 'I' for Inactive)
REMARK    1  A    between atoms: C_2  and  C_20
REMARK    2  A    between atoms: C_3  and  C_7
REMARK    3  A    between atoms: C_7  and  C_8
REMARK    4  A    between atoms: C_11  and  O_14
REMARK    5  A    between atoms: C_12  and  O_16
REMARK    6  A    between atoms: C_13  and  O_18
REMARK    7  A    between atoms: C_20  and  C_21
REMARK    8  A    between atoms: C_20  and  O_33
REMARK    9  A    between atoms: C_24  and  O_27
REMARK   10  A    between atoms: C_25  and  O_29
REMARK   11  A    between atoms: C_26  and  O_31
REMARK                            x       y       z     vdW  Elec       q    Type
REMARK                         _______ _______ _______ _____ _____    ______ ____
ROOT
ATOM      1  O   UNL     1     -34.726  24.879   5.741  0.00  0.00    -0.353 OA
ATOM      2  C   UNL     1     -35.443  23.477   4.010  0.00  0.00    +0.070 C 
ATOM      3  C   UNL     1     -36.571  24.461   4.277  0.00  0.00    +0.097 C 
ATOM      4  C   UNL     1     -34.678  23.514   5.317  0.00  0.00    +0.145 C 
ATOM      5  C   UNL     1     -35.954  25.448   5.260  0.00  0.00    +0.150 C 
ENDROOT
BRANCH   3   7
ATOM      6  O   UNL     1     -36.238  25.866   2.394  0.00  0.00    -0.291 OA
ATOM      7  C   UNL     1     -37.013  25.154   3.028  0.00  0.00    +0.175 C 
BRANCH   7   8
ATOM      8  C   UNL     1     -38.415  24.974   2.556  0.00  0.00    +0.041 C 
ATOM      9  C   UNL     1     -39.294  26.028   2.676  0.00  0.00    +0.043 C 
ATOM     10  C   UNL     1     -38.782  23.759   2.019  0.00  0.00    +0.043 C 
ATOM     11  C   UNL     1     -40.094  23.591   1.578  0.00  0.00    +0.176 C 
ATOM     12  C   UNL     1     -40.607  25.858   2.234  0.00  0.00    +0.176 C 
ATOM     13  C   UNL     1     -41.006  24.640   1.685  0.00  0.00    +0.206 C 
BRANCH  11  14
ATOM     14  O   UNL     1     -40.472  22.396   1.044  0.00  0.00    -0.468 OA
ATOM     15  C   UNL     1     -39.442  21.435   0.813  0.00  0.00    +0.253 C 
ENDBRANCH  11  14
BRANCH  12  16
ATOM     16  O   UNL     1     -41.488  26.892   2.343  0.00  0.00    -0.468 OA
ATOM     17  C   UNL     1     -42.075  27.112   3.624  0.00  0.00    +0.253 C 
ENDBRANCH  12  16
BRANCH  13  18
ATOM     18  O   UNL     1     -42.288  24.475   1.253  0.00  0.00    -0.465 OA
ATOM     19  C   UNL     1     -42.556  24.778  -0.115  0.00  0.00    +0.253 C 
ENDBRANCH  13  18
ENDBRANCH   7   8
ENDBRANCH   3   7
BRANCH   2  20
ATOM     20  C   UNL     1     -35.915  22.083   3.631  0.00  0.00    +0.136 C 
BRANCH  20  21
ATOM     21  C   UNL     1     -35.295  21.611   2.340  0.00  0.00    +0.011 C 
ATOM     22  C   UNL     1     -34.903  20.287   2.218  0.00  0.00    +0.038 C 
ATOM     23  C   UNL     1     -35.128  22.509   1.298  0.00  0.00    +0.038 C 
ATOM     24  C   UNL     1     -34.554  22.073   0.103  0.00  0.00    +0.175 C 
ATOM     25  C   UNL     1     -34.329  19.851   1.024  0.00  0.00    +0.175 C 
ATOM     26  C   UNL     1     -34.155  20.743  -0.033  0.00  0.00    +0.206 C 
BRANCH  24  27
ATOM     27  O   UNL     1     -34.389  22.955  -0.921  0.00  0.00    -0.468 OA
ATOM     28  C   UNL     1     -35.571  23.490  -1.513  0.00  0.00    +0.253 C 
ENDBRANCH  24  27
BRANCH  25  29
ATOM     29  O   UNL     1     -33.944  18.549   0.904  0.00  0.00    -0.468 OA
ATOM     30  C   UNL     1     -32.647  18.209   1.391  0.00  0.00    +0.253 C 
ENDBRANCH  25  29
BRANCH  26  31
ATOM     31  O   UNL     1     -33.592  20.317  -1.200  0.00  0.00    -0.465 OA
ATOM     32  C   UNL     1     -34.474  19.787  -2.188  0.00  0.00    +0.253 C 
ENDBRANCH  26  31
ENDBRANCH  20  21
BRANCH  20  33
ATOM     33  O   UNL     1     -35.586  21.173   4.676  0.00  0.00    -0.380 OA
ATOM     34  H   UNL     1     -36.112  21.381   5.464  0.00  0.00    +0.211 HD
ENDBRANCH  20  33
ENDBRANCH   2  20
TORSDOF 11
ENDMDL
MODEL 5
REMARK VINA RESULT:      -5.4      0.642      2.324
REMARK  Name = 21578050
REMARK  11 active torsions:
REMARK  status: ('A' for Active; 'I' for Inactive)
REMARK    1  A    between atoms: C_2  and  C_20
REMARK    2  A    between atoms: C_3  and  C_7
REMARK    3  A    between atoms: C_7  and  C_8
REMARK    4  A    between atoms: C_11  and  O_14
REMARK    5  A    between atoms: C_12  and  O_16
REMARK    6  A    between atoms: C_13  and  O_18
REMARK    7  A    between atoms: C_20  and  C_21
REMARK    8  A    between atoms: C_20  and  O_33
REMARK    9  A    between atoms: C_24  and  O_27
REMARK   10  A    between atoms: C_25  and  O_29
REMARK   11  A    between atoms: C_26  and  O_31
REMARK                            x       y       z     vdW  Elec       q    Type
REMARK                         _______ _______ _______ _____ _____    ______ ____
ROOT
ATOM      1  O   UNL     1     -37.605  19.324  -0.586  0.00  0.00    -0.353 OA
ATOM      2  C   UNL     1     -38.058  21.252   0.660  0.00  0.00    +0.070 C 
ATOM      3  C   UNL     1     -36.758  20.675   1.197  0.00  0.00    +0.097 C 
ATOM      4  C   UNL     1     -38.692  20.042   0.004  0.00  0.00    +0.145 C 
ATOM      5  C   UNL     1     -36.435  19.557   0.214  0.00  0.00    +0.150 C 
ENDROOT
BRANCH   3   7
ATOM      6  O   UNL     1     -34.757  21.670   0.399  0.00  0.00    -0.291 OA
ATOM      7  C   UNL     1     -35.665  21.695   1.225  0.00  0.00    +0.175 C 
BRANCH   7   8
ATOM      8  C   UNL     1     -35.688  22.752   2.275  0.00  0.00    +0.041 C 
ATOM      9  C   UNL     1     -35.847  22.375   3.591  0.00  0.00    +0.043 C 
ATOM     10  C   UNL     1     -35.550  24.068   1.893  0.00  0.00    +0.043 C 
ATOM     11  C   UNL     1     -35.571  25.057   2.876  0.00  0.00    +0.176 C 
ATOM     12  C   UNL     1     -35.868  23.365   4.574  0.00  0.00    +0.176 C 
ATOM     13  C   UNL     1     -35.729  24.706   4.217  0.00  0.00    +0.206 C 
BRANCH  11  14
ATOM     14  O   UNL     1     -35.435  26.364   2.514  0.00  0.00    -0.468 OA
ATOM     15  C   UNL     1     -36.596  27.019   2.005  0.00  0.00    +0.253 C 
ENDBRANCH  11  14
BRANCH  12  16
ATOM     16  O   UNL     1     -36.022  23.008   5.880  0.00  0.00    -0.468 OA
ATOM     17  C   UNL     1     -35.257  21.897   6.344  0.00  0.00    +0.253 C 
ENDBRANCH  12  16
BRANCH  13  18
ATOM     18  O   UNL     1     -35.750  25.673   5.177  0.00  0.00    -0.465 OA
ATOM     19  C   UNL     1     -34.500  26.028   5.765  0.00  0.00    +0.253 C 
ENDBRANCH  13  18
ENDBRANCH   7   8
ENDBRANCH   3   7
BRANCH   2  20
ATOM     20  C   UNL     1     -38.938  21.887   1.724  0.00  0.00    +0.136 C 
BRANCH  20  21
ATOM     21  C   UNL     1     -39.376  23.277   1.336  0.00  0.00    +0.011 C 
ATOM     22  C   UNL     1     -39.551  24.235   2.322  0.00  0.00    +0.038 C 
ATOM     23  C   UNL     1     -39.593  23.573  -0.000  0.00  0.00    +0.038 C 
ATOM     24  C   UNL     1     -39.998  24.859  -0.361  0.00  0.00    +0.175 C 
ATOM     25  C   UNL     1     -39.955  25.521   1.963  0.00  0.00    +0.175 C 
ATOM     26  C   UNL     1     -40.179  25.833   0.622  0.00  0.00    +0.206 C 
BRANCH  24  27
ATOM     27  O   UNL     1     -40.214  25.150  -1.673  0.00  0.00    -0.468 OA
ATOM     28  C   UNL     1     -39.676  24.244  -2.635  0.00  0.00    +0.253 C 
ENDBRANCH  24  27
BRANCH  25  29
ATOM     29  O   UNL     1     -40.128  26.463   2.932  0.00  0.00    -0.468 OA
ATOM     30  C   UNL     1     -41.390  26.487   3.595  0.00  0.00    +0.253 C 
ENDBRANCH  25  29
BRANCH  26  31
ATOM     31  O   UNL     1     -40.576  27.089   0.270  0.00  0.00    -0.465 OA
ATOM     32  C   UNL     1     -39.557  27.999  -0.138  0.00  0.00    +0.253 C 
ENDBRANCH  26  31
ENDBRANCH  20  21
BRANCH  20  33
ATOM     33  O   UNL     1     -40.087  21.070   1.935  0.00  0.00    -0.380 OA
ATOM     34  H   UNL     1     -39.809  20.192   2.236  0.00  0.00    +0.211 HD
ENDBRANCH  20  33
ENDBRANCH   2  20
TORSDOF 11
ENDMDL
MODEL 6
REMARK VINA RESULT:      -5.4      0.685      5.790
REMARK  Name = 21578050
REMARK  11 active torsions:
REMARK  status: ('A' for Active; 'I' for Inactive)
REMARK    1  A    between atoms: C_2  and  C_20
REMARK    2  A    between atoms: C_3  and  C_7
REMARK    3  A    between atoms: C_7  and  C_8
REMARK    4  A    between atoms: C_11  and  O_14
REMARK    5  A    between atoms: C_12  and  O_16
REMARK    6  A    between atoms: C_13  and  O_18
REMARK    7  A    between atoms: C_20  and  C_21
REMARK    8  A    between atoms: C_20  and  O_33
REMARK    9  A    between atoms: C_24  and  O_27
REMARK   10  A    between atoms: C_25  and  O_29
REMARK   11  A    between atoms: C_26  and  O_31
REMARK                            x       y       z     vdW  Elec       q    Type
REMARK                         _______ _______ _______ _____ _____    ______ ____
ROOT
ATOM      1  O   UNL     1     -38.776  19.485  -0.260  0.00  0.00    -0.353 OA
ATOM      2  C   UNL     1     -37.610  21.219   0.794  0.00  0.00    +0.070 C 
ATOM      3  C   UNL     1     -38.900  21.818   0.257  0.00  0.00    +0.097 C 
ATOM      4  C   UNL     1     -37.450  19.987  -0.073  0.00  0.00    +0.145 C 
ATOM      5  C   UNL     1     -39.679  20.601  -0.227  0.00  0.00    +0.150 C 
ENDROOT
BRANCH   3   7
ATOM      6  O   UNL     1     -40.084  21.965   2.308  0.00  0.00    -0.291 OA
ATOM      7  C   UNL     1     -39.657  22.552   1.317  0.00  0.00    +0.175 C 
BRANCH   7   8
ATOM      8  C   UNL     1     -39.893  24.015   1.157  0.00  0.00    +0.041 C 
ATOM      9  C   UNL     1     -40.180  24.764   2.277  0.00  0.00    +0.043 C 
ATOM     10  C   UNL     1     -39.816  24.564  -0.103  0.00  0.00    +0.043 C 
ATOM     11  C   UNL     1     -40.037  25.933  -0.252  0.00  0.00    +0.176 C 
ATOM     12  C   UNL     1     -40.401  26.133   2.128  0.00  0.00    +0.176 C 
ATOM     13  C   UNL     1     -40.329  26.718   0.864  0.00  0.00    +0.206 C 
BRANCH  11  14
ATOM     14  O   UNL     1     -39.964  26.492  -1.492  0.00  0.00    -0.468 OA
ATOM     15  C   UNL     1     -41.020  26.188  -2.403  0.00  0.00    +0.253 C 
ENDBRANCH  11  14
BRANCH  12  16
ATOM     16  O   UNL     1     -40.684  26.890   3.226  0.00  0.00    -0.468 OA
ATOM     17  C   UNL     1     -41.968  26.714   3.822  0.00  0.00    +0.253 C 
ENDBRANCH  12  16
BRANCH  13  18
ATOM     18  O   UNL     1     -40.544  28.056   0.718  0.00  0.00    -0.465 OA
ATOM     19  C   UNL     1     -41.888  28.475   0.486  0.00  0.00    +0.253 C 
ENDBRANCH  13  18
ENDBRANCH   7   8
ENDBRANCH   3   7
BRANCH   2  20
ATOM     20  C   UNL     1     -36.418  22.159   0.727  0.00  0.00    +0.136 C 
BRANCH  20  21
ATOM     21  C   UNL     1     -36.319  23.032   1.953  0.00  0.00    +0.011 C 
ATOM     22  C   UNL     1     -36.303  22.444   3.208  0.00  0.00    +0.038 C 
ATOM     23  C   UNL     1     -36.246  24.408   1.803  0.00  0.00    +0.038 C 
ATOM     24  C   UNL     1     -36.155  25.217   2.937  0.00  0.00    +0.175 C 
ATOM     25  C   UNL     1     -36.213  23.251   4.341  0.00  0.00    +0.175 C 
ATOM     26  C   UNL     1     -36.138  24.637   4.206  0.00  0.00    +0.206 C 
BRANCH  24  27
ATOM     27  O   UNL     1     -36.084  26.568   2.790  0.00  0.00    -0.468 OA
ATOM     28  C   UNL     1     -36.883  27.152   1.763  0.00  0.00    +0.253 C 
ENDBRANCH  24  27
BRANCH  25  29
ATOM     29  O   UNL     1     -36.197  22.673   5.575  0.00  0.00    -0.468 OA
ATOM     30  C   UNL     1     -35.046  21.904   5.915  0.00  0.00    +0.253 C 
ENDBRANCH  25  29
BRANCH  26  31
ATOM     31  O   UNL     1     -36.051  25.428   5.313  0.00  0.00    -0.465 OA
ATOM     32  C   UNL     1     -34.747  25.844   5.711  0.00  0.00    +0.253 C 
ENDBRANCH  26  31
ENDBRANCH  20  21
BRANCH  20  33
ATOM     33  O   UNL     1     -35.222  21.395   0.592  0.00  0.00    -0.380 OA
ATOM     34  H   UNL     1     -35.070  20.886   1.403  0.00  0.00    +0.211 HD
ENDBRANCH  20  33
ENDBRANCH   2  20
TORSDOF 11
ENDMDL
MODEL 7
REMARK VINA RESULT:      -5.3      1.947      3.850
REMARK  Name = 21578050
REMARK  11 active torsions:
REMARK  status: ('A' for Active; 'I' for Inactive)
REMARK    1  A    between atoms: C_2  and  C_20
REMARK    2  A    between atoms: C_3  and  C_7
REMARK    3  A    between atoms: C_7  and  C_8
REMARK    4  A    between atoms: C_11  and  O_14
REMARK    5  A    between atoms: C_12  and  O_16
REMARK    6  A    between atoms: C_13  and  O_18
REMARK    7  A    between atoms: C_20  and  C_21
REMARK    8  A    between atoms: C_20  and  O_33
REMARK    9  A    between atoms: C_24  and  O_27
REMARK   10  A    between atoms: C_25  and  O_29
REMARK   11  A    between atoms: C_26  and  O_31
REMARK                            x       y       z     vdW  Elec       q    Type
REMARK                         _______ _______ _______ _____ _____    ______ ____
ROOT
ATOM      1  O   UNL     1     -33.208  18.719  -0.110  0.00  0.00    -0.353 OA
ATOM      2  C   UNL     1     -35.319  19.642   0.302  0.00  0.00    +0.070 C 
ATOM      3  C   UNL     1     -34.321  20.438   1.127  0.00  0.00    +0.097 C 
ATOM      4  C   UNL     1     -34.575  18.342   0.077  0.00  0.00    +0.145 C 
ATOM      5  C   UNL     1     -32.972  19.913   0.653  0.00  0.00    +0.150 C 
ENDROOT
BRANCH   3   7
ATOM      6  O   UNL     1     -34.025  22.409  -0.162  0.00  0.00    -0.291 OA
ATOM      7  C   UNL     1     -34.440  21.908   0.881  0.00  0.00    +0.175 C 
BRANCH   7   8
ATOM      8  C   UNL     1     -35.071  22.769   1.921  0.00  0.00    +0.041 C 
ATOM      9  C   UNL     1     -35.350  24.082   1.612  0.00  0.00    +0.043 C 
ATOM     10  C   UNL     1     -35.350  22.221   3.153  0.00  0.00    +0.043 C 
ATOM     11  C   UNL     1     -35.941  23.027   4.126  0.00  0.00    +0.176 C 
ATOM     12  C   UNL     1     -35.940  24.888   2.586  0.00  0.00    +0.176 C 
ATOM     13  C   UNL     1     -36.236  24.360   3.843  0.00  0.00    +0.206 C 
BRANCH  11  14
ATOM     14  O   UNL     1     -36.224  22.499   5.350  0.00  0.00    -0.468 OA
ATOM     15  C   UNL     1     -35.187  21.759   5.993  0.00  0.00    +0.253 C 
ENDBRANCH  11  14
BRANCH  12  16
ATOM     16  O   UNL     1     -36.226  26.188   2.297  0.00  0.00    -0.468 OA
ATOM     17  C   UNL     1     -37.413  26.440   1.547  0.00  0.00    +0.253 C 
ENDBRANCH  12  16
BRANCH  13  18
ATOM     18  O   UNL     1     -36.814  25.147   4.795  0.00  0.00    -0.465 OA
ATOM     19  C   UNL     1     -35.937  25.876   5.652  0.00  0.00    +0.253 C 
ENDBRANCH  13  18
ENDBRANCH   7   8
ENDBRANCH   3   7
BRANCH   2  20
ATOM     20  C   UNL     1     -36.667  19.453   0.977  0.00  0.00    +0.136 C 
BRANCH  20  21
ATOM     21  C   UNL     1     -37.690  20.443   0.478  0.00  0.00    +0.011 C 
ATOM     22  C   UNL     1     -37.798  20.682  -0.883  0.00  0.00    +0.038 C 
ATOM     23  C   UNL     1     -38.505  21.095   1.390  0.00  0.00    +0.038 C 
ATOM     24  C   UNL     1     -39.452  22.011   0.930  0.00  0.00    +0.175 C 
ATOM     25  C   UNL     1     -38.744  21.597  -1.343  0.00  0.00    +0.175 C 
ATOM     26  C   UNL     1     -39.571  22.262  -0.438  0.00  0.00    +0.206 C 
BRANCH  24  27
ATOM     27  O   UNL     1     -40.252  22.653   1.825  0.00  0.00    -0.468 OA
ATOM     28  C   UNL     1     -39.647  23.667   2.624  0.00  0.00    +0.253 C 
ENDBRANCH  24  27
BRANCH  25  29
ATOM     29  O   UNL     1     -38.851  21.833  -2.681  0.00  0.00    -0.468 OA
ATOM     30  C   UNL     1     -37.784  22.546  -3.301  0.00  0.00    +0.253 C 
ENDBRANCH  25  29
BRANCH  26  31
ATOM     31  O   UNL     1     -40.495  23.158  -0.887  0.00  0.00    -0.465 OA
ATOM     32  C   UNL     1     -40.079  24.518  -0.994  0.00  0.00    +0.253 C 
ENDBRANCH  26  31
ENDBRANCH  20  21
BRANCH  20  33
ATOM     33  O   UNL     1     -37.133  18.128   0.737  0.00  0.00    -0.380 OA
ATOM     34  H   UNL     1     -36.413  17.593   0.368  0.00  0.00    +0.211 HD
ENDBRANCH  20  33
ENDBRANCH   2  20
TORSDOF 11
ENDMDL
MODEL 8
REMARK VINA RESULT:      -5.3      0.470      5.419
REMARK  Name = 21578050
REMARK  11 active torsions:
REMARK  status: ('A' for Active; 'I' for Inactive)
REMARK    1  A    between atoms: C_2  and  C_20
REMARK    2  A    between atoms: C_3  and  C_7
REMARK    3  A    between atoms: C_7  and  C_8
REMARK    4  A    between atoms: C_11  and  O_14
REMARK    5  A    between atoms: C_12  and  O_16
REMARK    6  A    between atoms: C_13  and  O_18
REMARK    7  A    between atoms: C_20  and  C_21
REMARK    8  A    between atoms: C_20  and  O_33
REMARK    9  A    between atoms: C_24  and  O_27
REMARK   10  A    between atoms: C_25  and  O_29
REMARK   11  A    between atoms: C_26  and  O_31
REMARK                            x       y       z     vdW  Elec       q    Type
REMARK                         _______ _______ _______ _____ _____    ______ ____
ROOT
ATOM      1  O   UNL     1     -38.051  19.206  -0.003  0.00  0.00    -0.353 OA
ATOM      2  C   UNL     1     -37.180  21.158   0.952  0.00  0.00    +0.070 C 
ATOM      3  C   UNL     1     -38.483  21.543   0.270  0.00  0.00    +0.097 C 
ATOM      4  C   UNL     1     -36.810  19.882   0.224  0.00  0.00    +0.145 C 
ATOM      5  C   UNL     1     -39.076  20.202  -0.143  0.00  0.00    +0.150 C 
ENDROOT
BRANCH   3   7
ATOM      6  O   UNL     1     -40.032  21.670   2.064  0.00  0.00    -0.291 OA
ATOM      7  C   UNL     1     -39.403  22.272   1.198  0.00  0.00    +0.175 C 
BRANCH   7   8
ATOM      8  C   UNL     1     -39.552  23.748   1.059  0.00  0.00    +0.041 C 
ATOM      9  C   UNL     1     -39.385  24.315  -0.186  0.00  0.00    +0.043 C 
ATOM     10  C   UNL     1     -39.850  24.492   2.179  0.00  0.00    +0.043 C 
ATOM     11  C   UNL     1     -39.990  25.873   2.048  0.00  0.00    +0.176 C 
ATOM     12  C   UNL     1     -39.524  25.697  -0.315  0.00  0.00    +0.176 C 
ATOM     13  C   UNL     1     -39.827  26.476   0.801  0.00  0.00    +0.206 C 
BRANCH  11  14
ATOM     14  O   UNL     1     -40.285  26.623   3.147  0.00  0.00    -0.468 OA
ATOM     15  C   UNL     1     -41.643  26.624   3.585  0.00  0.00    +0.253 C 
ENDBRANCH  11  14
BRANCH  12  16
ATOM     16  O   UNL     1     -39.364  26.275  -1.539  0.00  0.00    -0.468 OA
ATOM     17  C   UNL     1     -40.340  25.968  -2.534  0.00  0.00    +0.253 C 
ENDBRANCH  12  16
BRANCH  13  18
ATOM     18  O   UNL     1     -39.964  27.826   0.674  0.00  0.00    -0.465 OA
ATOM     19  C   UNL     1     -41.246  28.314   0.284  0.00  0.00    +0.253 C 
ENDBRANCH  13  18
ENDBRANCH   7   8
ENDBRANCH   3   7
BRANCH   2  20
ATOM     20  C   UNL     1     -36.103  22.226   0.875  0.00  0.00    +0.136 C 
BRANCH  20  21
ATOM     21  C   UNL     1     -36.110  23.122   2.089  0.00  0.00    +0.011 C 
ATOM     22  C   UNL     1     -36.083  22.555   3.353  0.00  0.00    +0.038 C 
ATOM     23  C   UNL     1     -36.143  24.497   1.918  0.00  0.00    +0.038 C 
ATOM     24  C   UNL     1     -36.150  25.327   3.040  0.00  0.00    +0.175 C 
ATOM     25  C   UNL     1     -36.090  23.383   4.475  0.00  0.00    +0.175 C 
ATOM     26  C   UNL     1     -36.123  24.769   4.319  0.00  0.00    +0.206 C 
BRANCH  24  27
ATOM     27  O   UNL     1     -36.184  26.677   2.873  0.00  0.00    -0.468 OA
ATOM     28  C   UNL     1     -36.211  27.165   1.533  0.00  0.00    +0.253 C 
ENDBRANCH  24  27
BRANCH  25  29
ATOM     29  O   UNL     1     -36.062  22.826   5.718  0.00  0.00    -0.468 OA
ATOM     30  C   UNL     1     -35.024  21.886   5.984  0.00  0.00    +0.253 C 
ENDBRANCH  25  29
BRANCH  26  31
ATOM     31  O   UNL     1     -36.132  25.580   5.415  0.00  0.00    -0.465 OA
ATOM     32  C   UNL     1     -34.866  26.013   5.909  0.00  0.00    +0.253 C 
ENDBRANCH  26  31
ENDBRANCH  20  21
BRANCH  20  33
ATOM     33  O   UNL     1     -34.827  21.603   0.754  0.00  0.00    -0.380 OA
ATOM     34  H   UNL     1     -34.828  20.766   1.244  0.00  0.00    +0.211 HD
ENDBRANCH  20  33
ENDBRANCH   2  20
TORSDOF 11
ENDMDL
MODEL 9
REMARK VINA RESULT:      -5.3      1.943      4.023
REMARK  Name = 21578050
REMARK  11 active torsions:
REMARK  status: ('A' for Active; 'I' for Inactive)
REMARK    1  A    between atoms: C_2  and  C_20
REMARK    2  A    between atoms: C_3  and  C_7
REMARK    3  A    between atoms: C_7  and  C_8
REMARK    4  A    between atoms: C_11  and  O_14
REMARK    5  A    between atoms: C_12  and  O_16
REMARK    6  A    between atoms: C_13  and  O_18
REMARK    7  A    between atoms: C_20  and  C_21
REMARK    8  A    between atoms: C_20  and  O_33
REMARK    9  A    between atoms: C_24  and  O_27
REMARK   10  A    between atoms: C_25  and  O_29
REMARK   11  A    between atoms: C_26  and  O_31
REMARK                            x       y       z     vdW  Elec       q    Type
REMARK                         _______ _______ _______ _____ _____    ______ ____
ROOT
ATOM      1  O   UNL     1     -33.612  20.154  -0.504  0.00  0.00    -0.353 OA
ATOM      2  C   UNL     1     -35.618  20.791   0.520  0.00  0.00    +0.070 C 
ATOM      3  C   UNL     1     -34.527  21.681   1.094  0.00  0.00    +0.097 C 
ATOM      4  C   UNL     1     -34.822  19.602   0.022  0.00  0.00    +0.145 C 
ATOM      5  C   UNL     1     -33.311  21.345   0.240  0.00  0.00    +0.150 C 
ENDROOT
BRANCH   3   7
ATOM      6  O   UNL     1     -35.170  23.627  -0.103  0.00  0.00    -0.291 OA
ATOM      7  C   UNL     1     -34.875  23.131   0.982  0.00  0.00    +0.175 C 
BRANCH   7   8
ATOM      8  C   UNL     1     -34.860  23.978   2.208  0.00  0.00    +0.041 C 
ATOM      9  C   UNL     1     -34.858  23.358   3.439  0.00  0.00    +0.043 C 
ATOM     10  C   UNL     1     -34.850  25.347   2.068  0.00  0.00    +0.043 C 
ATOM     11  C   UNL     1     -34.836  26.139   3.216  0.00  0.00    +0.176 C 
ATOM     12  C   UNL     1     -34.844  24.150   4.587  0.00  0.00    +0.176 C 
ATOM     13  C   UNL     1     -34.832  25.540   4.476  0.00  0.00    +0.206 C 
BRANCH  11  14
ATOM     14  O   UNL     1     -34.826  27.496   3.093  0.00  0.00    -0.468 OA
ATOM     15  C   UNL     1     -34.743  28.026   1.771  0.00  0.00    +0.253 C 
ENDBRANCH  11  14
BRANCH  12  16
ATOM     16  O   UNL     1     -34.838  23.554   5.812  0.00  0.00    -0.468 OA
ATOM     17  C   UNL     1     -35.592  22.351   5.952  0.00  0.00    +0.253 C 
ENDBRANCH  12  16
BRANCH  13  18
ATOM     18  O   UNL     1     -34.818  26.315   5.598  0.00  0.00    -0.465 OA
ATOM     19  C   UNL     1     -33.544  26.600   6.172  0.00  0.00    +0.253 C 
ENDBRANCH  13  18
ENDBRANCH   7   8
ENDBRANCH   3   7
BRANCH   2  20
ATOM     20  C   UNL     1     -36.697  20.413   1.521  0.00  0.00    +0.136 C 
BRANCH  20  21
ATOM     21  C   UNL     1     -37.904  21.311   1.413  0.00  0.00    +0.011 C 
ATOM     22  C   UNL     1     -38.766  21.166   0.338  0.00  0.00    +0.038 C 
ATOM     23  C   UNL     1     -38.130  22.266   2.392  0.00  0.00    +0.038 C 
ATOM     24  C   UNL     1     -39.246  23.097   2.293  0.00  0.00    +0.175 C 
ATOM     25  C   UNL     1     -39.882  21.996   0.238  0.00  0.00    +0.175 C 
ATOM     26  C   UNL     1     -40.122  22.962   1.216  0.00  0.00    +0.206 C 
BRANCH  24  27
ATOM     27  O   UNL     1     -39.468  24.036   3.254  0.00  0.00    -0.468 OA
ATOM     28  C   UNL     1     -38.469  25.039   3.424  0.00  0.00    +0.253 C 
ENDBRANCH  24  27
BRANCH  25  29
ATOM     29  O   UNL     1     -40.730  21.853  -0.818  0.00  0.00    -0.468 OA
ATOM     30  C   UNL     1     -41.705  20.817  -0.731  0.00  0.00    +0.253 C 
ENDBRANCH  25  29
BRANCH  26  31
ATOM     31  O   UNL     1     -41.212  23.776   1.118  0.00  0.00    -0.465 OA
ATOM     32  C   UNL     1     -41.039  25.009   0.424  0.00  0.00    +0.253 C 
ENDBRANCH  26  31
ENDBRANCH  20  21
BRANCH  20  33
ATOM     33  O   UNL     1     -37.091  19.061   1.303  0.00  0.00    -0.380 OA
ATOM     34  H   UNL     1     -37.164  18.895   0.350  0.00  0.00    +0.211 HD
ENDBRANCH  20  33
ENDBRANCH   2  20
TORSDOF 11
ENDMDL
