MODEL 1
REMARK VINA RESULT:      -5.7      0.000      0.000
REMARK  Name = 5487156
REMARK  14 active torsions:
REMARK  status: ('A' for Active; 'I' for Inactive)
REMARK    1  A    between atoms: CA_1  and  C_4
REMARK    2  A    between atoms: CA_1  and  N_19
REMARK    3  A    between atoms: CA_1  and  CB_27
REMARK    4  A    between atoms: N_3  and  CA_6
REMARK    5  A    between atoms: CA_6  and  C_10
REMARK    6  A    between atoms: N_9  and  CA_12
REMARK    7  A    between atoms: CA_12  and  C_15
REMARK    8  A    between atoms: C_15  and  O_16
REMARK    9  A    between atoms: C_20  and  O_22
REMARK   10  A    between atoms: O_22  and  C_23
REMARK   11  A    between atoms: CB_27  and  CG_28
REMARK   12  A    between atoms: CG_28  and  CD_29
REMARK   13  A    between atoms: CD_29  and  CE_30
REMARK   14  A    between atoms: CE_30  and  NZ_31
REMARK                            x       y       z     vdW  Elec       q    Type
REMARK                         _______ _______ _______ _____ _____    ______ ____
ROOT
ATOM      1  CA  UNL     1     -35.663  23.262   4.004  0.00  0.00    +0.151 C 
ENDROOT
BRANCH   1   4
ATOM      2  O   UNL     1     -35.263  20.984   4.731  0.00  0.00    -0.273 OA
ATOM      3  N   UNL     1     -35.667  21.383   2.481  0.00  0.00    -0.297 N 
ATOM      4  C   UNL     1     -35.521  21.756   3.811  0.00  0.00    +0.241 C 
ATOM      5  H   UNL     1     -35.874  22.078   1.815  0.00  0.00    +0.150 HD
BRANCH   3   6
ATOM      6  CA  UNL     1     -35.527  20.016   2.037  0.00  0.00    +0.149 C 
ATOM      7  CB  UNL     1     -34.136  19.755   1.482  0.00  0.00    +0.031 C 
BRANCH   6  10
ATOM      8  O   UNL     1     -36.492  18.869   0.133  0.00  0.00    -0.273 OA
ATOM      9  N   UNL     1     -37.650  20.647   1.073  0.00  0.00    -0.295 N 
ATOM     10  C   UNL     1     -36.592  19.753   0.982  0.00  0.00    +0.241 C 
ATOM     11  H   UNL     1     -37.638  21.321   1.791  0.00  0.00    +0.150 HD
BRANCH   9  12
ATOM     12  CA  UNL     1     -38.767  20.631   0.157  0.00  0.00    +0.171 C 
ATOM     13  CB  UNL     1     -38.508  21.574  -1.008  0.00  0.00    +0.033 C 
BRANCH  12  15
ATOM     14  OXT UNL     1     -41.123  21.162   0.241  0.00  0.00    -0.248 OA
ATOM     15  C   UNL     1     -40.071  20.990   0.848  0.00  0.00    +0.332 C 
BRANCH  15  16
ATOM     16  O   UNL     1     -39.982  21.119   2.194  0.00  0.00    -0.479 OA
ATOM     17  H   UNL     1     -39.145  21.087   2.614  0.00  0.00    +0.295 HD
ENDBRANCH  15  16
ENDBRANCH  12  15
ENDBRANCH   9  12
ENDBRANCH   6  10
ENDBRANCH   3   6
ENDBRANCH   1   4
BRANCH   1  19
ATOM     18  O   UNL     1     -37.365  23.621   1.677  0.00  0.00    -0.226 OA
ATOM     19  N   UNL     1     -37.072  23.567   3.979  0.00  0.00    -0.264 N 
ATOM     20  C   ACE A   0     -37.805  23.720   2.818  0.00  0.00    +0.402 C 
ATOM     21  H   UNL     1     -37.539  23.672   4.838  0.00  0.00    +0.153 HD
BRANCH  20  22
ATOM     22  O   UNL     1     -39.105  24.004   3.126  0.00  0.00    -0.442 OA
BRANCH  22  23
ATOM     23  C   UNL     1     -39.651  25.174   2.507  0.00  0.00    +0.138 C 
ATOM     24  C   UNL     1     -40.233  24.781   1.150  0.00  0.00    +0.044 C 
ATOM     25  C   UNL     1     -38.512  26.176   2.333  0.00  0.00    +0.044 C 
ATOM     26  C   UNL     1     -40.735  25.747   3.419  0.00  0.00    +0.044 C 
ENDBRANCH  22  23
ENDBRANCH  20  22
ENDBRANCH   1  19
BRANCH   1  27
ATOM     27  CB  UNL     1     -34.995  23.689   5.316  0.00  0.00    +0.029 C 
BRANCH  27  28
ATOM     28  CG  UNL     1     -35.374  25.115   5.731  0.00  0.00    +0.000 C 
BRANCH  28  29
ATOM     29  CD  UNL     1     -34.165  26.053   5.659  0.00  0.00    -0.024 C 
BRANCH  29  30
ATOM     30  CE  UNL     1     -34.075  26.734   4.295  0.00  0.00    -0.086 C 
BRANCH  30  31
ATOM     31  NZ  UNL     1     -35.338  27.385   3.970  0.00  0.00    +0.380 N 
ATOM     32  HZ1 UNL     1     -35.438  27.446   2.957  0.00  0.00    -0.089 HD
ATOM     33  HZ2 UNL     1     -35.350  28.324   4.369  0.00  0.00    -0.089 HD
ATOM     34  HZ3 UNL     1     -36.110  26.843   4.357  0.00  0.00    -0.089 HD
ENDBRANCH  30  31
ENDBRANCH  29  30
ENDBRANCH  28  29
ENDBRANCH  27  28
ENDBRANCH   1  27
TORSDOF 14
ENDMDL
MODEL 2
REMARK VINA RESULT:      -5.6      3.665      6.222
REMARK  Name = 5487156
REMARK  14 active torsions:
REMARK  status: ('A' for Active; 'I' for Inactive)
REMARK    1  A    between atoms: CA_1  and  C_4
REMARK    2  A    between atoms: CA_1  and  N_19
REMARK    3  A    between atoms: CA_1  and  CB_27
REMARK    4  A    between atoms: N_3  and  CA_6
REMARK    5  A    between atoms: CA_6  and  C_10
REMARK    6  A    between atoms: N_9  and  CA_12
REMARK    7  A    between atoms: CA_12  and  C_15
REMARK    8  A    between atoms: C_15  and  O_16
REMARK    9  A    between atoms: C_20  and  O_22
REMARK   10  A    between atoms: O_22  and  C_23
REMARK   11  A    between atoms: CB_27  and  CG_28
REMARK   12  A    between atoms: CG_28  and  CD_29
REMARK   13  A    between atoms: CD_29  and  CE_30
REMARK   14  A    between atoms: CE_30  and  NZ_31
REMARK                            x       y       z     vdW  Elec       q    Type
REMARK                         _______ _______ _______ _____ _____    ______ ____
ROOT
ATOM      1  CA  UNL     1     -33.835  26.052   4.512  0.00  0.00    +0.151 C 
ENDROOT
BRANCH   1   4
ATOM      2  O   UNL     1     -32.143  25.913   2.781  0.00  0.00    -0.273 OA
ATOM      3  N   UNL     1     -34.221  24.956   2.391  0.00  0.00    -0.297 N 
ATOM      4  C   UNL     1     -33.280  25.634   3.155  0.00  0.00    +0.241 C 
ATOM      5  H   UNL     1     -35.108  24.780   2.780  0.00  0.00    +0.150 HD
BRANCH   3   6
ATOM      6  CA  UNL     1     -33.949  24.500   1.048  0.00  0.00    +0.149 C 
ATOM      7  CB  UNL     1     -34.170  25.609   0.032  0.00  0.00    +0.031 C 
BRANCH   6  10
ATOM      8  O   UNL     1     -34.911  22.756  -0.334  0.00  0.00    -0.273 OA
ATOM      9  N   UNL     1     -35.632  22.971   1.862  0.00  0.00    -0.295 N 
ATOM     10  C   UNL     1     -34.857  23.312   0.762  0.00  0.00    +0.241 C 
ATOM     11  H   UNL     1     -35.515  23.477   2.698  0.00  0.00    +0.150 HD
BRANCH   9  12
ATOM     12  CA  UNL     1     -36.605  21.902   1.830  0.00  0.00    +0.171 C 
ATOM     13  CB  UNL     1     -37.917  22.365   2.445  0.00  0.00    +0.033 C 
BRANCH  12  15
ATOM     14  OXT UNL     1     -35.036  20.620   3.149  0.00  0.00    -0.248 OA
ATOM     15  C   UNL     1     -36.099  20.656   2.538  0.00  0.00    +0.332 C 
BRANCH  15  16
ATOM     16  O   UNL     1     -36.911  19.577   2.433  0.00  0.00    -0.479 OA
ATOM     17  H   UNL     1     -37.640  19.481   3.013  0.00  0.00    +0.295 HD
ENDBRANCH  15  16
ENDBRANCH  12  15
ENDBRANCH   9  12
ENDBRANCH   6  10
ENDBRANCH   3   6
ENDBRANCH   1   4
BRANCH   1  19
ATOM     18  O   UNL     1     -32.088  27.046   6.609  0.00  0.00    -0.226 OA
ATOM     19  N   UNL     1     -33.421  27.413   4.745  0.00  0.00    -0.264 N 
ATOM     20  C   ACE A   0     -32.582  27.796   5.773  0.00  0.00    +0.402 C 
ATOM     21  H   UNL     1     -33.755  28.110   4.136  0.00  0.00    +0.153 HD
BRANCH  20  22
ATOM     22  O   UNL     1     -32.379  29.146   5.726  0.00  0.00    -0.442 OA
BRANCH  22  23
ATOM     23  C   UNL     1     -31.040  29.566   5.436  0.00  0.00    +0.138 C 
ATOM     24  C   UNL     1     -30.205  29.443   6.709  0.00  0.00    +0.044 C 
ATOM     25  C   UNL     1     -31.105  31.020   4.974  0.00  0.00    +0.044 C 
ATOM     26  C   UNL     1     -30.481  28.675   4.328  0.00  0.00    +0.044 C 
ENDBRANCH  22  23
ENDBRANCH  20  22
ENDBRANCH   1  19
BRANCH   1  27
ATOM     27  CB  UNL     1     -35.360  25.895   4.527  0.00  0.00    +0.029 C 
BRANCH  27  28
ATOM     28  CG  UNL     1     -35.831  24.834   5.528  0.00  0.00    +0.000 C 
BRANCH  28  29
ATOM     29  CD  UNL     1     -34.948  23.584   5.468  0.00  0.00    -0.024 C 
BRANCH  29  30
ATOM     30  CE  UNL     1     -35.605  22.408   6.188  0.00  0.00    -0.086 C 
BRANCH  30  31
ATOM     31  NZ  UNL     1     -34.791  21.207   6.043  0.00  0.00    +0.380 N 
ATOM     32  HZ1 UNL     1     -33.804  21.464   6.038  0.00  0.00    -0.089 HD
ATOM     33  HZ2 UNL     1     -35.026  20.742   5.167  0.00  0.00    -0.089 HD
ATOM     34  HZ3 UNL     1     -34.974  20.576   6.822  0.00  0.00    -0.089 HD
ENDBRANCH  30  31
ENDBRANCH  29  30
ENDBRANCH  28  29
ENDBRANCH  27  28
ENDBRANCH   1  27
TORSDOF 14
ENDMDL
MODEL 3
REMARK VINA RESULT:      -5.4      2.928      4.504
REMARK  Name = 5487156
REMARK  14 active torsions:
REMARK  status: ('A' for Active; 'I' for Inactive)
REMARK    1  A    between atoms: CA_1  and  C_4
REMARK    2  A    between atoms: CA_1  and  N_19
REMARK    3  A    between atoms: CA_1  and  CB_27
REMARK    4  A    between atoms: N_3  and  CA_6
REMARK    5  A    between atoms: CA_6  and  C_10
REMARK    6  A    between atoms: N_9  and  CA_12
REMARK    7  A    between atoms: CA_12  and  C_15
REMARK    8  A    between atoms: C_15  and  O_16
REMARK    9  A    between atoms: C_20  and  O_22
REMARK   10  A    between atoms: O_22  and  C_23
REMARK   11  A    between atoms: CB_27  and  CG_28
REMARK   12  A    between atoms: CG_28  and  CD_29
REMARK   13  A    between atoms: CD_29  and  CE_30
REMARK   14  A    between atoms: CE_30  and  NZ_31
REMARK                            x       y       z     vdW  Elec       q    Type
REMARK                         _______ _______ _______ _____ _____    ______ ____
ROOT
ATOM      1  CA  UNL     1     -34.259  26.330   4.673  0.00  0.00    +0.151 C 
ENDROOT
BRANCH   1   4
ATOM      2  O   UNL     1     -36.391  25.616   5.583  0.00  0.00    -0.273 OA
ATOM      3  N   UNL     1     -34.919  24.006   4.790  0.00  0.00    -0.297 N 
ATOM      4  C   UNL     1     -35.323  25.307   5.058  0.00  0.00    +0.241 C 
ATOM      5  H   UNL     1     -34.042  23.861   4.366  0.00  0.00    +0.150 HD
BRANCH   3   6
ATOM      6  CA  UNL     1     -35.733  22.857   5.111  0.00  0.00    +0.149 C 
ATOM      7  CB  UNL     1     -34.984  21.880   6.003  0.00  0.00    +0.031 C 
BRANCH   6  10
ATOM      8  O   UNL     1     -35.440  21.383   3.210  0.00  0.00    -0.273 OA
ATOM      9  N   UNL     1     -37.381  22.647   3.357  0.00  0.00    -0.295 N 
ATOM     10  C   UNL     1     -36.147  22.195   3.805  0.00  0.00    +0.241 C 
ATOM     11  H   UNL     1     -37.872  23.300   3.907  0.00  0.00    +0.150 HD
BRANCH   9  12
ATOM     12  CA  UNL     1     -37.973  22.200   2.118  0.00  0.00    +0.171 C 
ATOM     13  CB  UNL     1     -37.539  23.100   0.970  0.00  0.00    +0.033 C 
BRANCH  12  15
ATOM     14  OXT UNL     1     -40.200  23.140   2.096  0.00  0.00    -0.248 OA
ATOM     15  C   UNL     1     -39.490  22.146   2.203  0.00  0.00    +0.332 C 
BRANCH  15  16
ATOM     16  O   UNL     1     -40.001  20.910   2.418  0.00  0.00    -0.479 OA
ATOM     17  H   UNL     1     -39.443  20.159   2.381  0.00  0.00    +0.295 HD
ENDBRANCH  15  16
ENDBRANCH  12  15
ENDBRANCH   9  12
ENDBRANCH   6  10
ENDBRANCH   3   6
ENDBRANCH   1   4
BRANCH   1  19
ATOM     18  O   UNL     1     -34.750  26.742   1.840  0.00  0.00    -0.226 OA
ATOM     19  N   UNL     1     -34.935  27.437   4.046  0.00  0.00    -0.264 N 
ATOM     20  C   ACE A   0     -35.124  27.551   2.683  0.00  0.00    +0.402 C 
ATOM     21  H   UNL     1     -35.283  28.155   4.623  0.00  0.00    +0.153 HD
BRANCH  20  22
ATOM     22  O   UNL     1     -35.796  28.708   2.404  0.00  0.00    -0.442 OA
BRANCH  22  23
ATOM     23  C   UNL     1     -34.980  29.830   2.045  0.00  0.00    +0.138 C 
ATOM     24  C   UNL     1     -33.513  29.425   2.168  0.00  0.00    +0.044 C 
ATOM     25  C   UNL     1     -35.308  30.964   3.015  0.00  0.00    +0.044 C 
ATOM     26  C   UNL     1     -35.316  30.237   0.611  0.00  0.00    +0.044 C 
ENDBRANCH  22  23
ENDBRANCH  20  22
ENDBRANCH   1  19
BRANCH   1  27
ATOM     27  CB  UNL     1     -33.465  26.755   5.914  0.00  0.00    +0.029 C 
BRANCH  27  28
ATOM     28  CG  UNL     1     -32.333  27.732   5.581  0.00  0.00    +0.000 C 
BRANCH  28  29
ATOM     29  CD  UNL     1     -31.958  28.582   6.798  0.00  0.00    -0.024 C 
BRANCH  29  30
ATOM     30  CE  UNL     1     -31.589  30.006   6.385  0.00  0.00    -0.086 C 
BRANCH  30  31
ATOM     31  NZ  UNL     1     -32.604  30.554   5.494  0.00  0.00    +0.380 N 
ATOM     32  HZ1 UNL     1     -33.022  31.379   5.923  0.00  0.00    -0.089 HD
ATOM     33  HZ2 UNL     1     -33.327  29.853   5.330  0.00  0.00    -0.089 HD
ATOM     34  HZ3 UNL     1     -32.174  30.812   4.606  0.00  0.00    -0.089 HD
ENDBRANCH  30  31
ENDBRANCH  29  30
ENDBRANCH  28  29
ENDBRANCH  27  28
ENDBRANCH   1  27
TORSDOF 14
ENDMDL
MODEL 4
REMARK VINA RESULT:      -5.3      2.669      4.712
REMARK  Name = 5487156
REMARK  14 active torsions:
REMARK  status: ('A' for Active; 'I' for Inactive)
REMARK    1  A    between atoms: CA_1  and  C_4
REMARK    2  A    between atoms: CA_1  and  N_19
REMARK    3  A    between atoms: CA_1  and  CB_27
REMARK    4  A    between atoms: N_3  and  CA_6
REMARK    5  A    between atoms: CA_6  and  C_10
REMARK    6  A    between atoms: N_9  and  CA_12
REMARK    7  A    between atoms: CA_12  and  C_15
REMARK    8  A    between atoms: C_15  and  O_16
REMARK    9  A    between atoms: C_20  and  O_22
REMARK   10  A    between atoms: O_22  and  C_23
REMARK   11  A    between atoms: CB_27  and  CG_28
REMARK   12  A    between atoms: CG_28  and  CD_29
REMARK   13  A    between atoms: CD_29  and  CE_30
REMARK   14  A    between atoms: CE_30  and  NZ_31
REMARK                            x       y       z     vdW  Elec       q    Type
REMARK                         _______ _______ _______ _____ _____    ______ ____
ROOT
ATOM      1  CA  UNL     1     -35.940  22.562   2.657  0.00  0.00    +0.151 C 
ENDROOT
BRANCH   1   4
ATOM      2  O   UNL     1     -35.294  20.448   3.655  0.00  0.00    -0.273 OA
ATOM      3  N   UNL     1     -34.943  20.765   1.382  0.00  0.00    -0.297 N 
ATOM      4  C   UNL     1     -35.380  21.144   2.645  0.00  0.00    +0.241 C 
ATOM      5  H   UNL     1     -35.057  21.395   0.634  0.00  0.00    +0.150 HD
BRANCH   3   6
ATOM      6  CA  UNL     1     -34.328  19.484   1.124  0.00  0.00    +0.149 C 
ATOM      7  CB  UNL     1     -32.852  19.636   0.791  0.00  0.00    +0.031 C 
BRANCH   6  10
ATOM      8  O   UNL     1     -34.809  19.024  -1.206  0.00  0.00    -0.273 OA
ATOM      9  N   UNL     1     -36.116  18.018   0.427  0.00  0.00    -0.295 N 
ATOM     10  C   UNL     1     -35.080  18.824  -0.023  0.00  0.00    +0.241 C 
ATOM     11  H   UNL     1     -36.252  17.921   1.397  0.00  0.00    +0.150 HD
BRANCH   9  12
ATOM     12  CA  UNL     1     -37.004  17.315  -0.471  0.00  0.00    +0.171 C 
ATOM     13  CB  UNL     1     -38.266  18.130  -0.710  0.00  0.00    +0.033 C 
BRANCH  12  15
ATOM     14  OXT UNL     1     -38.456  15.414  -0.123  0.00  0.00    -0.248 OA
ATOM     15  C   UNL     1     -37.358  15.932   0.051  0.00  0.00    +0.332 C 
BRANCH  15  16
ATOM     16  O   UNL     1     -36.367  15.315   0.738  0.00  0.00    -0.479 OA
ATOM     17  H   UNL     1     -36.414  14.394   0.904  0.00  0.00    +0.295 HD
ENDBRANCH  15  16
ENDBRANCH  12  15
ENDBRANCH   9  12
ENDBRANCH   6  10
ENDBRANCH   3   6
ENDBRANCH   1   4
BRANCH   1  19
ATOM     18  O   UNL     1     -35.965  23.255   5.478  0.00  0.00    -0.226 OA
ATOM     19  N   UNL     1     -35.000  23.389   3.371  0.00  0.00    -0.264 N 
ATOM     20  C   ACE A   0     -35.091  23.666   4.722  0.00  0.00    +0.402 C 
ATOM     21  H   UNL     1     -34.250  23.778   2.868  0.00  0.00    +0.153 HD
BRANCH  20  22
ATOM     22  O   UNL     1     -34.055  24.474   5.098  0.00  0.00    -0.442 OA
BRANCH  22  23
ATOM     23  C   UNL     1     -34.350  25.874   5.164  0.00  0.00    +0.138 C 
ATOM     24  C   UNL     1     -35.858  26.047   5.331  0.00  0.00    +0.044 C 
ATOM     25  C   UNL     1     -33.879  26.504   3.854  0.00  0.00    +0.044 C 
ATOM     26  C   UNL     1     -33.597  26.475   6.349  0.00  0.00    +0.044 C 
ENDBRANCH  22  23
ENDBRANCH  20  22
ENDBRANCH   1  19
BRANCH   1  27
ATOM     27  CB  UNL     1     -36.174  23.047   1.222  0.00  0.00    +0.029 C 
BRANCH  27  28
ATOM     28  CG  UNL     1     -37.641  23.397   0.951  0.00  0.00    +0.000 C 
BRANCH  28  29
ATOM     29  CD  UNL     1     -38.463  23.380   2.244  0.00  0.00    -0.024 C 
BRANCH  29  30
ATOM     30  CE  UNL     1     -39.651  22.427   2.130  0.00  0.00    -0.086 C 
BRANCH  30  31
ATOM     31  NZ  UNL     1     -39.192  21.043   2.136  0.00  0.00    +0.380 N 
ATOM     32  HZ1 UNL     1     -38.796  20.813   1.224  0.00  0.00    -0.089 HD
ATOM     33  HZ2 UNL     1     -39.979  20.424   2.330  0.00  0.00    -0.089 HD
ATOM     34  HZ3 UNL     1     -38.480  20.923   2.856  0.00  0.00    -0.089 HD
ENDBRANCH  30  31
ENDBRANCH  29  30
ENDBRANCH  28  29
ENDBRANCH  27  28
ENDBRANCH   1  27
TORSDOF 14
ENDMDL
MODEL 5
REMARK VINA RESULT:      -5.3      2.945      5.990
REMARK  Name = 5487156
REMARK  14 active torsions:
REMARK  status: ('A' for Active; 'I' for Inactive)
REMARK    1  A    between atoms: CA_1  and  C_4
REMARK    2  A    between atoms: CA_1  and  N_19
REMARK    3  A    between atoms: CA_1  and  CB_27
REMARK    4  A    between atoms: N_3  and  CA_6
REMARK    5  A    between atoms: CA_6  and  C_10
REMARK    6  A    between atoms: N_9  and  CA_12
REMARK    7  A    between atoms: CA_12  and  C_15
REMARK    8  A    between atoms: C_15  and  O_16
REMARK    9  A    between atoms: C_20  and  O_22
REMARK   10  A    between atoms: O_22  and  C_23
REMARK   11  A    between atoms: CB_27  and  CG_28
REMARK   12  A    between atoms: CG_28  and  CD_29
REMARK   13  A    between atoms: CD_29  and  CE_30
REMARK   14  A    between atoms: CE_30  and  NZ_31
REMARK                            x       y       z     vdW  Elec       q    Type
REMARK                         _______ _______ _______ _____ _____    ______ ____
ROOT
ATOM      1  CA  UNL     1     -35.264  26.159   3.982  0.00  0.00    +0.151 C 
ENDROOT
BRANCH   1   4
ATOM      2  O   UNL     1     -36.208  27.370   2.105  0.00  0.00    -0.273 OA
ATOM      3  N   UNL     1     -37.391  25.579   2.988  0.00  0.00    -0.297 N 
ATOM      4  C   UNL     1     -36.309  26.446   2.909  0.00  0.00    +0.241 C 
ATOM      5  H   UNL     1     -37.379  24.869   3.669  0.00  0.00    +0.150 HD
BRANCH   3   6
ATOM      6  CA  UNL     1     -38.534  25.681   2.110  0.00  0.00    +0.149 C 
ATOM      7  CB  UNL     1     -39.806  25.969   2.890  0.00  0.00    +0.031 C 
BRANCH   6  10
ATOM      8  O   UNL     1     -39.274  24.270   0.283  0.00  0.00    -0.273 OA
ATOM      9  N   UNL     1     -38.016  23.325   1.989  0.00  0.00    -0.295 N 
ATOM     10  C   UNL     1     -38.652  24.373   1.339  0.00  0.00    +0.241 C 
ATOM     11  H   UNL     1     -37.542  23.509   2.832  0.00  0.00    +0.150 HD
BRANCH   9  12
ATOM     12  CA  UNL     1     -38.022  21.973   1.479  0.00  0.00    +0.171 C 
ATOM     13  CB  UNL     1     -39.279  21.244   1.929  0.00  0.00    +0.033 C 
BRANCH  12  15
ATOM     14  OXT UNL     1     -35.647  21.534   1.581  0.00  0.00    -0.248 OA
ATOM     15  C   UNL     1     -36.782  21.203   1.904  0.00  0.00    +0.332 C 
BRANCH  15  16
ATOM     16  O   UNL     1     -37.029  20.108   2.663  0.00  0.00    -0.479 OA
ATOM     17  H   UNL     1     -37.691  19.498   2.405  0.00  0.00    +0.295 HD
ENDBRANCH  15  16
ENDBRANCH  12  15
ENDBRANCH   9  12
ENDBRANCH   6  10
ENDBRANCH   3   6
ENDBRANCH   1   4
BRANCH   1  19
ATOM     18  O   UNL     1     -32.434  26.748   3.701  0.00  0.00    -0.226 OA
ATOM     19  N   UNL     1     -34.588  27.400   4.266  0.00  0.00    -0.264 N 
ATOM     20  C   ACE A   0     -33.230  27.591   4.102  0.00  0.00    +0.402 C 
ATOM     21  H   UNL     1     -35.126  28.155   4.596  0.00  0.00    +0.153 HD
BRANCH  20  22
ATOM     22  O   UNL     1     -32.897  28.868   4.455  0.00  0.00    -0.442 OA
BRANCH  22  23
ATOM     23  C   UNL     1     -31.883  28.992   5.460  0.00  0.00    +0.138 C 
ATOM     24  C   UNL     1     -32.147  27.953   6.547  0.00  0.00    +0.044 C 
ATOM     25  C   UNL     1     -31.975  30.405   6.032  0.00  0.00    +0.044 C 
ATOM     26  C   UNL     1     -30.521  28.765   4.807  0.00  0.00    +0.044 C 
ENDBRANCH  22  23
ENDBRANCH  20  22
ENDBRANCH   1  19
BRANCH   1  27
ATOM     27  CB  UNL     1     -35.936  25.560   5.223  0.00  0.00    +0.029 C 
BRANCH  27  28
ATOM     28  CG  UNL     1     -35.196  24.328   5.755  0.00  0.00    +0.000 C 
BRANCH  28  29
ATOM     29  CD  UNL     1     -35.019  23.272   4.660  0.00  0.00    -0.024 C 
BRANCH  29  30
ATOM     30  CE  UNL     1     -35.207  21.862   5.217  0.00  0.00    -0.086 C 
BRANCH  30  31
ATOM     31  NZ  UNL     1     -36.027  21.899   6.422  0.00  0.00    +0.380 N 
ATOM     32  HZ1 UNL     1     -37.012  21.831   6.165  0.00  0.00    -0.089 HD
ATOM     33  HZ2 UNL     1     -35.864  22.775   6.918  0.00  0.00    -0.089 HD
ATOM     34  HZ3 UNL     1     -35.779  21.116   7.027  0.00  0.00    -0.089 HD
ENDBRANCH  30  31
ENDBRANCH  29  30
ENDBRANCH  28  29
ENDBRANCH  27  28
ENDBRANCH   1  27
TORSDOF 14
ENDMDL
MODEL 6
REMARK VINA RESULT:      -5.3      1.547      4.356
REMARK  Name = 5487156
REMARK  14 active torsions:
REMARK  status: ('A' for Active; 'I' for Inactive)
REMARK    1  A    between atoms: CA_1  and  C_4
REMARK    2  A    between atoms: CA_1  and  N_19
REMARK    3  A    between atoms: CA_1  and  CB_27
REMARK    4  A    between atoms: N_3  and  CA_6
REMARK    5  A    between atoms: CA_6  and  C_10
REMARK    6  A    between atoms: N_9  and  CA_12
REMARK    7  A    between atoms: CA_12  and  C_15
REMARK    8  A    between atoms: C_15  and  O_16
REMARK    9  A    between atoms: C_20  and  O_22
REMARK   10  A    between atoms: O_22  and  C_23
REMARK   11  A    between atoms: CB_27  and  CG_28
REMARK   12  A    between atoms: CG_28  and  CD_29
REMARK   13  A    between atoms: CD_29  and  CE_30
REMARK   14  A    between atoms: CE_30  and  NZ_31
REMARK                            x       y       z     vdW  Elec       q    Type
REMARK                         _______ _______ _______ _____ _____    ______ ____
ROOT
ATOM      1  CA  UNL     1     -35.963  23.180   4.536  0.00  0.00    +0.151 C 
ENDROOT
BRANCH   1   4
ATOM      2  O   UNL     1     -35.572  24.556   2.579  0.00  0.00    -0.273 OA
ATOM      3  N   UNL     1     -37.734  24.378   3.405  0.00  0.00    -0.297 N 
ATOM      4  C   UNL     1     -36.374  24.096   3.389  0.00  0.00    +0.241 C 
ATOM      5  H   UNL     1     -38.295  23.958   4.097  0.00  0.00    +0.150 HD
BRANCH   3   6
ATOM      6  CA  UNL     1     -38.356  25.262   2.448  0.00  0.00    +0.149 C 
ATOM      7  CB  UNL     1     -39.673  25.808   2.975  0.00  0.00    +0.031 C 
BRANCH   6  10
ATOM      8  O   UNL     1     -37.973  24.744   0.112  0.00  0.00    -0.273 OA
ATOM      9  N   UNL     1     -39.527  23.491   1.296  0.00  0.00    -0.295 N 
ATOM     10  C   UNL     1     -38.567  24.484   1.157  0.00  0.00    +0.241 C 
ATOM     11  H   UNL     1     -39.946  23.360   2.177  0.00  0.00    +0.150 HD
BRANCH   9  12
ATOM     12  CA  UNL     1     -39.936  22.642   0.201  0.00  0.00    +0.171 C 
ATOM     13  CB  UNL     1     -41.233  23.155  -0.408  0.00  0.00    +0.033 C 
BRANCH  12  15
ATOM     14  OXT UNL     1     -40.151  20.262  -0.161  0.00  0.00    -0.248 OA
ATOM     15  C   UNL     1     -40.091  21.194   0.635  0.00  0.00    +0.332 C 
BRANCH  15  16
ATOM     16  O   UNL     1     -40.171  21.009   1.974  0.00  0.00    -0.479 OA
ATOM     17  H   UNL     1     -39.740  21.604   2.556  0.00  0.00    +0.295 HD
ENDBRANCH  15  16
ENDBRANCH  12  15
ENDBRANCH   9  12
ENDBRANCH   6  10
ENDBRANCH   3   6
ENDBRANCH   1   4
BRANCH   1  19
ATOM     18  O   UNL     1     -37.302  21.571   2.522  0.00  0.00    -0.226 OA
ATOM     19  N   UNL     1     -35.514  21.939   3.956  0.00  0.00    -0.264 N 
ATOM     20  C   ACE A   0     -36.221  21.239   2.997  0.00  0.00    +0.402 C 
ATOM     21  H   UNL     1     -34.654  21.570   4.260  0.00  0.00    +0.153 HD
BRANCH  20  22
ATOM     22  O   UNL     1     -35.535  20.109   2.651  0.00  0.00    -0.442 OA
BRANCH  22  23
ATOM     23  C   UNL     1     -34.944  20.114   1.346  0.00  0.00    +0.138 C 
ATOM     24  C   UNL     1     -35.959  19.558   0.350  0.00  0.00    +0.044 C 
ATOM     25  C   UNL     1     -33.703  19.226   1.400  0.00  0.00    +0.044 C 
ATOM     26  C   UNL     1     -34.562  21.550   0.991  0.00  0.00    +0.044 C 
ENDBRANCH  22  23
ENDBRANCH  20  22
ENDBRANCH   1  19
BRANCH   1  27
ATOM     27  CB  UNL     1     -34.879  23.855   5.385  0.00  0.00    +0.029 C 
BRANCH  27  28
ATOM     28  CG  UNL     1     -35.285  25.258   5.849  0.00  0.00    +0.000 C 
BRANCH  28  29
ATOM     29  CD  UNL     1     -34.082  26.206   5.863  0.00  0.00    -0.024 C 
BRANCH  29  30
ATOM     30  CE  UNL     1     -33.866  26.843   4.491  0.00  0.00    -0.086 C 
BRANCH  30  31
ATOM     31  NZ  UNL     1     -35.119  27.388   3.982  0.00  0.00    +0.380 N 
ATOM     32  HZ1 UNL     1     -35.471  28.092   4.630  0.00  0.00    -0.089 HD
ATOM     33  HZ2 UNL     1     -35.803  26.638   3.891  0.00  0.00    -0.089 HD
ATOM     34  HZ3 UNL     1     -34.959  27.814   3.070  0.00  0.00    -0.089 HD
ENDBRANCH  30  31
ENDBRANCH  29  30
ENDBRANCH  28  29
ENDBRANCH  27  28
ENDBRANCH   1  27
TORSDOF 14
ENDMDL
MODEL 7
REMARK VINA RESULT:      -5.2      2.840      5.097
REMARK  Name = 5487156
REMARK  14 active torsions:
REMARK  status: ('A' for Active; 'I' for Inactive)
REMARK    1  A    between atoms: CA_1  and  C_4
REMARK    2  A    between atoms: CA_1  and  N_19
REMARK    3  A    between atoms: CA_1  and  CB_27
REMARK    4  A    between atoms: N_3  and  CA_6
REMARK    5  A    between atoms: CA_6  and  C_10
REMARK    6  A    between atoms: N_9  and  CA_12
REMARK    7  A    between atoms: CA_12  and  C_15
REMARK    8  A    between atoms: C_15  and  O_16
REMARK    9  A    between atoms: C_20  and  O_22
REMARK   10  A    between atoms: O_22  and  C_23
REMARK   11  A    between atoms: CB_27  and  CG_28
REMARK   12  A    between atoms: CG_28  and  CD_29
REMARK   13  A    between atoms: CD_29  and  CE_30
REMARK   14  A    between atoms: CE_30  and  NZ_31
REMARK                            x       y       z     vdW  Elec       q    Type
REMARK                         _______ _______ _______ _____ _____    ______ ____
ROOT
ATOM      1  CA  UNL     1     -35.841  26.096   3.770  0.00  0.00    +0.151 C 
ENDROOT
BRANCH   1   4
ATOM      2  O   UNL     1     -37.521  26.876   2.205  0.00  0.00    -0.273 OA
ATOM      3  N   UNL     1     -37.749  24.757   3.125  0.00  0.00    -0.297 N 
ATOM      4  C   UNL     1     -37.108  25.974   2.931  0.00  0.00    +0.241 C 
ATOM      5  H   UNL     1     -37.337  24.097   3.728  0.00  0.00    +0.150 HD
BRANCH   3   6
ATOM      6  CA  UNL     1     -38.996  24.423   2.478  0.00  0.00    +0.149 C 
ATOM      7  CB  UNL     1     -40.188  24.839   3.325  0.00  0.00    +0.031 C 
BRANCH   6  10
ATOM      8  O   UNL     1     -40.040  22.257   2.173  0.00  0.00    -0.273 OA
ATOM      9  N   UNL     1     -37.725  22.404   2.103  0.00  0.00    -0.295 N 
ATOM     10  C   UNL     1     -39.006  22.922   2.224  0.00  0.00    +0.241 C 
ATOM     11  H   UNL     1     -36.959  23.020   2.158  0.00  0.00    +0.150 HD
BRANCH   9  12
ATOM     12  CA  UNL     1     -37.468  20.997   1.900  0.00  0.00    +0.171 C 
ATOM     13  CB  UNL     1     -36.030  20.664   2.270  0.00  0.00    +0.033 C 
BRANCH  12  15
ATOM     14  OXT UNL     1     -36.964  20.727  -0.448  0.00  0.00    -0.248 OA
ATOM     15  C   UNL     1     -37.759  20.568   0.471  0.00  0.00    +0.332 C 
BRANCH  15  16
ATOM     16  O   UNL     1     -38.976  20.004   0.287  0.00  0.00    -0.479 OA
ATOM     17  H   UNL     1     -39.305  19.383   0.907  0.00  0.00    +0.295 HD
ENDBRANCH  15  16
ENDBRANCH  12  15
ENDBRANCH   9  12
ENDBRANCH   6  10
ENDBRANCH   3   6
ENDBRANCH   1   4
BRANCH   1  19
ATOM     18  O   UNL     1     -33.370  27.343   2.890  0.00  0.00    -0.226 OA
ATOM     19  N   UNL     1     -35.492  27.493   3.819  0.00  0.00    -0.264 N 
ATOM     20  C   ACE A   0     -34.286  28.000   3.374  0.00  0.00    +0.402 C 
ATOM     21  H   UNL     1     -36.150  28.124   4.190  0.00  0.00    +0.153 HD
BRANCH  20  22
ATOM     22  O   UNL     1     -34.259  29.354   3.555  0.00  0.00    -0.442 OA
BRANCH  22  23
ATOM     23  C   UNL     1     -34.547  30.144   2.394  0.00  0.00    +0.138 C 
ATOM     24  C   UNL     1     -35.053  29.218   1.290  0.00  0.00    +0.044 C 
ATOM     25  C   UNL     1     -33.249  30.827   1.970  0.00  0.00    +0.044 C 
ATOM     26  C   UNL     1     -35.605  31.182   2.763  0.00  0.00    +0.044 C 
ENDBRANCH  22  23
ENDBRANCH  20  22
ENDBRANCH   1  19
BRANCH   1  27
ATOM     27  CB  UNL     1     -36.075  25.503   5.165  0.00  0.00    +0.029 C 
BRANCH  27  28
ATOM     28  CG  UNL     1     -34.934  24.583   5.611  0.00  0.00    +0.000 C 
BRANCH  28  29
ATOM     29  CD  UNL     1     -34.923  23.281   4.804  0.00  0.00    -0.024 C 
BRANCH  29  30
ATOM     30  CE  UNL     1     -34.890  22.062   5.723  0.00  0.00    -0.086 C 
BRANCH  30  31
ATOM     31  NZ  UNL     1     -36.131  21.967   6.483  0.00  0.00    +0.380 N 
ATOM     32  HZ1 UNL     1     -36.265  22.823   7.022  0.00  0.00    -0.089 HD
ATOM     33  HZ2 UNL     1     -36.082  21.170   7.117  0.00  0.00    -0.089 HD
ATOM     34  HZ3 UNL     1     -36.914  21.843   5.842  0.00  0.00    -0.089 HD
ENDBRANCH  30  31
ENDBRANCH  29  30
ENDBRANCH  28  29
ENDBRANCH  27  28
ENDBRANCH   1  27
TORSDOF 14
ENDMDL
MODEL 8
REMARK VINA RESULT:      -5.2      3.593      5.670
REMARK  Name = 5487156
REMARK  14 active torsions:
REMARK  status: ('A' for Active; 'I' for Inactive)
REMARK    1  A    between atoms: CA_1  and  C_4
REMARK    2  A    between atoms: CA_1  and  N_19
REMARK    3  A    between atoms: CA_1  and  CB_27
REMARK    4  A    between atoms: N_3  and  CA_6
REMARK    5  A    between atoms: CA_6  and  C_10
REMARK    6  A    between atoms: N_9  and  CA_12
REMARK    7  A    between atoms: CA_12  and  C_15
REMARK    8  A    between atoms: C_15  and  O_16
REMARK    9  A    between atoms: C_20  and  O_22
REMARK   10  A    between atoms: O_22  and  C_23
REMARK   11  A    between atoms: CB_27  and  CG_28
REMARK   12  A    between atoms: CG_28  and  CD_29
REMARK   13  A    between atoms: CD_29  and  CE_30
REMARK   14  A    between atoms: CE_30  and  NZ_31
REMARK                            x       y       z     vdW  Elec       q    Type
REMARK                         _______ _______ _______ _____ _____    ______ ____
ROOT
ATOM      1  CA  UNL     1     -33.394  26.681   5.284  0.00  0.00    +0.151 C 
ENDROOT
BRANCH   1   4
ATOM      2  O   UNL     1     -35.724  26.284   5.828  0.00  0.00    -0.273 OA
ATOM      3  N   UNL     1     -34.468  24.539   4.955  0.00  0.00    -0.297 N 
ATOM      4  C   UNL     1     -34.666  25.846   5.381  0.00  0.00    +0.241 C 
ATOM      5  H   UNL     1     -33.581  24.283   4.612  0.00  0.00    +0.150 HD
BRANCH   3   6
ATOM      6  CA  UNL     1     -35.511  23.541   4.997  0.00  0.00    +0.149 C 
ATOM      7  CB  UNL     1     -35.146  22.398   5.930  0.00  0.00    +0.031 C 
BRANCH   6  10
ATOM      8  O   UNL     1     -34.894  23.147   2.686  0.00  0.00    -0.273 OA
ATOM      9  N   UNL     1     -36.995  22.480   3.413  0.00  0.00    -0.295 N 
ATOM     10  C   UNL     1     -35.733  23.035   3.578  0.00  0.00    +0.241 C 
ATOM     11  H   UNL     1     -37.597  22.435   4.192  0.00  0.00    +0.150 HD
BRANCH   9  12
ATOM     12  CA  UNL     1     -37.462  21.967   2.146  0.00  0.00    +0.171 C 
ATOM     13  CB  UNL     1     -38.976  21.816   2.164  0.00  0.00    +0.033 C 
BRANCH  12  15
ATOM     14  OXT UNL     1     -36.196  20.459   0.744  0.00  0.00    -0.248 OA
ATOM     15  C   UNL     1     -36.803  20.644   1.794  0.00  0.00    +0.332 C 
BRANCH  15  16
ATOM     16  O   UNL     1     -36.947  19.673   2.728  0.00  0.00    -0.479 OA
ATOM     17  H   UNL     1     -37.791  19.300   2.890  0.00  0.00    +0.295 HD
ENDBRANCH  15  16
ENDBRANCH  12  15
ENDBRANCH   9  12
ENDBRANCH   6  10
ENDBRANCH   3   6
ENDBRANCH   1   4
BRANCH   1  19
ATOM     18  O   UNL     1     -33.172  27.064   2.413  0.00  0.00    -0.226 OA
ATOM     19  N   UNL     1     -33.714  27.863   4.524  0.00  0.00    -0.264 N 
ATOM     20  C   ACE A   0     -33.576  27.956   3.152  0.00  0.00    +0.402 C 
ATOM     21  H   UNL     1     -34.050  28.650   5.010  0.00  0.00    +0.153 HD
BRANCH  20  22
ATOM     22  O   UNL     1     -33.959  29.198   2.732  0.00  0.00    -0.442 OA
BRANCH  22  23
ATOM     23  C   UNL     1     -32.896  30.085   2.361  0.00  0.00    +0.138 C 
ATOM     24  C   UNL     1     -31.662  29.740   3.191  0.00  0.00    +0.044 C 
ATOM     25  C   UNL     1     -33.362  31.509   2.657  0.00  0.00    +0.044 C 
ATOM     26  C   UNL     1     -32.617  29.911   0.869  0.00  0.00    +0.044 C 
ENDBRANCH  22  23
ENDBRANCH  20  22
ENDBRANCH   1  19
BRANCH   1  27
ATOM     27  CB  UNL     1     -32.874  27.011   6.688  0.00  0.00    +0.029 C 
BRANCH  27  28
ATOM     28  CG  UNL     1     -32.119  28.344   6.736  0.00  0.00    +0.000 C 
BRANCH  28  29
ATOM     29  CD  UNL     1     -30.641  28.157   6.380  0.00  0.00    -0.024 C 
BRANCH  29  30
ATOM     30  CE  UNL     1     -29.838  29.423   6.675  0.00  0.00    -0.086 C 
BRANCH  30  31
ATOM     31  NZ  UNL     1     -28.968  29.214   7.826  0.00  0.00    +0.380 N 
ATOM     32  HZ1 UNL     1     -29.348  29.709   8.633  0.00  0.00    -0.089 HD
ATOM     33  HZ2 UNL     1     -28.036  29.569   7.616  0.00  0.00    -0.089 HD
ATOM     34  HZ3 UNL     1     -28.912  28.217   8.033  0.00  0.00    -0.089 HD
ENDBRANCH  30  31
ENDBRANCH  29  30
ENDBRANCH  28  29
ENDBRANCH  27  28
ENDBRANCH   1  27
TORSDOF 14
ENDMDL
MODEL 9
REMARK VINA RESULT:      -5.2      3.386      5.544
REMARK  Name = 5487156
REMARK  14 active torsions:
REMARK  status: ('A' for Active; 'I' for Inactive)
REMARK    1  A    between atoms: CA_1  and  C_4
REMARK    2  A    between atoms: CA_1  and  N_19
REMARK    3  A    between atoms: CA_1  and  CB_27
REMARK    4  A    between atoms: N_3  and  CA_6
REMARK    5  A    between atoms: CA_6  and  C_10
REMARK    6  A    between atoms: N_9  and  CA_12
REMARK    7  A    between atoms: CA_12  and  C_15
REMARK    8  A    between atoms: C_15  and  O_16
REMARK    9  A    between atoms: C_20  and  O_22
REMARK   10  A    between atoms: O_22  and  C_23
REMARK   11  A    between atoms: CB_27  and  CG_28
REMARK   12  A    between atoms: CG_28  and  CD_29
REMARK   13  A    between atoms: CD_29  and  CE_30
REMARK   14  A    between atoms: CE_30  and  NZ_31
REMARK                            x       y       z     vdW  Elec       q    Type
REMARK                         _______ _______ _______ _____ _____    ______ ____
ROOT
ATOM      1  CA  UNL     1     -33.544  26.627   5.149  0.00  0.00    +0.151 C 
ENDROOT
BRANCH   1   4
ATOM      2  O   UNL     1     -35.887  26.313   5.690  0.00  0.00    -0.273 OA
ATOM      3  N   UNL     1     -34.570  24.442   5.302  0.00  0.00    -0.297 N 
ATOM      4  C   UNL     1     -34.805  25.807   5.397  0.00  0.00    +0.241 C 
ATOM      5  H   UNL     1     -33.666  24.134   5.061  0.00  0.00    +0.150 HD
BRANCH   3   6
ATOM      6  CA  UNL     1     -35.598  23.457   5.543  0.00  0.00    +0.149 C 
ATOM      7  CB  UNL     1     -35.033  22.226   6.234  0.00  0.00    +0.031 C 
BRANCH   6  10
ATOM      8  O   UNL     1     -35.778  22.205   3.475  0.00  0.00    -0.273 OA
ATOM      9  N   UNL     1     -37.309  23.898   3.896  0.00  0.00    -0.295 N 
ATOM     10  C   UNL     1     -36.222  23.091   4.204  0.00  0.00    +0.241 C 
ATOM     11  H   UNL     1     -37.589  24.582   4.548  0.00  0.00    +0.150 HD
BRANCH   9  12
ATOM     12  CA  UNL     1     -38.046  23.777   2.660  0.00  0.00    +0.171 C 
ATOM     13  CB  UNL     1     -37.472  24.715   1.609  0.00  0.00    +0.033 C 
BRANCH  12  15
ATOM     14  OXT UNL     1     -40.394  23.583   2.120  0.00  0.00    -0.248 OA
ATOM     15  C   UNL     1     -39.529  24.046   2.856  0.00  0.00    +0.332 C 
BRANCH  15  16
ATOM     16  O   UNL     1     -39.824  24.850   3.905  0.00  0.00    -0.479 OA
ATOM     17  H   UNL     1     -40.688  25.200   3.999  0.00  0.00    +0.295 HD
ENDBRANCH  15  16
ENDBRANCH  12  15
ENDBRANCH   9  12
ENDBRANCH   6  10
ENDBRANCH   3   6
ENDBRANCH   1   4
BRANCH   1  19
ATOM     18  O   UNL     1     -33.594  26.949   2.262  0.00  0.00    -0.226 OA
ATOM     19  N   UNL     1     -33.931  27.794   4.398  0.00  0.00    -0.264 N 
ATOM     20  C   ACE A   0     -33.924  27.858   3.018  0.00  0.00    +0.402 C 
ATOM     21  H   UNL     1     -34.218  28.593   4.897  0.00  0.00    +0.153 HD
BRANCH  20  22
ATOM     22  O   UNL     1     -34.342  29.093   2.610  0.00  0.00    -0.442 OA
BRANCH  22  23
ATOM     23  C   UNL     1     -33.309  30.065   2.409  0.00  0.00    +0.138 C 
ATOM     24  C   UNL     1     -33.468  30.662   1.012  0.00  0.00    +0.044 C 
ATOM     25  C   UNL     1     -31.969  29.344   2.535  0.00  0.00    +0.044 C 
ATOM     26  C   UNL     1     -33.441  31.144   3.482  0.00  0.00    +0.044 C 
ENDBRANCH  22  23
ENDBRANCH  20  22
ENDBRANCH   1  19
BRANCH   1  27
ATOM     27  CB  UNL     1     -32.878  26.984   6.483  0.00  0.00    +0.029 C 
BRANCH  27  28
ATOM     28  CG  UNL     1     -32.211  28.364   6.456  0.00  0.00    +0.000 C 
BRANCH  28  29
ATOM     29  CD  UNL     1     -30.782  28.278   5.913  0.00  0.00    -0.024 C 
BRANCH  29  30
ATOM     30  CE  UNL     1     -29.833  29.168   6.713  0.00  0.00    -0.086 C 
BRANCH  30  31
ATOM     31  NZ  UNL     1     -28.834  28.356   7.398  0.00  0.00    +0.380 N 
ATOM     32  HZ1 UNL     1     -29.187  27.406   7.508  0.00  0.00    -0.089 HD
ATOM     33  HZ2 UNL     1     -28.641  28.756   8.315  0.00  0.00    -0.089 HD
ATOM     34  HZ3 UNL     1     -27.975  28.338   6.848  0.00  0.00    -0.089 HD
ENDBRANCH  30  31
ENDBRANCH  29  30
ENDBRANCH  28  29
ENDBRANCH  27  28
ENDBRANCH   1  27
TORSDOF 14
ENDMDL
