MODEL 1
REMARK VINA RESULT:      -5.7      0.000      0.000
REMARK  Name = 53461895
REMARK  14 active torsions:
REMARK  status: ('A' for Active; 'I' for Inactive)
REMARK    1  A    between atoms: CA_1  and  N_3
REMARK    2  A    between atoms: CA_1  and  C_19
REMARK    3  A    between atoms: CA_1  and  CB_26
REMARK    4  A    between atoms: C_4  and  C_6
REMARK    5  A    between atoms: C_6  and  C_7
REMARK    6  A    between atoms: C_7  and  CA_8
REMARK    7  A    between atoms: CA_8  and  N_9
REMARK    8  A    between atoms: CA_8  and  C_14
REMARK    9  A    between atoms: C_14  and  O_15
REMARK   10  A    between atoms: N_18  and  CA_21
REMARK   11  A    between atoms: CA_21  and  C_23
REMARK   12  A    between atoms: C_23  and  O_24
REMARK   13  A    between atoms: CB_26  and  SG_27
REMARK   14  A    between atoms: SG_27  and  C_31
REMARK                            x       y       z     vdW  Elec       q    Type
REMARK                         _______ _______ _______ _____ _____    ______ ____
ROOT
ATOM      1  CA  UNL     1     -36.905  21.942   2.876  0.00  0.00    +0.160 C 
ENDROOT
BRANCH   1   3
ATOM      2  O   UNL     1     -35.235  21.155   5.095  0.00  0.00    -0.275 OA
ATOM      3  N   UNL     1     -36.385  22.795   3.920  0.00  0.00    -0.298 N 
ATOM      4  C   UNL     1     -35.587  22.323   4.951  0.00  0.00    +0.223 C 
ATOM      5  H   UNL     1     -36.609  23.754   3.899  0.00  0.00    +0.150 HD
BRANCH   4   6
ATOM      6  C   UNL     1     -35.193  23.435   5.909  0.00  0.00    +0.083 C 
BRANCH   6   7
ATOM      7  C   UNL     1     -34.433  24.564   5.211  0.00  0.00    -0.001 C 
BRANCH   7   8
ATOM      8  CA  UNL     1     -35.161  25.910   5.292  0.00  0.00    +0.036 C 
BRANCH   8   9
ATOM      9  N   UNL     1     -36.519  25.702   5.803  0.00  0.00    +0.389 N 
ATOM     10  H1  UNL     1     -36.480  25.511   6.803  0.00  0.00    -0.088 HD
ATOM     11  H2  UNL     1     -36.945  24.910   5.321  0.00  0.00    -0.088 HD
ATOM     12  H3  UNL     1     -37.076  26.539   5.637  0.00  0.00    -0.088 HD
ENDBRANCH   8   9
BRANCH   8  14
ATOM     13  OXT UNL     1     -34.892  27.656   3.613  0.00  0.00    -0.253 OA
ATOM     14  C   UNL     1     -35.304  26.544   3.920  0.00  0.00    +0.293 C 
BRANCH  14  15
ATOM     15  O   UNL     1     -35.976  25.746   3.050  0.00  0.00    -0.482 OA
ATOM     16  H   UNL     1     -35.570  24.970   2.719  0.00  0.00    +0.295 HD
ENDBRANCH  14  15
ENDBRANCH   8  14
ENDBRANCH   7   8
ENDBRANCH   6   7
ENDBRANCH   4   6
ENDBRANCH   1   3
BRANCH   1  19
ATOM     17  O   UNL     1     -39.043  21.814   1.736  0.00  0.00    -0.273 OA
ATOM     18  N   UNL     1     -38.533  23.733   2.937  0.00  0.00    -0.294 N 
ATOM     19  C   ACE A   1     -38.277  22.459   2.449  0.00  0.00    +0.242 C 
ATOM     20  H   UNL     1     -37.854  24.167   3.502  0.00  0.00    +0.150 HD
BRANCH  18  21
ATOM     21  CA  UNL     1     -39.756  24.446   2.649  0.00  0.00    +0.200 C 
BRANCH  21  23
ATOM     22  OXT UNL     1     -40.151  26.706   1.923  0.00  0.00    -0.248 OA
ATOM     23  C   UNL     1     -39.587  25.942   2.697  0.00  0.00    +0.334 C 
BRANCH  23  24
ATOM     24  O   UNL     1     -38.751  26.362   3.675  0.00  0.00    -0.479 OA
ATOM     25  H   UNL     1     -38.954  26.183   4.573  0.00  0.00    +0.295 HD
ENDBRANCH  23  24
ENDBRANCH  21  23
ENDBRANCH  18  21
ENDBRANCH   1  19
BRANCH   1  26
ATOM     26  CB  UNL     1     -35.920  21.791   1.714  0.00  0.00    +0.092 C 
BRANCH  26  27
ATOM     27  SG  UNL     1     -35.233  20.111   1.549  0.00  0.00    -0.099 S 
BRANCH  27  31
ATOM     28 CL   UNL     1     -33.716  22.080  -0.003  0.00  0.00    -0.074 Cl
ATOM     29 CL   UNL     1     -31.185  20.105  -0.097  0.00  0.00    -0.068 Cl
ATOM     30 CL   UNL     1     -32.652  18.137   1.494  0.00  0.00    -0.068 Cl
ATOM     31  C   UNL     1     -33.740  20.504   0.743  0.00  0.00    +0.104 C 
ATOM     32  C   UNL     1     -32.667  19.692   0.715  0.00  0.00    +0.131 C 
ENDBRANCH  27  31
ENDBRANCH  26  27
ENDBRANCH   1  26
TORSDOF 14
ENDMDL
MODEL 2
REMARK VINA RESULT:      -5.4      1.707      1.917
REMARK  Name = 53461895
REMARK  14 active torsions:
REMARK  status: ('A' for Active; 'I' for Inactive)
REMARK    1  A    between atoms: CA_1  and  N_3
REMARK    2  A    between atoms: CA_1  and  C_19
REMARK    3  A    between atoms: CA_1  and  CB_26
REMARK    4  A    between atoms: C_4  and  C_6
REMARK    5  A    between atoms: C_6  and  C_7
REMARK    6  A    between atoms: C_7  and  CA_8
REMARK    7  A    between atoms: CA_8  and  N_9
REMARK    8  A    between atoms: CA_8  and  C_14
REMARK    9  A    between atoms: C_14  and  O_15
REMARK   10  A    between atoms: N_18  and  CA_21
REMARK   11  A    between atoms: CA_21  and  C_23
REMARK   12  A    between atoms: C_23  and  O_24
REMARK   13  A    between atoms: CB_26  and  SG_27
REMARK   14  A    between atoms: SG_27  and  C_31
REMARK                            x       y       z     vdW  Elec       q    Type
REMARK                         _______ _______ _______ _____ _____    ______ ____
ROOT
ATOM      1  CA  UNL     1     -35.890  20.976   2.573  0.00  0.00    +0.160 C 
ENDROOT
BRANCH   1   3
ATOM      2  O   UNL     1     -34.975  20.688   5.295  0.00  0.00    -0.275 OA
ATOM      3  N   UNL     1     -35.892  21.988   3.603  0.00  0.00    -0.298 N 
ATOM      4  C   UNL     1     -35.429  21.755   4.889  0.00  0.00    +0.223 C 
ATOM      5  H   UNL     1     -36.237  22.884   3.382  0.00  0.00    +0.150 HD
BRANCH   4   6
ATOM      6  C   UNL     1     -35.557  22.991   5.763  0.00  0.00    +0.083 C 
BRANCH   6   7
ATOM      7  C   UNL     1     -35.961  24.232   4.964  0.00  0.00    -0.001 C 
BRANCH   7   8
ATOM      8  CA  UNL     1     -35.562  25.540   5.654  0.00  0.00    +0.036 C 
BRANCH   8   9
ATOM      9  N   UNL     1     -36.342  26.647   5.094  0.00  0.00    +0.389 N 
ATOM     10  H1  UNL     1     -37.330  26.397   5.086  0.00  0.00    -0.088 HD
ATOM     11  H2  UNL     1     -36.030  26.833   4.140  0.00  0.00    -0.088 HD
ATOM     12  H3  UNL     1     -36.206  27.481   5.663  0.00  0.00    -0.088 HD
ENDBRANCH   8   9
BRANCH   8  14
ATOM     13  OXT UNL     1     -33.416  25.408   4.508  0.00  0.00    -0.253 OA
ATOM     14  C   UNL     1     -34.101  25.870   5.412  0.00  0.00    +0.293 C 
BRANCH  14  15
ATOM     15  O   UNL     1     -33.606  26.731   6.339  0.00  0.00    -0.482 OA
ATOM     16  H   UNL     1     -32.712  27.007   6.291  0.00  0.00    +0.295 HD
ENDBRANCH  14  15
ENDBRANCH   8  14
ENDBRANCH   7   8
ENDBRANCH   6   7
ENDBRANCH   4   6
ENDBRANCH   1   3
BRANCH   1  19
ATOM     17  O   UNL     1     -37.467  20.343   0.840  0.00  0.00    -0.273 OA
ATOM     18  N   UNL     1     -38.157  21.822   2.489  0.00  0.00    -0.294 N 
ATOM     19  C   ACE A   1     -37.242  20.988   1.862  0.00  0.00    +0.242 C 
ATOM     20  H   UNL     1     -37.880  22.297   3.306  0.00  0.00    +0.150 HD
BRANCH  18  21
ATOM     21  CA  UNL     1     -39.498  22.021   1.991  0.00  0.00    +0.200 C 
BRANCH  21  23
ATOM     22  OXT UNL     1     -40.979  23.871   1.570  0.00  0.00    -0.248 OA
ATOM     23  C   UNL     1     -39.959  23.450   2.105  0.00  0.00    +0.334 C 
BRANCH  23  24
ATOM     24  O   UNL     1     -39.141  24.227   2.852  0.00  0.00    -0.479 OA
ATOM     25  H   UNL     1     -39.473  24.657   3.616  0.00  0.00    +0.295 HD
ENDBRANCH  23  24
ENDBRANCH  21  23
ENDBRANCH  18  21
ENDBRANCH   1  19
BRANCH   1  26
ATOM     26  CB  UNL     1     -34.699  21.123   1.623  0.00  0.00    +0.092 C 
BRANCH  26  27
ATOM     27  SG  UNL     1     -33.932  19.536   1.157  0.00  0.00    -0.099 S 
BRANCH  27  31
ATOM     28 CL   UNL     1     -32.715  21.724  -0.365  0.00  0.00    -0.074 Cl
ATOM     29 CL   UNL     1     -29.941  20.113  -0.525  0.00  0.00    -0.068 Cl
ATOM     30 CL   UNL     1     -31.108  17.932   1.035  0.00  0.00    -0.068 Cl
ATOM     31  C   UNL     1     -32.516  20.144   0.347  0.00  0.00    +0.104 C 
ATOM     32  C   UNL     1     -31.343  19.486   0.291  0.00  0.00    +0.131 C 
ENDBRANCH  27  31
ENDBRANCH  26  27
ENDBRANCH   1  26
TORSDOF 14
ENDMDL
MODEL 3
REMARK VINA RESULT:      -5.2      1.670      2.492
REMARK  Name = 53461895
REMARK  14 active torsions:
REMARK  status: ('A' for Active; 'I' for Inactive)
REMARK    1  A    between atoms: CA_1  and  N_3
REMARK    2  A    between atoms: CA_1  and  C_19
REMARK    3  A    between atoms: CA_1  and  CB_26
REMARK    4  A    between atoms: C_4  and  C_6
REMARK    5  A    between atoms: C_6  and  C_7
REMARK    6  A    between atoms: C_7  and  CA_8
REMARK    7  A    between atoms: CA_8  and  N_9
REMARK    8  A    between atoms: CA_8  and  C_14
REMARK    9  A    between atoms: C_14  and  O_15
REMARK   10  A    between atoms: N_18  and  CA_21
REMARK   11  A    between atoms: CA_21  and  C_23
REMARK   12  A    between atoms: C_23  and  O_24
REMARK   13  A    between atoms: CB_26  and  SG_27
REMARK   14  A    between atoms: SG_27  and  C_31
REMARK                            x       y       z     vdW  Elec       q    Type
REMARK                         _______ _______ _______ _____ _____    ______ ____
ROOT
ATOM      1  CA  UNL     1     -36.224  22.150   3.040  0.00  0.00    +0.160 C 
ENDROOT
BRANCH   1   3
ATOM      2  O   UNL     1     -35.967  22.312   5.910  0.00  0.00    -0.275 OA
ATOM      3  N   UNL     1     -35.609  23.214   3.799  0.00  0.00    -0.298 N 
ATOM      4  C   UNL     1     -35.533  23.204   5.184  0.00  0.00    +0.223 C 
ATOM      5  H   UNL     1     -35.228  23.981   3.313  0.00  0.00    +0.150 HD
BRANCH   4   6
ATOM      6  C   UNL     1     -34.845  24.449   5.716  0.00  0.00    +0.083 C 
BRANCH   6   7
ATOM      7  C   UNL     1     -34.324  25.352   4.597  0.00  0.00    -0.001 C 
BRANCH   7   8
ATOM      8  CA  UNL     1     -35.137  26.643   4.447  0.00  0.00    +0.036 C 
BRANCH   8   9
ATOM      9  N   UNL     1     -36.352  26.554   5.262  0.00  0.00    +0.389 N 
ATOM     10  H1  UNL     1     -36.291  25.742   5.876  0.00  0.00    -0.088 HD
ATOM     11  H2  UNL     1     -37.163  26.457   4.650  0.00  0.00    -0.088 HD
ATOM     12  H3  UNL     1     -36.448  27.400   5.822  0.00  0.00    -0.088 HD
ENDBRANCH   8   9
BRANCH   8  14
ATOM     13  OXT UNL     1     -35.335  27.834   2.331  0.00  0.00    -0.253 OA
ATOM     14  C   UNL     1     -35.588  26.849   3.013  0.00  0.00    +0.293 C 
BRANCH  14  15
ATOM     15  O   UNL     1     -36.343  25.816   2.556  0.00  0.00    -0.482 OA
ATOM     16  H   UNL     1     -36.839  25.913   1.767  0.00  0.00    +0.295 HD
ENDBRANCH  14  15
ENDBRANCH   8  14
ENDBRANCH   7   8
ENDBRANCH   6   7
ENDBRANCH   4   6
ENDBRANCH   1   3
BRANCH   1  19
ATOM     17  O   UNL     1     -38.189  23.570   3.127  0.00  0.00    -0.273 OA
ATOM     18  N   UNL     1     -38.388  21.448   2.213  0.00  0.00    -0.294 N 
ATOM     19  C   ACE A   1     -37.693  22.493   2.804  0.00  0.00    +0.242 C 
ATOM     20  H   UNL     1     -37.899  20.622   1.990  0.00  0.00    +0.150 HD
BRANCH  18  21
ATOM     21  CA  UNL     1     -39.798  21.522   1.912  0.00  0.00    +0.200 C 
BRANCH  21  23
ATOM     22  OXT UNL     1     -41.239  20.984   0.060  0.00  0.00    -0.248 OA
ATOM     23  C   UNL     1     -40.158  20.839   0.618  0.00  0.00    +0.334 C 
BRANCH  23  24
ATOM     24  O   UNL     1     -39.173  20.048   0.130  0.00  0.00    -0.479 OA
ATOM     25  H   UNL     1     -39.112  19.154   0.406  0.00  0.00    +0.295 HD
ENDBRANCH  23  24
ENDBRANCH  21  23
ENDBRANCH  18  21
ENDBRANCH   1  19
BRANCH   1  26
ATOM     26  CB  UNL     1     -35.454  21.844   1.753  0.00  0.00    +0.092 C 
BRANCH  26  27
ATOM     27  SG  UNL     1     -34.847  20.128   1.651  0.00  0.00    -0.099 S 
BRANCH  27  31
ATOM     28 CL   UNL     1     -33.354  21.937  -0.105  0.00  0.00    -0.074 Cl
ATOM     29 CL   UNL     1     -30.931  19.836  -0.263  0.00  0.00    -0.068 Cl
ATOM     30 CL   UNL     1     -32.370  18.028   1.529  0.00  0.00    -0.068 Cl
ATOM     31  C   UNL     1     -33.399  20.404   0.726  0.00  0.00    +0.104 C 
ATOM     32  C   UNL     1     -32.369  19.539   0.669  0.00  0.00    +0.131 C 
ENDBRANCH  27  31
ENDBRANCH  26  27
ENDBRANCH   1  26
TORSDOF 14
ENDMDL
MODEL 4
REMARK VINA RESULT:      -5.2      1.957      2.816
REMARK  Name = 53461895
REMARK  14 active torsions:
REMARK  status: ('A' for Active; 'I' for Inactive)
REMARK    1  A    between atoms: CA_1  and  N_3
REMARK    2  A    between atoms: CA_1  and  C_19
REMARK    3  A    between atoms: CA_1  and  CB_26
REMARK    4  A    between atoms: C_4  and  C_6
REMARK    5  A    between atoms: C_6  and  C_7
REMARK    6  A    between atoms: C_7  and  CA_8
REMARK    7  A    between atoms: CA_8  and  N_9
REMARK    8  A    between atoms: CA_8  and  C_14
REMARK    9  A    between atoms: C_14  and  O_15
REMARK   10  A    between atoms: N_18  and  CA_21
REMARK   11  A    between atoms: CA_21  and  C_23
REMARK   12  A    between atoms: C_23  and  O_24
REMARK   13  A    between atoms: CB_26  and  SG_27
REMARK   14  A    between atoms: SG_27  and  C_31
REMARK                            x       y       z     vdW  Elec       q    Type
REMARK                         _______ _______ _______ _____ _____    ______ ____
ROOT
ATOM      1  CA  UNL     1     -37.260  21.935   2.652  0.00  0.00    +0.160 C 
ENDROOT
BRANCH   1   3
ATOM      2  O   UNL     1     -35.290  20.993   4.539  0.00  0.00    -0.275 OA
ATOM      3  N   UNL     1     -36.639  22.694   3.714  0.00  0.00    -0.298 N 
ATOM      4  C   UNL     1     -35.697  22.151   4.576  0.00  0.00    +0.223 C 
ATOM      5  H   UNL     1     -36.896  23.637   3.831  0.00  0.00    +0.150 HD
BRANCH   4   6
ATOM      6  C   UNL     1     -35.222  23.170   5.598  0.00  0.00    +0.083 C 
BRANCH   6   7
ATOM      7  C   UNL     1     -34.657  24.433   4.944  0.00  0.00    -0.001 C 
BRANCH   7   8
ATOM      8  CA  UNL     1     -34.882  25.691   5.789  0.00  0.00    +0.036 C 
BRANCH   8   9
ATOM      9  N   UNL     1     -36.100  26.371   5.340  0.00  0.00    +0.389 N 
ATOM     10  H1  UNL     1     -36.782  26.382   6.098  0.00  0.00    -0.088 HD
ATOM     11  H2  UNL     1     -36.490  25.874   4.539  0.00  0.00    -0.088 HD
ATOM     12  H3  UNL     1     -35.875  27.328   5.069  0.00  0.00    -0.088 HD
ENDBRANCH   8   9
BRANCH   8  14
ATOM     13  OXT UNL     1     -32.787  26.787   6.379  0.00  0.00    -0.253 OA
ATOM     14  C   UNL     1     -33.743  26.680   5.621  0.00  0.00    +0.293 C 
BRANCH  14  15
ATOM     15  O   UNL     1     -33.907  27.476   4.532  0.00  0.00    -0.482 OA
ATOM     16  H   UNL     1     -34.358  27.149   3.778  0.00  0.00    +0.295 HD
ENDBRANCH  14  15
ENDBRANCH   8  14
ENDBRANCH   7   8
ENDBRANCH   6   7
ENDBRANCH   4   6
ENDBRANCH   1   3
BRANCH   1  19
ATOM     17  O   UNL     1     -39.482  21.944   1.677  0.00  0.00    -0.273 OA
ATOM     18  N   UNL     1     -38.820  23.761   2.959  0.00  0.00    -0.294 N 
ATOM     19  C   ACE A   1     -38.643  22.518   2.369  0.00  0.00    +0.242 C 
ATOM     20  H   UNL     1     -38.085  24.137   3.497  0.00  0.00    +0.150 HD
BRANCH  18  21
ATOM     21  CA  UNL     1     -40.037  24.525   2.815  0.00  0.00    +0.200 C 
BRANCH  21  23
ATOM     22  OXT UNL     1     -40.652  26.843   2.610  0.00  0.00    -0.248 OA
ATOM     23  C   UNL     1     -39.814  26.010   2.935  0.00  0.00    +0.334 C 
BRANCH  23  24
ATOM     24  O   UNL     1     -38.599  26.338   3.433  0.00  0.00    -0.479 OA
ATOM     25  H   UNL     1     -37.821  26.069   2.984  0.00  0.00    +0.295 HD
ENDBRANCH  23  24
ENDBRANCH  21  23
ENDBRANCH  18  21
ENDBRANCH   1  19
BRANCH   1  26
ATOM     26  CB  UNL     1     -36.368  21.847   1.411  0.00  0.00    +0.092 C 
BRANCH  26  27
ATOM     27  SG  UNL     1     -36.340  23.376   0.418  0.00  0.00    -0.099 S 
BRANCH  27  31
ATOM     28 CL   UNL     1     -33.484  22.766   0.184  0.00  0.00    -0.074 Cl
ATOM     29 CL   UNL     1     -32.741  25.530   1.642  0.00  0.00    -0.068 Cl
ATOM     30 CL   UNL     1     -35.581  26.194   1.847  0.00  0.00    -0.068 Cl
ATOM     31  C   UNL     1     -34.706  23.881   0.739  0.00  0.00    +0.104 C 
ATOM     32  C   UNL     1     -34.383  25.046   1.331  0.00  0.00    +0.131 C 
ENDBRANCH  27  31
ENDBRANCH  26  27
ENDBRANCH   1  26
TORSDOF 14
ENDMDL
MODEL 5
REMARK VINA RESULT:      -5.2      1.065      1.683
REMARK  Name = 53461895
REMARK  14 active torsions:
REMARK  status: ('A' for Active; 'I' for Inactive)
REMARK    1  A    between atoms: CA_1  and  N_3
REMARK    2  A    between atoms: CA_1  and  C_19
REMARK    3  A    between atoms: CA_1  and  CB_26
REMARK    4  A    between atoms: C_4  and  C_6
REMARK    5  A    between atoms: C_6  and  C_7
REMARK    6  A    between atoms: C_7  and  CA_8
REMARK    7  A    between atoms: CA_8  and  N_9
REMARK    8  A    between atoms: CA_8  and  C_14
REMARK    9  A    between atoms: C_14  and  O_15
REMARK   10  A    between atoms: N_18  and  CA_21
REMARK   11  A    between atoms: CA_21  and  C_23
REMARK   12  A    between atoms: C_23  and  O_24
REMARK   13  A    between atoms: CB_26  and  SG_27
REMARK   14  A    between atoms: SG_27  and  C_31
REMARK                            x       y       z     vdW  Elec       q    Type
REMARK                         _______ _______ _______ _____ _____    ______ ____
ROOT
ATOM      1  CA  UNL     1     -37.149  21.883   2.499  0.00  0.00    +0.160 C 
ENDROOT
BRANCH   1   3
ATOM      2  O   UNL     1     -35.141  20.847   4.295  0.00  0.00    -0.275 OA
ATOM      3  N   UNL     1     -36.507  22.586   3.584  0.00  0.00    -0.298 N 
ATOM      4  C   UNL     1     -35.548  22.002   4.398  0.00  0.00    +0.223 C 
ATOM      5  H   UNL     1     -36.761  23.522   3.754  0.00  0.00    +0.150 HD
BRANCH   4   6
ATOM      6  C   UNL     1     -35.051  22.967   5.460  0.00  0.00    +0.083 C 
BRANCH   6   7
ATOM      7  C   UNL     1     -35.943  24.203   5.590  0.00  0.00    -0.001 C 
BRANCH   7   8
ATOM      8  CA  UNL     1     -35.199  25.508   5.289  0.00  0.00    +0.036 C 
BRANCH   8   9
ATOM      9  N   UNL     1     -36.157  26.616   5.231  0.00  0.00    +0.389 N 
ATOM     10  H1  UNL     1     -36.552  26.773   6.158  0.00  0.00    -0.088 HD
ATOM     11  H2  UNL     1     -36.906  26.383   4.577  0.00  0.00    -0.088 HD
ATOM     12  H3  UNL     1     -35.682  27.460   4.915  0.00  0.00    -0.088 HD
ENDBRANCH   8   9
BRANCH   8  14
ATOM     13  OXT UNL     1     -35.078  25.252   2.869  0.00  0.00    -0.253 OA
ATOM     14  C   UNL     1     -34.513  25.454   3.937  0.00  0.00    +0.293 C 
BRANCH  14  15
ATOM     15  O   UNL     1     -33.170  25.632   4.033  0.00  0.00    -0.482 OA
ATOM     16  H   UNL     1     -32.696  26.011   3.319  0.00  0.00    +0.295 HD
ENDBRANCH  14  15
ENDBRANCH   8  14
ENDBRANCH   7   8
ENDBRANCH   6   7
ENDBRANCH   4   6
ENDBRANCH   1   3
BRANCH   1  19
ATOM     17  O   UNL     1     -39.517  21.723   1.993  0.00  0.00    -0.273 OA
ATOM     18  N   UNL     1     -38.634  23.794   2.553  0.00  0.00    -0.294 N 
ATOM     19  C   ACE A   1     -38.565  22.427   2.322  0.00  0.00    +0.242 C 
ATOM     20  H   UNL     1     -37.813  24.271   2.814  0.00  0.00    +0.150 HD
BRANCH  18  21
ATOM     21  CA  UNL     1     -39.861  24.544   2.426  0.00  0.00    +0.200 C 
BRANCH  21  23
ATOM     22  OXT UNL     1     -40.730  26.672   3.143  0.00  0.00    -0.248 OA
ATOM     23  C   UNL     1     -39.763  25.932   3.004  0.00  0.00    +0.334 C 
BRANCH  23  24
ATOM     24  O   UNL     1     -38.504  26.285   3.355  0.00  0.00    -0.479 OA
ATOM     25  H   UNL     1     -37.866  25.622   3.538  0.00  0.00    +0.295 HD
ENDBRANCH  23  24
ENDBRANCH  21  23
ENDBRANCH  18  21
ENDBRANCH   1  19
BRANCH   1  26
ATOM     26  CB  UNL     1     -36.316  21.921   1.215  0.00  0.00    +0.092 C 
BRANCH  26  27
ATOM     27  SG  UNL     1     -36.060  20.283   0.457  0.00  0.00    -0.099 S 
BRANCH  27  31
ATOM     28 CL   UNL     1     -33.668  19.131   1.696  0.00  0.00    -0.074 Cl
ATOM     29 CL   UNL     1     -31.787  20.862  -0.248  0.00  0.00    -0.068 Cl
ATOM     30 CL   UNL     1     -34.153  21.994  -1.542  0.00  0.00    -0.068 Cl
ATOM     31  C   UNL     1     -34.321  20.227   0.507  0.00  0.00    +0.104 C 
ATOM     32  C   UNL     1     -33.524  20.933  -0.316  0.00  0.00    +0.131 C 
ENDBRANCH  27  31
ENDBRANCH  26  27
ENDBRANCH   1  26
TORSDOF 14
ENDMDL
MODEL 6
REMARK VINA RESULT:      -5.2      2.250      2.779
REMARK  Name = 53461895
REMARK  14 active torsions:
REMARK  status: ('A' for Active; 'I' for Inactive)
REMARK    1  A    between atoms: CA_1  and  N_3
REMARK    2  A    between atoms: CA_1  and  C_19
REMARK    3  A    between atoms: CA_1  and  CB_26
REMARK    4  A    between atoms: C_4  and  C_6
REMARK    5  A    between atoms: C_6  and  C_7
REMARK    6  A    between atoms: C_7  and  CA_8
REMARK    7  A    between atoms: CA_8  and  N_9
REMARK    8  A    between atoms: CA_8  and  C_14
REMARK    9  A    between atoms: C_14  and  O_15
REMARK   10  A    between atoms: N_18  and  CA_21
REMARK   11  A    between atoms: CA_21  and  C_23
REMARK   12  A    between atoms: C_23  and  O_24
REMARK   13  A    between atoms: CB_26  and  SG_27
REMARK   14  A    between atoms: SG_27  and  C_31
REMARK                            x       y       z     vdW  Elec       q    Type
REMARK                         _______ _______ _______ _____ _____    ______ ____
ROOT
ATOM      1  CA  UNL     1     -36.051  20.896   2.868  0.00  0.00    +0.160 C 
ENDROOT
BRANCH   1   3
ATOM      2  O   UNL     1     -35.198  20.613   5.611  0.00  0.00    -0.275 OA
ATOM      3  N   UNL     1     -35.707  21.957   3.785  0.00  0.00    -0.298 N 
ATOM      4  C   UNL     1     -35.306  21.722   5.092  0.00  0.00    +0.223 C 
ATOM      5  H   UNL     1     -35.759  22.888   3.469  0.00  0.00    +0.150 HD
BRANCH   4   6
ATOM      6  C   UNL     1     -35.015  23.018   5.830  0.00  0.00    +0.083 C 
BRANCH   6   7
ATOM      7  C   UNL     1     -35.923  24.163   5.378  0.00  0.00    -0.001 C 
BRANCH   7   8
ATOM      8  CA  UNL     1     -35.188  25.505   5.290  0.00  0.00    +0.036 C 
BRANCH   8   9
ATOM      9  N   UNL     1     -36.160  26.583   5.090  0.00  0.00    +0.389 N 
ATOM     10  H1  UNL     1     -36.455  26.600   4.115  0.00  0.00    -0.088 HD
ATOM     11  H2  UNL     1     -35.728  27.477   5.330  0.00  0.00    -0.088 HD
ATOM     12  H3  UNL     1     -36.969  26.427   5.689  0.00  0.00    -0.088 HD
ENDBRANCH   8   9
BRANCH   8  14
ATOM     13  OXT UNL     1     -33.143  26.076   4.093  0.00  0.00    -0.253 OA
ATOM     14  C   UNL     1     -34.246  25.542   4.100  0.00  0.00    +0.293 C 
BRANCH  14  15
ATOM     15  O   UNL     1     -34.771  24.931   3.007  0.00  0.00    -0.482 OA
ATOM     16  H   UNL     1     -34.249  24.332   2.510  0.00  0.00    +0.295 HD
ENDBRANCH  14  15
ENDBRANCH   8  14
ENDBRANCH   7   8
ENDBRANCH   6   7
ENDBRANCH   4   6
ENDBRANCH   1   3
BRANCH   1  19
ATOM     17  O   UNL     1     -36.936  22.631   1.420  0.00  0.00    -0.273 OA
ATOM     18  N   UNL     1     -37.839  20.498   1.285  0.00  0.00    -0.294 N 
ATOM     19  C   ACE A   1     -36.968  21.456   1.782  0.00  0.00    +0.242 C 
ATOM     20  H   UNL     1     -37.785  19.581   1.640  0.00  0.00    +0.150 HD
BRANCH  18  21
ATOM     21  CA  UNL     1     -38.820  20.791   0.266  0.00  0.00    +0.200 C 
BRANCH  21  23
ATOM     22  OXT UNL     1     -40.865  22.059   0.190  0.00  0.00    -0.248 OA
ATOM     23  C   UNL     1     -40.103  21.344   0.830  0.00  0.00    +0.334 C 
BRANCH  23  24
ATOM     24  O   UNL     1     -40.333  20.978   2.113  0.00  0.00    -0.479 OA
ATOM     25  H   UNL     1     -40.358  21.629   2.788  0.00  0.00    +0.295 HD
ENDBRANCH  23  24
ENDBRANCH  21  23
ENDBRANCH  18  21
ENDBRANCH   1  19
BRANCH   1  26
ATOM     26  CB  UNL     1     -34.812  20.189   2.315  0.00  0.00    +0.092 C 
BRANCH  26  27
ATOM     27  SG  UNL     1     -34.194  20.902   0.755  0.00  0.00    -0.099 S 
BRANCH  27  31
ATOM     28 CL   UNL     1     -32.795  18.392   1.325  0.00  0.00    -0.074 Cl
ATOM     29 CL   UNL     1     -30.194  19.450  -0.235  0.00  0.00    -0.068 Cl
ATOM     30 CL   UNL     1     -31.579  21.947  -0.866  0.00  0.00    -0.068 Cl
ATOM     31  C   UNL     1     -32.733  19.971   0.588  0.00  0.00    +0.104 C 
ATOM     32  C   UNL     1     -31.645  20.397  -0.081  0.00  0.00    +0.131 C 
ENDBRANCH  27  31
ENDBRANCH  26  27
ENDBRANCH   1  26
TORSDOF 14
ENDMDL
MODEL 7
REMARK VINA RESULT:      -5.2      1.660      1.867
REMARK  Name = 53461895
REMARK  14 active torsions:
REMARK  status: ('A' for Active; 'I' for Inactive)
REMARK    1  A    between atoms: CA_1  and  N_3
REMARK    2  A    between atoms: CA_1  and  C_19
REMARK    3  A    between atoms: CA_1  and  CB_26
REMARK    4  A    between atoms: C_4  and  C_6
REMARK    5  A    between atoms: C_6  and  C_7
REMARK    6  A    between atoms: C_7  and  CA_8
REMARK    7  A    between atoms: CA_8  and  N_9
REMARK    8  A    between atoms: CA_8  and  C_14
REMARK    9  A    between atoms: C_14  and  O_15
REMARK   10  A    between atoms: N_18  and  CA_21
REMARK   11  A    between atoms: CA_21  and  C_23
REMARK   12  A    between atoms: C_23  and  O_24
REMARK   13  A    between atoms: CB_26  and  SG_27
REMARK   14  A    between atoms: SG_27  and  C_31
REMARK                            x       y       z     vdW  Elec       q    Type
REMARK                         _______ _______ _______ _____ _____    ______ ____
ROOT
ATOM      1  CA  UNL     1     -37.122  22.869   3.131  0.00  0.00    +0.160 C 
ENDROOT
BRANCH   1   3
ATOM      2  O   UNL     1     -36.217  22.680   5.865  0.00  0.00    -0.275 OA
ATOM      3  N   UNL     1     -35.919  23.440   3.690  0.00  0.00    -0.298 N 
ATOM      4  C   UNL     1     -35.566  23.296   5.024  0.00  0.00    +0.223 C 
ATOM      5  H   UNL     1     -35.324  23.956   3.099  0.00  0.00    +0.150 HD
BRANCH   4   6
ATOM      6  C   UNL     1     -34.260  24.006   5.337  0.00  0.00    +0.083 C 
BRANCH   6   7
ATOM      7  C   UNL     1     -34.451  25.506   5.565  0.00  0.00    -0.001 C 
BRANCH   7   8
ATOM      8  CA  UNL     1     -33.820  26.360   4.460  0.00  0.00    +0.036 C 
BRANCH   8   9
ATOM      9  N   UNL     1     -33.301  27.603   5.038  0.00  0.00    +0.389 N 
ATOM     10  H1  UNL     1     -34.020  28.035   5.617  0.00  0.00    -0.088 HD
ATOM     11  H2  UNL     1     -33.039  28.243   4.287  0.00  0.00    -0.088 HD
ATOM     12  H3  UNL     1     -32.482  27.397   5.609  0.00  0.00    -0.088 HD
ENDBRANCH   8   9
BRANCH   8  14
ATOM     13  OXT UNL     1     -35.215  26.054   2.486  0.00  0.00    -0.253 OA
ATOM     14  C   UNL     1     -34.846  26.760   3.416  0.00  0.00    +0.293 C 
BRANCH  14  15
ATOM     15  O   UNL     1     -35.307  28.024   3.604  0.00  0.00    -0.482 OA
ATOM     16  H   UNL     1     -35.598  28.530   2.871  0.00  0.00    +0.295 HD
ENDBRANCH  14  15
ENDBRANCH   8  14
ENDBRANCH   7   8
ENDBRANCH   6   7
ENDBRANCH   4   6
ENDBRANCH   1   3
BRANCH   1  19
ATOM     17  O   UNL     1     -38.931  24.409   3.626  0.00  0.00    -0.273 OA
ATOM     18  N   UNL     1     -37.970  24.460   1.516  0.00  0.00    -0.294 N 
ATOM     19  C   ACE A   1     -38.106  23.993   2.815  0.00  0.00    +0.242 C 
ATOM     20  H   UNL     1     -37.276  24.061   0.941  0.00  0.00    +0.150 HD
BRANCH  18  21
ATOM     21  CA  UNL     1     -38.804  25.506   0.972  0.00  0.00    +0.200 C 
BRANCH  21  23
ATOM     22  OXT UNL     1     -37.752  27.219  -0.352  0.00  0.00    -0.248 OA
ATOM     23  C   UNL     1     -38.059  26.798   0.757  0.00  0.00    +0.334 C 
BRANCH  23  24
ATOM     24  O   UNL     1     -37.760  27.449   1.905  0.00  0.00    -0.479 OA
ATOM     25  H   UNL     1     -38.337  27.386   2.642  0.00  0.00    +0.295 HD
ENDBRANCH  23  24
ENDBRANCH  21  23
ENDBRANCH  18  21
ENDBRANCH   1  19
BRANCH   1  26
ATOM     26  CB  UNL     1     -36.826  21.963   1.934  0.00  0.00    +0.092 C 
BRANCH  26  27
ATOM     27  SG  UNL     1     -35.657  20.614   2.306  0.00  0.00    -0.099 S 
BRANCH  27  31
ATOM     28 CL   UNL     1     -34.482  22.667   0.575  0.00  0.00    -0.074 Cl
ATOM     29 CL   UNL     1     -32.124  20.655  -0.265  0.00  0.00    -0.068 Cl
ATOM     30 CL   UNL     1     -33.239  18.601   1.492  0.00  0.00    -0.068 Cl
ATOM     31  C   UNL     1     -34.387  21.038   1.194  0.00  0.00    +0.104 C 
ATOM     32  C   UNL     1     -33.382  20.210   0.850  0.00  0.00    +0.131 C 
ENDBRANCH  27  31
ENDBRANCH  26  27
ENDBRANCH   1  26
TORSDOF 14
ENDMDL
MODEL 8
REMARK VINA RESULT:      -5.2      4.508      7.534
REMARK  Name = 53461895
REMARK  14 active torsions:
REMARK  status: ('A' for Active; 'I' for Inactive)
REMARK    1  A    between atoms: CA_1  and  N_3
REMARK    2  A    between atoms: CA_1  and  C_19
REMARK    3  A    between atoms: CA_1  and  CB_26
REMARK    4  A    between atoms: C_4  and  C_6
REMARK    5  A    between atoms: C_6  and  C_7
REMARK    6  A    between atoms: C_7  and  CA_8
REMARK    7  A    between atoms: CA_8  and  N_9
REMARK    8  A    between atoms: CA_8  and  C_14
REMARK    9  A    between atoms: C_14  and  O_15
REMARK   10  A    between atoms: N_18  and  CA_21
REMARK   11  A    between atoms: CA_21  and  C_23
REMARK   12  A    between atoms: C_23  and  O_24
REMARK   13  A    between atoms: CB_26  and  SG_27
REMARK   14  A    between atoms: SG_27  and  C_31
REMARK                            x       y       z     vdW  Elec       q    Type
REMARK                         _______ _______ _______ _____ _____    ______ ____
ROOT
ATOM      1  CA  UNL     1     -38.805  23.335   2.223  0.00  0.00    +0.160 C 
ENDROOT
BRANCH   1   3
ATOM      2  O   UNL     1     -40.454  21.088   1.472  0.00  0.00    -0.275 OA
ATOM      3  N   UNL     1     -38.472  22.285   1.288  0.00  0.00    -0.298 N 
ATOM      4  C   UNL     1     -39.335  21.241   0.989  0.00  0.00    +0.223 C 
ATOM      5  H   UNL     1     -37.594  22.313   0.843  0.00  0.00    +0.150 HD
BRANCH   4   6
ATOM      6  C   UNL     1     -38.723  20.280  -0.017  0.00  0.00    +0.083 C 
BRANCH   6   7
ATOM      7  C   UNL     1     -37.234  20.543  -0.245  0.00  0.00    -0.001 C 
BRANCH   7   8
ATOM      8  CA  UNL     1     -36.336  19.494   0.419  0.00  0.00    +0.036 C 
BRANCH   8   9
ATOM      9  N   UNL     1     -37.105  18.268   0.651  0.00  0.00    +0.389 N 
ATOM     10  H1  UNL     1     -37.288  17.807  -0.240  0.00  0.00    -0.088 HD
ATOM     11  H2  UNL     1     -37.990  18.503   1.101  0.00  0.00    -0.088 HD
ATOM     12  H3  UNL     1     -36.573  17.643   1.256  0.00  0.00    -0.088 HD
ENDBRANCH   8   9
BRANCH   8  14
ATOM     13  OXT UNL     1     -34.720  20.391   2.007  0.00  0.00    -0.253 OA
ATOM     14  C   UNL     1     -35.845  19.964   1.776  0.00  0.00    +0.293 C 
BRANCH  14  15
ATOM     15  O   UNL     1     -36.793  19.837   2.740  0.00  0.00    -0.482 OA
ATOM     16  H   UNL     1     -37.575  19.351   2.565  0.00  0.00    +0.295 HD
ENDBRANCH  14  15
ENDBRANCH   8  14
ENDBRANCH   7   8
ENDBRANCH   6   7
ENDBRANCH   4   6
ENDBRANCH   1   3
BRANCH   1  19
ATOM     17  O   UNL     1     -37.082  24.906   2.896  0.00  0.00    -0.273 OA
ATOM     18  N   UNL     1     -36.964  22.722   3.670  0.00  0.00    -0.294 N 
ATOM     19  C   ACE A   1     -37.538  23.765   2.958  0.00  0.00    +0.242 C 
ATOM     20  H   UNL     1     -37.407  21.843   3.658  0.00  0.00    +0.150 HD
BRANCH  18  21
ATOM     21  CA  UNL     1     -35.744  22.875   4.428  0.00  0.00    +0.200 C 
BRANCH  21  23
ATOM     22  OXT UNL     1     -35.927  22.095   6.698  0.00  0.00    -0.248 OA
ATOM     23  C   UNL     1     -35.613  21.863   5.537  0.00  0.00    +0.334 C 
BRANCH  23  24
ATOM     24  O   UNL     1     -35.114  20.673   5.128  0.00  0.00    -0.479 OA
ATOM     25  H   UNL     1     -35.216  20.405   4.235  0.00  0.00    +0.295 HD
ENDBRANCH  23  24
ENDBRANCH  21  23
ENDBRANCH  18  21
ENDBRANCH   1  19
BRANCH   1  26
ATOM     26  CB  UNL     1     -39.543  24.494   1.548  0.00  0.00    +0.092 C 
BRANCH  26  27
ATOM     27  SG  UNL     1     -40.340  25.638   2.721  0.00  0.00    -0.099 S 
BRANCH  27  31
ATOM     28 CL   UNL     1     -43.182  25.914   2.063  0.00  0.00    -0.074 Cl
ATOM     29 CL   UNL     1     -42.455  27.824  -0.415  0.00  0.00    -0.068 Cl
ATOM     30 CL   UNL     1     -39.614  27.613   0.244  0.00  0.00    -0.068 Cl
ATOM     31  C   UNL     1     -41.536  26.329   1.661  0.00  0.00    +0.104 C 
ATOM     32  C   UNL     1     -41.243  27.146   0.632  0.00  0.00    +0.131 C 
ENDBRANCH  27  31
ENDBRANCH  26  27
ENDBRANCH   1  26
TORSDOF 14
ENDMDL
MODEL 9
REMARK VINA RESULT:      -5.2      4.467      6.386
REMARK  Name = 53461895
REMARK  14 active torsions:
REMARK  status: ('A' for Active; 'I' for Inactive)
REMARK    1  A    between atoms: CA_1  and  N_3
REMARK    2  A    between atoms: CA_1  and  C_19
REMARK    3  A    between atoms: CA_1  and  CB_26
REMARK    4  A    between atoms: C_4  and  C_6
REMARK    5  A    between atoms: C_6  and  C_7
REMARK    6  A    between atoms: C_7  and  CA_8
REMARK    7  A    between atoms: CA_8  and  N_9
REMARK    8  A    between atoms: CA_8  and  C_14
REMARK    9  A    between atoms: C_14  and  O_15
REMARK   10  A    between atoms: N_18  and  CA_21
REMARK   11  A    between atoms: CA_21  and  C_23
REMARK   12  A    between atoms: C_23  and  O_24
REMARK   13  A    between atoms: CB_26  and  SG_27
REMARK   14  A    between atoms: SG_27  and  C_31
REMARK                            x       y       z     vdW  Elec       q    Type
REMARK                         _______ _______ _______ _____ _____    ______ ____
ROOT
ATOM      1  CA  UNL     1     -35.322  27.338   2.412  0.00  0.00    +0.160 C 
ENDROOT
BRANCH   1   3
ATOM      2  O   UNL     1     -33.220  25.580   3.317  0.00  0.00    -0.275 OA
ATOM      3  N   UNL     1     -35.244  26.659   3.684  0.00  0.00    -0.298 N 
ATOM      4  C   UNL     1     -34.188  25.830   4.032  0.00  0.00    +0.223 C 
ATOM      5  H   UNL     1     -35.972  26.791   4.334  0.00  0.00    +0.150 HD
BRANCH   4   6
ATOM      6  C   UNL     1     -34.370  25.243   5.421  0.00  0.00    +0.083 C 
BRANCH   6   7
ATOM      7  C   UNL     1     -35.651  24.416   5.543  0.00  0.00    -0.001 C 
BRANCH   7   8
ATOM      8  CA  UNL     1     -35.634  23.161   4.663  0.00  0.00    +0.036 C 
BRANCH   8   9
ATOM      9  N   UNL     1     -36.956  22.966   4.063  0.00  0.00    +0.389 N 
ATOM     10  H1  UNL     1     -37.318  23.862   3.736  0.00  0.00    -0.088 HD
ATOM     11  H2  UNL     1     -37.591  22.577   4.761  0.00  0.00    -0.088 HD
ATOM     12  H3  UNL     1     -36.881  22.322   3.276  0.00  0.00    -0.088 HD
ENDBRANCH   8   9
BRANCH   8  14
ATOM     13  OXT UNL     1     -35.105  21.904   6.682  0.00  0.00    -0.253 OA
ATOM     14  C   UNL     1     -35.338  21.917   5.480  0.00  0.00    +0.293 C 
BRANCH  14  15
ATOM     15  O   UNL     1     -35.330  20.791   4.720  0.00  0.00    -0.482 OA
ATOM     16  H   UNL     1     -35.628  20.824   3.832  0.00  0.00    +0.295 HD
ENDBRANCH  14  15
ENDBRANCH   8  14
ENDBRANCH   7   8
ENDBRANCH   6   7
ENDBRANCH   4   6
ENDBRANCH   1   3
BRANCH   1  19
ATOM     17  O   UNL     1     -37.299  28.100   1.229  0.00  0.00    -0.273 OA
ATOM     18  N   UNL     1     -37.321  25.991   2.195  0.00  0.00    -0.294 N 
ATOM     19  C   ACE A   1     -36.742  27.208   1.866  0.00  0.00    +0.242 C 
ATOM     20  H   UNL     1     -36.792  25.340   2.710  0.00  0.00    +0.150 HD
BRANCH  18  21
ATOM     21  CA  UNL     1     -38.669  25.641   1.813  0.00  0.00    +0.200 C 
BRANCH  21  23
ATOM     22  OXT UNL     1     -40.462  26.697   3.023  0.00  0.00    -0.248 OA
ATOM     23  C   UNL     1     -39.654  25.779   2.944  0.00  0.00    +0.334 C 
BRANCH  23  24
ATOM     24  O   UNL     1     -39.562  24.793   3.867  0.00  0.00    -0.479 OA
ATOM     25  H   UNL     1     -39.784  24.967   4.761  0.00  0.00    +0.295 HD
ENDBRANCH  23  24
ENDBRANCH  21  23
ENDBRANCH  18  21
ENDBRANCH   1  19
BRANCH   1  26
ATOM     26  CB  UNL     1     -34.833  28.786   2.501  0.00  0.00    +0.092 C 
BRANCH  26  27
ATOM     27  SG  UNL     1     -33.042  28.974   2.216  0.00  0.00    -0.099 S 
BRANCH  27  31
ATOM     28 CL   UNL     1     -33.117  31.779   3.058  0.00  0.00    -0.074 Cl
ATOM     29 CL   UNL     1     -31.813  30.999   5.888  0.00  0.00    -0.068 Cl
ATOM     30 CL   UNL     1     -31.770  28.183   5.101  0.00  0.00    -0.068 Cl
ATOM     31  C   UNL     1     -32.688  30.138   3.461  0.00  0.00    +0.104 C 
ATOM     32  C   UNL     1     -32.160  29.819   4.658  0.00  0.00    +0.131 C 
ENDBRANCH  27  31
ENDBRANCH  26  27
ENDBRANCH   1  26
TORSDOF 14
ENDMDL
