MODEL 1
REMARK VINA RESULT:      -6.2      0.000      0.000
REMARK  Name = 5486850
REMARK  5 active torsions:
REMARK  status: ('A' for Active; 'I' for Inactive)
REMARK    1  A    between atoms: C_1  and  C_7
REMARK    2  A    between atoms: C_2  and  N_22
REMARK    3  A    between atoms: C_5  and  N_21
REMARK    4  A    between atoms: C_8  and  N_15
REMARK    5  A    between atoms: C_11  and  N_16
REMARK                            x       y       z     vdW  Elec       q    Type
REMARK                         _______ _______ _______ _____ _____    ______ ____
ROOT
ATOM      1  C   UNL     1     -35.221  23.333   3.372  0.00  0.00    +0.015 C 
ATOM      2  C   UNL     1     -35.386  23.467   4.750  0.00  0.00    +0.043 C 
ATOM      3  C   UNL     1     -34.541  24.315   2.651  0.00  0.00    +0.003 C 
ATOM      4  C   UNL     1     -34.871  24.584   5.408  0.00  0.00    +0.038 C 
ATOM      5  C   UNL     1     -34.191  25.566   4.688  0.00  0.00    +0.144 C 
ATOM      6  C   UNL     1     -34.026  25.431   3.310  0.00  0.00    +0.024 C 
ENDROOT
BRANCH   1   7
ATOM      7  C   UNL     1     -35.745  22.183   2.658  0.00  0.00    +0.024 C 
ATOM      8  C   UNL     1     -37.020  22.194   2.095  0.00  0.00    +0.144 C 
ATOM      9  C   UNL     1     -34.940  21.050   2.541  0.00  0.00    +0.003 C 
ATOM     10  C   UNL     1     -37.492  21.071   1.414  0.00  0.00    +0.038 C 
ATOM     11  C   UNL     1     -36.687  19.938   1.297  0.00  0.00    +0.043 C 
ATOM     12  C   UNL     1     -35.411  19.928   1.860  0.00  0.00    +0.014 C 
BRANCH   8  15
ATOM     13  O   UNL     1     -38.587  23.464   3.212  0.00  0.00    -0.126 OA
ATOM     14  O   UNL     1     -37.870  24.169   1.261  0.00  0.00    -0.126 OA
ATOM     15  N   UNL     1     -37.869  23.334   2.195  0.00  0.00    +0.058 N 
ENDBRANCH   8  15
BRANCH  11  16
ATOM     16  N   UNL     1     -37.164  18.802   0.610  0.00  0.00    -0.357 N 
ATOM     17  H   UNL     1     -38.121  18.572   0.643  0.00  0.00    +0.142 HD
ATOM     18  H   UNL     1     -36.540  18.240   0.095  0.00  0.00    +0.142 HD
ENDBRANCH  11  16
ENDBRANCH   1   7
BRANCH   5  21
ATOM     19  O   UNL     1     -33.373  27.722   4.687  0.00  0.00    -0.126 OA
ATOM     20  O   UNL     1     -33.512  26.658   6.602  0.00  0.00    -0.126 OA
ATOM     21  N   UNL     1     -33.666  26.703   5.358  0.00  0.00    +0.058 N 
ENDBRANCH   5  21
BRANCH   2  22
ATOM     22  N   UNL     1     -36.071  22.487   5.505  0.00  0.00    -0.357 N 
ATOM     23  H   UNL     1     -36.120  21.560   5.178  0.00  0.00    +0.142 HD
ATOM     24  H   UNL     1     -36.498  22.733   6.358  0.00  0.00    +0.142 HD
ENDBRANCH   2  22
TORSDOF 5
ENDMDL
MODEL 2
REMARK VINA RESULT:      -6.0      2.005      2.594
REMARK  Name = 5486850
REMARK  5 active torsions:
REMARK  status: ('A' for Active; 'I' for Inactive)
REMARK    1  A    between atoms: C_1  and  C_7
REMARK    2  A    between atoms: C_2  and  N_22
REMARK    3  A    between atoms: C_5  and  N_21
REMARK    4  A    between atoms: C_8  and  N_15
REMARK    5  A    between atoms: C_11  and  N_16
REMARK                            x       y       z     vdW  Elec       q    Type
REMARK                         _______ _______ _______ _____ _____    ______ ____
ROOT
ATOM      1  C   UNL     1     -36.232  24.183   3.625  0.00  0.00    +0.015 C 
ATOM      2  C   UNL     1     -35.734  23.871   4.890  0.00  0.00    +0.043 C 
ATOM      3  C   UNL     1     -35.765  25.311   2.950  0.00  0.00    +0.003 C 
ATOM      4  C   UNL     1     -34.770  24.687   5.481  0.00  0.00    +0.038 C 
ATOM      5  C   UNL     1     -34.302  25.816   4.806  0.00  0.00    +0.144 C 
ATOM      6  C   UNL     1     -34.800  26.127   3.541  0.00  0.00    +0.024 C 
ENDROOT
BRANCH   1   7
ATOM      7  C   UNL     1     -37.235  23.354   2.984  0.00  0.00    +0.024 C 
ATOM      8  C   UNL     1     -36.915  22.110   2.442  0.00  0.00    +0.144 C 
ATOM      9  C   UNL     1     -38.546  23.828   2.918  0.00  0.00    +0.003 C 
ATOM     10  C   UNL     1     -37.905  21.338   1.833  0.00  0.00    +0.038 C 
ATOM     11  C   UNL     1     -39.216  21.811   1.767  0.00  0.00    +0.043 C 
ATOM     12  C   UNL     1     -39.535  23.056   2.310  0.00  0.00    +0.014 C 
BRANCH   8  15
ATOM     13  O   UNL     1     -34.747  22.009   1.662  0.00  0.00    -0.126 OA
ATOM     14  O   UNL     1     -35.303  20.744   3.367  0.00  0.00    -0.126 OA
ATOM     15  N   UNL     1     -35.587  21.595   2.492  0.00  0.00    +0.058 N 
ENDBRANCH   8  15
BRANCH  11  16
ATOM     16  N   UNL     1     -40.217  21.032   1.151  0.00  0.00    -0.357 N 
ATOM     17  H   UNL     1     -40.287  21.006   0.169  0.00  0.00    +0.142 HD
ATOM     18  H   UNL     1     -40.845  20.512   1.703  0.00  0.00    +0.142 HD
ENDBRANCH  11  16
ENDBRANCH   1   7
BRANCH   5  21
ATOM     19  O   UNL     1     -32.441  27.171   4.681  0.00  0.00    -0.126 OA
ATOM     20  O   UNL     1     -33.358  26.834   6.647  0.00  0.00    -0.126 OA
ATOM     21  N   UNL     1     -33.320  26.646   5.408  0.00  0.00    +0.058 N 
ENDBRANCH   5  21
BRANCH   2  22
ATOM     22  N   UNL     1     -36.189  22.734   5.597  0.00  0.00    -0.357 N 
ATOM     23  H   UNL     1     -36.835  22.838   6.333  0.00  0.00    +0.142 HD
ATOM     24  H   UNL     1     -35.861  21.838   5.352  0.00  0.00    +0.142 HD
ENDBRANCH   2  22
TORSDOF 5
ENDMDL
MODEL 3
REMARK VINA RESULT:      -5.8      3.001      6.230
REMARK  Name = 5486850
REMARK  5 active torsions:
REMARK  status: ('A' for Active; 'I' for Inactive)
REMARK    1  A    between atoms: C_1  and  C_7
REMARK    2  A    between atoms: C_2  and  N_22
REMARK    3  A    between atoms: C_5  and  N_21
REMARK    4  A    between atoms: C_8  and  N_15
REMARK    5  A    between atoms: C_11  and  N_16
REMARK                            x       y       z     vdW  Elec       q    Type
REMARK                         _______ _______ _______ _____ _____    ______ ____
ROOT
ATOM      1  C   UNL     1     -35.402  25.640   3.456  0.00  0.00    +0.015 C 
ATOM      2  C   UNL     1     -35.899  25.533   4.755  0.00  0.00    +0.043 C 
ATOM      3  C   UNL     1     -34.945  24.504   2.788  0.00  0.00    +0.003 C 
ATOM      4  C   UNL     1     -35.939  24.290   5.386  0.00  0.00    +0.038 C 
ATOM      5  C   UNL     1     -35.482  23.153   4.718  0.00  0.00    +0.144 C 
ATOM      6  C   UNL     1     -34.985  23.261   3.419  0.00  0.00    +0.024 C 
ENDROOT
BRANCH   1   7
ATOM      7  C   UNL     1     -35.348  26.918   2.773  0.00  0.00    +0.024 C 
ATOM      8  C   UNL     1     -34.289  27.805   2.969  0.00  0.00    +0.144 C 
ATOM      9  C   UNL     1     -36.385  27.251   1.901  0.00  0.00    +0.003 C 
ATOM     10  C   UNL     1     -34.268  29.026   2.294  0.00  0.00    +0.038 C 
ATOM     11  C   UNL     1     -35.306  29.360   1.423  0.00  0.00    +0.043 C 
ATOM     12  C   UNL     1     -36.363  28.471   1.226  0.00  0.00    +0.014 C 
BRANCH   8  15
ATOM     13  O   UNL     1     -32.212  26.900   3.396  0.00  0.00    -0.126 OA
ATOM     14  O   UNL     1     -33.305  27.836   5.054  0.00  0.00    -0.126 OA
ATOM     15  N   UNL     1     -33.214  27.498   3.851  0.00  0.00    +0.058 N 
ENDBRANCH   8  15
BRANCH  11  16
ATOM     16  N   UNL     1     -35.285  30.594   0.741  0.00  0.00    -0.357 N 
ATOM     17  H   UNL     1     -34.840  31.373   1.146  0.00  0.00    +0.142 HD
ATOM     18  H   UNL     1     -35.716  30.676  -0.140  0.00  0.00    +0.142 HD
ENDBRANCH  11  16
ENDBRANCH   1   7
BRANCH   5  21
ATOM     19  O   UNL     1     -35.118  20.876   4.736  0.00  0.00    -0.126 OA
ATOM     20  O   UNL     1     -35.961  21.814   6.533  0.00  0.00    -0.126 OA
ATOM     21  N   UNL     1     -35.523  21.887   5.360  0.00  0.00    +0.058 N 
ENDBRANCH   5  21
BRANCH   2  22
ATOM     22  N   UNL     1     -36.368  26.667   5.456  0.00  0.00    -0.357 N 
ATOM     23  H   UNL     1     -35.729  27.338   5.790  0.00  0.00    +0.142 HD
ATOM     24  H   UNL     1     -37.333  26.787   5.609  0.00  0.00    +0.142 HD
ENDBRANCH   2  22
TORSDOF 5
ENDMDL
MODEL 4
REMARK VINA RESULT:      -5.7      2.696      6.282
REMARK  Name = 5486850
REMARK  5 active torsions:
REMARK  status: ('A' for Active; 'I' for Inactive)
REMARK    1  A    between atoms: C_1  and  C_7
REMARK    2  A    between atoms: C_2  and  N_22
REMARK    3  A    between atoms: C_5  and  N_21
REMARK    4  A    between atoms: C_8  and  N_15
REMARK    5  A    between atoms: C_11  and  N_16
REMARK                            x       y       z     vdW  Elec       q    Type
REMARK                         _______ _______ _______ _____ _____    ______ ____
ROOT
ATOM      1  C   UNL     1     -37.196  23.537   2.942  0.00  0.00    +0.015 C 
ATOM      2  C   UNL     1     -38.577  23.734   2.966  0.00  0.00    +0.043 C 
ATOM      3  C   UNL     1     -36.651  22.503   2.181  0.00  0.00    +0.003 C 
ATOM      4  C   UNL     1     -39.413  22.896   2.228  0.00  0.00    +0.038 C 
ATOM      5  C   UNL     1     -38.868  21.861   1.467  0.00  0.00    +0.144 C 
ATOM      6  C   UNL     1     -37.488  21.665   1.444  0.00  0.00    +0.024 C 
ENDROOT
BRANCH   1   7
ATOM      7  C   UNL     1     -36.300  24.392   3.698  0.00  0.00    +0.024 C 
ATOM      8  C   UNL     1     -35.978  25.677   3.262  0.00  0.00    +0.144 C 
ATOM      9  C   UNL     1     -35.758  23.902   4.887  0.00  0.00    +0.003 C 
ATOM     10  C   UNL     1     -35.113  26.472   4.015  0.00  0.00    +0.038 C 
ATOM     11  C   UNL     1     -34.571  25.982   5.203  0.00  0.00    +0.043 C 
ATOM     12  C   UNL     1     -34.894  24.697   5.639  0.00  0.00    +0.014 C 
BRANCH   8  15
ATOM     13  O   UNL     1     -35.938  25.948   0.973  0.00  0.00    -0.126 OA
ATOM     14  O   UNL     1     -37.541  26.923   2.113  0.00  0.00    -0.126 OA
ATOM     15  N   UNL     1     -36.512  26.209   2.054  0.00  0.00    +0.058 N 
ENDBRANCH   8  15
BRANCH  11  16
ATOM     16  N   UNL     1     -33.696  26.786   5.964  0.00  0.00    -0.357 N 
ATOM     17  H   UNL     1     -34.056  27.395   6.648  0.00  0.00    +0.142 HD
ATOM     18  H   UNL     1     -32.725  26.735   5.811  0.00  0.00    +0.142 HD
ENDBRANCH  11  16
ENDBRANCH   1   7
BRANCH   5  21
ATOM     19  O   UNL     1     -40.962  21.163   0.800  0.00  0.00    -0.126 OA
ATOM     20  O   UNL     1     -39.207  20.124  -0.012  0.00  0.00    -0.126 OA
ATOM     21  N   UNL     1     -39.719  21.008   0.715  0.00  0.00    +0.058 N 
ENDBRANCH   5  21
BRANCH   2  22
ATOM     22  N   UNL     1     -39.156  24.774   3.728  0.00  0.00    -0.357 N 
ATOM     23  H   UNL     1     -39.459  25.599   3.284  0.00  0.00    +0.142 HD
ATOM     24  H   UNL     1     -39.257  24.673   4.702  0.00  0.00    +0.142 HD
ENDBRANCH   2  22
TORSDOF 5
ENDMDL
MODEL 5
REMARK VINA RESULT:      -5.7      0.947      1.866
REMARK  Name = 5486850
REMARK  5 active torsions:
REMARK  status: ('A' for Active; 'I' for Inactive)
REMARK    1  A    between atoms: C_1  and  C_7
REMARK    2  A    between atoms: C_2  and  N_22
REMARK    3  A    between atoms: C_5  and  N_21
REMARK    4  A    between atoms: C_8  and  N_15
REMARK    5  A    between atoms: C_11  and  N_16
REMARK                            x       y       z     vdW  Elec       q    Type
REMARK                         _______ _______ _______ _____ _____    ______ ____
ROOT
ATOM      1  C   UNL     1     -35.189  23.606   3.511  0.00  0.00    +0.015 C 
ATOM      2  C   UNL     1     -34.529  24.626   2.825  0.00  0.00    +0.043 C 
ATOM      3  C   UNL     1     -35.274  23.643   4.903  0.00  0.00    +0.003 C 
ATOM      4  C   UNL     1     -33.954  25.682   3.531  0.00  0.00    +0.038 C 
ATOM      5  C   UNL     1     -34.039  25.719   4.923  0.00  0.00    +0.144 C 
ATOM      6  C   UNL     1     -34.698  24.700   5.608  0.00  0.00    +0.024 C 
ENDROOT
BRANCH   1   7
ATOM      7  C   UNL     1     -35.798  22.494   2.806  0.00  0.00    +0.024 C 
ATOM      8  C   UNL     1     -37.071  22.594   2.248  0.00  0.00    +0.144 C 
ATOM      9  C   UNL     1     -35.077  21.305   2.691  0.00  0.00    +0.003 C 
ATOM     10  C   UNL     1     -37.627  21.505   1.575  0.00  0.00    +0.038 C 
ATOM     11  C   UNL     1     -36.906  20.316   1.461  0.00  0.00    +0.043 C 
ATOM     12  C   UNL     1     -35.631  20.216   2.019  0.00  0.00    +0.014 C 
BRANCH   8  15
ATOM     13  O   UNL     1     -37.741  24.645   1.433  0.00  0.00    -0.126 OA
ATOM     14  O   UNL     1     -38.578  23.955   3.342  0.00  0.00    -0.126 OA
ATOM     15  N   UNL     1     -37.835  23.793   2.345  0.00  0.00    +0.058 N 
ENDBRANCH   8  15
BRANCH  11  16
ATOM     16  N   UNL     1     -37.467  19.214   0.782  0.00  0.00    -0.357 N 
ATOM     17  H   UNL     1     -38.367  18.893   1.022  0.00  0.00    +0.142 HD
ATOM     18  H   UNL     1     -36.959  18.766   0.067  0.00  0.00    +0.142 HD
ENDBRANCH  11  16
ENDBRANCH   1   7
BRANCH   5  21
ATOM     19  O   UNL     1     -33.245  26.662   6.872  0.00  0.00    -0.126 OA
ATOM     20  O   UNL     1     -33.160  27.849   5.027  0.00  0.00    -0.126 OA
ATOM     21  N   UNL     1     -33.453  26.795   5.642  0.00  0.00    +0.058 N 
ENDBRANCH   5  21
BRANCH   2  22
ATOM     22  N   UNL     1     -34.428  24.614   1.415  0.00  0.00    -0.357 N 
ATOM     23  H   UNL     1     -34.828  25.343   0.887  0.00  0.00    +0.142 HD
ATOM     24  H   UNL     1     -33.958  23.877   0.961  0.00  0.00    +0.142 HD
ENDBRANCH   2  22
TORSDOF 5
ENDMDL
MODEL 6
REMARK VINA RESULT:      -5.6      3.155      5.502
REMARK  Name = 5486850
REMARK  5 active torsions:
REMARK  status: ('A' for Active; 'I' for Inactive)
REMARK    1  A    between atoms: C_1  and  C_7
REMARK    2  A    between atoms: C_2  and  N_22
REMARK    3  A    between atoms: C_5  and  N_21
REMARK    4  A    between atoms: C_8  and  N_15
REMARK    5  A    between atoms: C_11  and  N_16
REMARK                            x       y       z     vdW  Elec       q    Type
REMARK                         _______ _______ _______ _____ _____    ______ ____
ROOT
ATOM      1  C   UNL     1     -35.602  25.429   3.226  0.00  0.00    +0.015 C 
ATOM      2  C   UNL     1     -35.986  25.442   4.566  0.00  0.00    +0.043 C 
ATOM      3  C   UNL     1     -35.180  24.240   2.631  0.00  0.00    +0.003 C 
ATOM      4  C   UNL     1     -35.949  24.265   5.313  0.00  0.00    +0.038 C 
ATOM      5  C   UNL     1     -35.527  23.074   4.719  0.00  0.00    +0.144 C 
ATOM      6  C   UNL     1     -35.143  23.063   3.379  0.00  0.00    +0.024 C 
ENDROOT
BRANCH   1   7
ATOM      7  C   UNL     1     -35.630  26.637   2.422  0.00  0.00    +0.024 C 
ATOM      8  C   UNL     1     -36.787  27.045   1.760  0.00  0.00    +0.144 C 
ATOM      9  C   UNL     1     -34.464  27.396   2.322  0.00  0.00    +0.003 C 
ATOM     10  C   UNL     1     -36.779  28.213   0.996  0.00  0.00    +0.038 C 
ATOM     11  C   UNL     1     -35.613  28.972   0.896  0.00  0.00    +0.043 C 
ATOM     12  C   UNL     1     -34.456  28.564   1.559  0.00  0.00    +0.014 C 
BRANCH   8  15
ATOM     13  O   UNL     1     -38.239  25.445   0.954  0.00  0.00    -0.126 OA
ATOM     14  O   UNL     1     -38.776  26.509   2.797  0.00  0.00    -0.126 OA
ATOM     15  N   UNL     1     -37.995  26.295   1.840  0.00  0.00    +0.058 N 
ENDBRANCH   8  15
BRANCH  11  16
ATOM     16  N   UNL     1     -35.604  30.152   0.123  0.00  0.00    -0.357 N 
ATOM     17  H   UNL     1     -34.771  30.452  -0.308  0.00  0.00    +0.142 HD
ATOM     18  H   UNL     1     -36.431  30.675   0.014  0.00  0.00    +0.142 HD
ENDBRANCH  11  16
ENDBRANCH   1   7
BRANCH   5  21
ATOM     19  O   UNL     1     -35.925  21.889   6.656  0.00  0.00    -0.126 OA
ATOM     20  O   UNL     1     -35.023  20.836   4.954  0.00  0.00    -0.126 OA
ATOM     21  N   UNL     1     -35.490  21.875   5.479  0.00  0.00    +0.058 N 
ENDBRANCH   5  21
BRANCH   2  22
ATOM     22  N   UNL     1     -36.418  26.633   5.194  0.00  0.00    -0.357 N 
ATOM     23  H   UNL     1     -36.238  27.504   4.772  0.00  0.00    +0.142 HD
ATOM     24  H   UNL     1     -36.899  26.591   6.052  0.00  0.00    +0.142 HD
ENDBRANCH   2  22
TORSDOF 5
ENDMDL
MODEL 7
REMARK VINA RESULT:      -5.5      2.417      6.324
REMARK  Name = 5486850
REMARK  5 active torsions:
REMARK  status: ('A' for Active; 'I' for Inactive)
REMARK    1  A    between atoms: C_1  and  C_7
REMARK    2  A    between atoms: C_2  and  N_22
REMARK    3  A    between atoms: C_5  and  N_21
REMARK    4  A    between atoms: C_8  and  N_15
REMARK    5  A    between atoms: C_11  and  N_16
REMARK                            x       y       z     vdW  Elec       q    Type
REMARK                         _______ _______ _______ _____ _____    ______ ____
ROOT
ATOM      1  C   UNL     1     -35.767  22.440   2.617  0.00  0.00    +0.015 C 
ATOM      2  C   UNL     1     -37.145  22.294   2.464  0.00  0.00    +0.043 C 
ATOM      3  C   UNL     1     -34.896  21.558   1.976  0.00  0.00    +0.003 C 
ATOM      4  C   UNL     1     -37.653  21.267   1.669  0.00  0.00    +0.038 C 
ATOM      5  C   UNL     1     -36.783  20.385   1.027  0.00  0.00    +0.144 C 
ATOM      6  C   UNL     1     -35.405  20.531   1.181  0.00  0.00    +0.024 C 
ENDROOT
BRANCH   1   7
ATOM      7  C   UNL     1     -35.207  23.498   3.437  0.00  0.00    +0.024 C 
ATOM      8  C   UNL     1     -35.045  23.345   4.814  0.00  0.00    +0.144 C 
ATOM      9  C   UNL     1     -34.825  24.688   2.818  0.00  0.00    +0.003 C 
ATOM     10  C   UNL     1     -34.502  24.383   5.572  0.00  0.00    +0.038 C 
ATOM     11  C   UNL     1     -34.121  25.573   4.953  0.00  0.00    +0.043 C 
ATOM     12  C   UNL     1     -34.282  25.725   3.575  0.00  0.00    +0.014 C 
BRANCH   8  15
ATOM     13  O   UNL     1     -36.279  22.202   6.391  0.00  0.00    -0.126 OA
ATOM     14  O   UNL     1     -34.887  21.066   5.130  0.00  0.00    -0.126 OA
ATOM     15  N   UNL     1     -35.423  22.143   5.479  0.00  0.00    +0.058 N 
ENDBRANCH   8  15
BRANCH  11  16
ATOM     16  N   UNL     1     -33.573  26.623   5.719  0.00  0.00    -0.357 N 
ATOM     17  H   UNL     1     -32.799  26.454   6.304  0.00  0.00    +0.142 HD
ATOM     18  H   UNL     1     -33.963  27.525   5.667  0.00  0.00    +0.142 HD
ENDBRANCH  11  16
ENDBRANCH   1   7
BRANCH   5  21
ATOM     19  O   UNL     1     -38.516  19.359  -0.096  0.00  0.00    -0.126 OA
ATOM     20  O   UNL     1     -36.529  18.427  -0.163  0.00  0.00    -0.126 OA
ATOM     21  N   UNL     1     -37.300  19.340   0.217  0.00  0.00    +0.058 N 
ENDBRANCH   5  21
BRANCH   2  22
ATOM     22  N   UNL     1     -38.050  23.172   3.102  0.00  0.00    -0.357 N 
ATOM     23  H   UNL     1     -38.704  22.820   3.748  0.00  0.00    +0.142 HD
ATOM     24  H   UNL     1     -38.026  24.136   2.901  0.00  0.00    +0.142 HD
ENDBRANCH   2  22
TORSDOF 5
ENDMDL
MODEL 8
REMARK VINA RESULT:      -5.4      1.846      2.538
REMARK  Name = 5486850
REMARK  5 active torsions:
REMARK  status: ('A' for Active; 'I' for Inactive)
REMARK    1  A    between atoms: C_1  and  C_7
REMARK    2  A    between atoms: C_2  and  N_22
REMARK    3  A    between atoms: C_5  and  N_21
REMARK    4  A    between atoms: C_8  and  N_15
REMARK    5  A    between atoms: C_11  and  N_16
REMARK                            x       y       z     vdW  Elec       q    Type
REMARK                         _______ _______ _______ _____ _____    ______ ____
ROOT
ATOM      1  C   UNL     1     -34.838  24.832   3.901  0.00  0.00    +0.015 C 
ATOM      2  C   UNL     1     -33.963  25.549   3.085  0.00  0.00    +0.043 C 
ATOM      3  C   UNL     1     -34.923  25.125   5.263  0.00  0.00    +0.003 C 
ATOM      4  C   UNL     1     -33.172  26.560   3.631  0.00  0.00    +0.038 C 
ATOM      5  C   UNL     1     -33.256  26.853   4.993  0.00  0.00    +0.144 C 
ATOM      6  C   UNL     1     -34.131  26.136   5.808  0.00  0.00    +0.024 C 
ENDROOT
BRANCH   1   7
ATOM      7  C   UNL     1     -35.675  23.775   3.364  0.00  0.00    +0.024 C 
ATOM      8  C   UNL     1     -36.876  24.056   2.713  0.00  0.00    +0.144 C 
ATOM      9  C   UNL     1     -35.252  22.454   3.509  0.00  0.00    +0.003 C 
ATOM     10  C   UNL     1     -37.656  23.016   2.208  0.00  0.00    +0.038 C 
ATOM     11  C   UNL     1     -37.233  21.694   2.352  0.00  0.00    +0.043 C 
ATOM     12  C   UNL     1     -36.031  21.414   3.003  0.00  0.00    +0.014 C 
BRANCH   8  15
ATOM     13  O   UNL     1     -36.985  26.033   1.530  0.00  0.00    -0.126 OA
ATOM     14  O   UNL     1     -38.084  25.887   3.425  0.00  0.00    -0.126 OA
ATOM     15  N   UNL     1     -37.338  25.394   2.547  0.00  0.00    +0.058 N 
ENDBRANCH   8  15
BRANCH  11  16
ATOM     16  N   UNL     1     -38.021  20.641   1.842  0.00  0.00    -0.357 N 
ATOM     17  H   UNL     1     -38.620  20.139   2.441  0.00  0.00    +0.142 HD
ATOM     18  H   UNL     1     -37.973  20.410   0.886  0.00  0.00    +0.142 HD
ENDBRANCH  11  16
ENDBRANCH   1   7
BRANCH   5  21
ATOM     19  O   UNL     1     -32.664  29.071   5.208  0.00  0.00    -0.126 OA
ATOM     20  O   UNL     1     -31.548  27.576   6.364  0.00  0.00    -0.126 OA
ATOM     21  N   UNL     1     -32.450  27.882   5.548  0.00  0.00    +0.058 N 
ENDBRANCH   5  21
BRANCH   2  22
ATOM     22  N   UNL     1     -33.858  25.274   1.703  0.00  0.00    -0.357 N 
ATOM     23  H   UNL     1     -33.049  24.839   1.349  0.00  0.00    +0.142 HD
ATOM     24  H   UNL     1     -34.594  25.516   1.095  0.00  0.00    +0.142 HD
ENDBRANCH   2  22
TORSDOF 5
ENDMDL
MODEL 9
REMARK VINA RESULT:      -5.3      2.763      6.292
REMARK  Name = 5486850
REMARK  5 active torsions:
REMARK  status: ('A' for Active; 'I' for Inactive)
REMARK    1  A    between atoms: C_1  and  C_7
REMARK    2  A    between atoms: C_2  and  N_22
REMARK    3  A    between atoms: C_5  and  N_21
REMARK    4  A    between atoms: C_8  and  N_15
REMARK    5  A    between atoms: C_11  and  N_16
REMARK                            x       y       z     vdW  Elec       q    Type
REMARK                         _______ _______ _______ _____ _____    ______ ____
ROOT
ATOM      1  C   UNL     1     -36.899  24.420   3.450  0.00  0.00    +0.015 C 
ATOM      2  C   UNL     1     -36.670  23.142   2.941  0.00  0.00    +0.043 C 
ATOM      3  C   UNL     1     -38.178  24.976   3.392  0.00  0.00    +0.003 C 
ATOM      4  C   UNL     1     -37.719  22.419   2.375  0.00  0.00    +0.038 C 
ATOM      5  C   UNL     1     -38.998  22.974   2.316  0.00  0.00    +0.144 C 
ATOM      6  C   UNL     1     -39.227  24.252   2.825  0.00  0.00    +0.024 C 
ENDROOT
BRANCH   1   7
ATOM      7  C   UNL     1     -35.829  25.197   4.046  0.00  0.00    +0.024 C 
ATOM      8  C   UNL     1     -34.962  25.961   3.266  0.00  0.00    +0.144 C 
ATOM      9  C   UNL     1     -35.680  25.170   5.433  0.00  0.00    +0.003 C 
ATOM     10  C   UNL     1     -33.943  26.698   3.872  0.00  0.00    +0.038 C 
ATOM     11  C   UNL     1     -33.794  26.671   5.259  0.00  0.00    +0.043 C 
ATOM     12  C   UNL     1     -34.663  25.907   6.039  0.00  0.00    +0.014 C 
BRANCH   8  15
ATOM     13  O   UNL     1     -34.482  25.159   1.158  0.00  0.00    -0.126 OA
ATOM     14  O   UNL     1     -35.793  26.911   1.336  0.00  0.00    -0.126 OA
ATOM     15  N   UNL     1     -35.085  26.012   1.848  0.00  0.00    +0.058 N 
ENDBRANCH   8  15
BRANCH  11  16
ATOM     16  N   UNL     1     -32.764  27.414   5.873  0.00  0.00    -0.357 N 
ATOM     17  H   UNL     1     -31.921  26.973   6.125  0.00  0.00    +0.142 HD
ATOM     18  H   UNL     1     -32.889  28.375   6.046  0.00  0.00    +0.142 HD
ENDBRANCH  11  16
ENDBRANCH   1   7
BRANCH   5  21
ATOM     19  O   UNL     1     -40.316  21.087   2.175  0.00  0.00    -0.126 OA
ATOM     20  O   UNL     1     -40.732  22.757   0.812  0.00  0.00    -0.126 OA
ATOM     21  N   UNL     1     -40.067  22.237   1.740  0.00  0.00    +0.058 N 
ENDBRANCH   5  21
BRANCH   2  22
ATOM     22  N   UNL     1     -35.385  22.554   2.987  0.00  0.00    -0.357 N 
ATOM     23  H   UNL     1     -34.603  23.101   3.229  0.00  0.00    +0.142 HD
ATOM     24  H   UNL     1     -35.273  21.599   2.777  0.00  0.00    +0.142 HD
ENDBRANCH   2  22
TORSDOF 5
ENDMDL
