MODEL 1
REMARK VINA RESULT:      -6.0      0.000      0.000
REMARK  Name = 5353490
REMARK  7 active torsions:
REMARK  status: ('A' for Active; 'I' for Inactive)
REMARK    1  A    between atoms: C_4  and  C_29
REMARK    2  A    between atoms: CA_6  and  N_11
REMARK    3  A    between atoms: CA_7  and  C_28
REMARK    4  A    between atoms: C_12  and  C_15
REMARK    5  A    between atoms: N_14  and  O_24
REMARK    6  A    between atoms: C_15  and  C_19
REMARK    7  A    between atoms: C_29  and  N_30
REMARK                            x       y       z     vdW  Elec       q    Type
REMARK                         _______ _______ _______ _____ _____    ______ ____
ROOT
ATOM      1  S   UNL     1     -34.539  28.221   2.242  0.00  0.00    -0.114 S 
ATOM      2  O   UNL     1     -33.848  26.191   6.369  0.00  0.00    -0.273 OA
ATOM      3  N   UNL     1     -33.259  27.292   4.373  0.00  0.00    -0.242 N 
ATOM      4  C   UNL     1     -32.167  29.167   3.445  0.00  0.00    -0.034 C 
ATOM      5  C   UNL     1     -33.815  26.816   3.121  0.00  0.00    +0.155 C 
ATOM      6  CA  UNL     1     -34.779  25.971   3.984  0.00  0.00    +0.179 C 
ATOM      7  CA  UNL     1     -32.377  28.318   4.477  0.00  0.00    +0.126 C 
ATOM      8  C   UNL     1     -32.949  29.114   2.136  0.00  0.00    +0.081 C 
ATOM      9  C   UNL     1     -33.901  26.427   5.185  0.00  0.00    +0.251 C 
ENDROOT
BRANCH   6  11
ATOM     10  O   UNL     1     -37.103  24.163   4.129  0.00  0.00    -0.268 OA
ATOM     11  N   UNL     1     -34.807  24.521   3.793  0.00  0.00    -0.291 N 
ATOM     12  C   UNL     1     -35.970  23.777   3.887  0.00  0.00    +0.269 C 
ATOM     13  H   UNL     1     -33.965  24.056   3.588  0.00  0.00    +0.150 HD
BRANCH  12  15
ATOM     14  N   UNL     1     -35.140  21.586   4.548  0.00  0.00    -0.076 NA
ATOM     15  C   UNL     1     -35.748  22.305   3.653  0.00  0.00    +0.198 C 
BRANCH  15  19
ATOM     16  S   UNL     1     -37.026  21.218   0.063  0.00  0.00    -0.060 S 
ATOM     17  N   UNL     1     -36.289  20.275   2.354  0.00  0.00    -0.383 NA
ATOM     18  N   UNL     1     -36.913  18.652   0.752  0.00  0.00    -0.328 N 
ATOM     19  C   UNL     1     -36.200  21.651   2.421  0.00  0.00    +0.148 C 
ATOM     20  C   UNL     1     -36.558  22.334   1.277  0.00  0.00    +0.127 C 
ATOM     21  C   UNL     1     -36.714  19.934   1.158  0.00  0.00    +0.204 C 
ATOM     22  H   UNL     1     -37.234  18.469  -0.160  0.00  0.00    +0.145 HD
ATOM     23  H   UNL     1     -36.737  17.907   1.371  0.00  0.00    +0.145 HD
ENDBRANCH  15  19
BRANCH  14  24
ATOM     24  O   UNL     1     -34.764  22.351   5.662  0.00  0.00    -0.373 OA
ATOM     25  C   UNL     1     -35.534  21.920   6.773  0.00  0.00    +0.288 C 
ENDBRANCH  14  24
ENDBRANCH  12  15
ENDBRANCH   6  11
BRANCH   7  28
ATOM     26  O   UNL     1     -30.637  27.793   5.963  0.00  0.00    -0.239 OA
ATOM     27  OXT UNL     1     -32.169  29.384   6.559  0.00  0.00    -0.239 OA
ATOM     28  C   UNL     1     -31.653  28.519   5.804  0.00  0.00    +0.401 C 
ENDBRANCH   7  28
BRANCH   4  29
ATOM     29  C   UNL     1     -31.188  30.319   3.463  0.00  0.00    -0.048 C 
BRANCH  29  30
ATOM     30  N   UNL     1     -29.811  29.918   2.959  0.00  0.00    +0.391 N 
ATOM     31  C   UNL     1     -29.454  30.702   1.679  0.00  0.00    -0.073 C 
ATOM     32  C   UNL     1     -29.798  28.429   2.557  0.00  0.00    -0.073 C 
ATOM     33  C   UNL     1     -29.595  29.691   0.558  0.00  0.00    -0.024 C 
ATOM     34  C   UNL     1     -29.123  28.404   1.199  0.00  0.00    -0.024 C 
ATOM     35  C   UNL     1     -28.781  30.187   4.046  0.00  0.00    -0.095 C 
ENDBRANCH  29  30
ENDBRANCH   4  29
TORSDOF 7
ENDMDL
MODEL 2
REMARK VINA RESULT:      -6.0      1.798      2.435
REMARK  Name = 5353490
REMARK  7 active torsions:
REMARK  status: ('A' for Active; 'I' for Inactive)
REMARK    1  A    between atoms: C_4  and  C_29
REMARK    2  A    between atoms: CA_6  and  N_11
REMARK    3  A    between atoms: CA_7  and  C_28
REMARK    4  A    between atoms: C_12  and  C_15
REMARK    5  A    between atoms: N_14  and  O_24
REMARK    6  A    between atoms: C_15  and  C_19
REMARK    7  A    between atoms: C_29  and  N_30
REMARK                            x       y       z     vdW  Elec       q    Type
REMARK                         _______ _______ _______ _____ _____    ______ ____
ROOT
ATOM      1  S   UNL     1     -34.935  28.405   1.635  0.00  0.00    -0.114 S 
ATOM      2  O   UNL     1     -34.157  26.414   5.766  0.00  0.00    -0.273 OA
ATOM      3  N   UNL     1     -33.605  27.414   3.706  0.00  0.00    -0.242 N 
ATOM      4  C   UNL     1     -32.416  29.163   2.660  0.00  0.00    -0.034 C 
ATOM      5  C   UNL     1     -34.281  26.962   2.505  0.00  0.00    +0.155 C 
ATOM      6  CA  UNL     1     -35.256  26.225   3.451  0.00  0.00    +0.179 C 
ATOM      7  CA  UNL     1     -32.632  28.359   3.726  0.00  0.00    +0.126 C 
ATOM      8  C   UNL     1     -33.284  29.151   1.405  0.00  0.00    +0.081 C 
ATOM      9  C   UNL     1     -34.266  26.628   4.581  0.00  0.00    +0.251 C 
ENDROOT
BRANCH   6  11
ATOM     10  O   UNL     1     -37.587  24.579   4.192  0.00  0.00    -0.268 OA
ATOM     11  N   UNL     1     -35.423  24.780   3.302  0.00  0.00    -0.291 N 
ATOM     12  C   UNL     1     -36.574  24.116   3.691  0.00  0.00    +0.269 C 
ATOM     13  H   UNL     1     -34.688  24.258   2.909  0.00  0.00    +0.150 HD
BRANCH  12  15
ATOM     14  N   UNL     1     -35.736  21.880   4.164  0.00  0.00    -0.076 NA
ATOM     15  C   UNL     1     -36.510  22.631   3.441  0.00  0.00    +0.198 C 
BRANCH  15  19
ATOM     16  S   UNL     1     -38.022  20.665   0.350  0.00  0.00    -0.060 S 
ATOM     17  N   UNL     1     -38.674  22.183   2.338  0.00  0.00    -0.383 NA
ATOM     18  N   UNL     1     -40.474  21.489   0.970  0.00  0.00    -0.328 N 
ATOM     19  C   UNL     1     -37.306  22.001   2.383  0.00  0.00    +0.148 C 
ATOM     20  C   UNL     1     -36.771  21.209   1.389  0.00  0.00    +0.127 C 
ATOM     21  C   UNL     1     -39.158  21.525   1.308  0.00  0.00    +0.204 C 
ATOM     22  H   UNL     1     -40.766  20.974   0.184  0.00  0.00    +0.145 HD
ATOM     23  H   UNL     1     -41.134  21.977   1.512  0.00  0.00    +0.145 HD
ENDBRANCH  15  19
BRANCH  14  24
ATOM     24  O   UNL     1     -35.037  22.626   5.125  0.00  0.00    -0.373 OA
ATOM     25  C   UNL     1     -35.408  22.148   6.409  0.00  0.00    +0.288 C 
ENDBRANCH  14  24
ENDBRANCH  12  15
ENDBRANCH   6  11
BRANCH   7  28
ATOM     26  O   UNL     1     -32.347  29.238   5.884  0.00  0.00    -0.239 OA
ATOM     27  OXT UNL     1     -30.702  27.923   4.990  0.00  0.00    -0.239 OA
ATOM     28  C   UNL     1     -31.808  28.525   4.999  0.00  0.00    +0.401 C 
ENDBRANCH   7  28
BRANCH   4  29
ATOM     29  C   UNL     1     -31.342  30.224   2.584  0.00  0.00    -0.048 C 
BRANCH  29  30
ATOM     30  N   UNL     1     -31.823  31.574   3.093  0.00  0.00    +0.391 N 
ATOM     31  C   UNL     1     -33.330  31.524   3.420  0.00  0.00    -0.073 C 
ATOM     32  C   UNL     1     -31.667  32.648   1.996  0.00  0.00    -0.073 C 
ATOM     33  C   UNL     1     -33.993  32.288   2.291  0.00  0.00    -0.024 C 
ATOM     34  C   UNL     1     -32.993  33.383   1.987  0.00  0.00    -0.024 C 
ATOM     35  C   UNL     1     -31.027  31.956   4.331  0.00  0.00    -0.095 C 
ENDBRANCH  29  30
ENDBRANCH   4  29
TORSDOF 7
ENDMDL
MODEL 3
REMARK VINA RESULT:      -6.0      5.343      7.367
REMARK  Name = 5353490
REMARK  7 active torsions:
REMARK  status: ('A' for Active; 'I' for Inactive)
REMARK    1  A    between atoms: C_4  and  C_29
REMARK    2  A    between atoms: CA_6  and  N_11
REMARK    3  A    between atoms: CA_7  and  C_28
REMARK    4  A    between atoms: C_12  and  C_15
REMARK    5  A    between atoms: N_14  and  O_24
REMARK    6  A    between atoms: C_15  and  C_19
REMARK    7  A    between atoms: C_29  and  N_30
REMARK                            x       y       z     vdW  Elec       q    Type
REMARK                         _______ _______ _______ _____ _____    ______ ____
ROOT
ATOM      1  S   UNL     1     -34.554  31.896   1.547  0.00  0.00    -0.114 S 
ATOM      2  O   UNL     1     -36.558  27.898   0.272  0.00  0.00    -0.273 OA
ATOM      3  N   UNL     1     -36.461  30.149   0.959  0.00  0.00    -0.242 N 
ATOM      4  C   UNL     1     -37.113  32.359   0.449  0.00  0.00    -0.034 C 
ATOM      5  C   UNL     1     -35.590  30.507   2.062  0.00  0.00    +0.155 C 
ATOM      6  CA  UNL     1     -34.979  29.096   1.907  0.00  0.00    +0.179 C 
ATOM      7  CA  UNL     1     -37.270  31.022   0.308  0.00  0.00    +0.126 C 
ATOM      8  C   UNL     1     -35.982  32.995   1.253  0.00  0.00    +0.081 C 
ATOM      9  C   UNL     1     -36.143  28.838   0.908  0.00  0.00    +0.251 C 
ENDROOT
BRANCH   6  11
ATOM     10  O   UNL     1     -33.175  26.829   2.454  0.00  0.00    -0.268 OA
ATOM     11  N   UNL     1     -34.984  28.197   3.061  0.00  0.00    -0.291 N 
ATOM     12  C   UNL     1     -34.078  27.160   3.206  0.00  0.00    +0.269 C 
ATOM     13  H   UNL     1     -35.659  28.335   3.764  0.00  0.00    +0.150 HD
BRANCH  12  15
ATOM     14  N   UNL     1     -33.802  26.806   5.598  0.00  0.00    -0.076 NA
ATOM     15  C   UNL     1     -34.284  26.371   4.473  0.00  0.00    +0.198 C 
BRANCH  15  19
ATOM     16  S   UNL     1     -36.448  23.123   3.785  0.00  0.00    -0.060 S 
ATOM     17  N   UNL     1     -35.016  24.294   5.591  0.00  0.00    -0.383 NA
ATOM     18  N   UNL     1     -35.946  22.217   6.234  0.00  0.00    -0.328 N 
ATOM     19  C   UNL     1     -35.018  25.101   4.471  0.00  0.00    +0.148 C 
ATOM     20  C   UNL     1     -35.739  24.635   3.392  0.00  0.00    +0.127 C 
ATOM     21  C   UNL     1     -35.738  23.223   5.344  0.00  0.00    +0.204 C 
ATOM     22  H   UNL     1     -36.499  21.443   5.981  0.00  0.00    +0.145 HD
ATOM     23  H   UNL     1     -35.543  22.263   7.131  0.00  0.00    +0.145 HD
ENDBRANCH  15  19
BRANCH  14  24
ATOM     24  O   UNL     1     -33.123  28.022   5.438  0.00  0.00    -0.373 OA
ATOM     25  C   UNL     1     -32.081  28.076   6.400  0.00  0.00    +0.288 C 
ENDBRANCH  14  24
ENDBRANCH  12  15
ENDBRANCH   6  11
BRANCH   7  28
ATOM     26  O   UNL     1     -38.050  30.510  -1.846  0.00  0.00    -0.239 OA
ATOM     27  OXT UNL     1     -39.370  30.030  -0.040  0.00  0.00    -0.239 OA
ATOM     28  C   UNL     1     -38.341  30.463  -0.622  0.00  0.00    +0.401 C 
ENDBRANCH   7  28
BRANCH   4  29
ATOM     29  C   UNL     1     -37.980  33.403  -0.216  0.00  0.00    -0.048 C 
BRANCH  29  30
ATOM     30  N   UNL     1     -39.033  33.968   0.725  0.00  0.00    +0.391 N 
ATOM     31  C   UNL     1     -39.189  35.488   0.513  0.00  0.00    -0.073 C 
ATOM     32  C   UNL     1     -38.591  33.792   2.193  0.00  0.00    -0.073 C 
ATOM     33  C   UNL     1     -38.514  36.115   1.717  0.00  0.00    -0.024 C 
ATOM     34  C   UNL     1     -38.838  35.145   2.832  0.00  0.00    -0.024 C 
ATOM     35  C   UNL     1     -40.357  33.261   0.477  0.00  0.00    -0.095 C 
ENDBRANCH  29  30
ENDBRANCH   4  29
TORSDOF 7
ENDMDL
MODEL 4
REMARK VINA RESULT:      -6.0      3.014      8.819
REMARK  Name = 5353490
REMARK  7 active torsions:
REMARK  status: ('A' for Active; 'I' for Inactive)
REMARK    1  A    between atoms: C_4  and  C_29
REMARK    2  A    between atoms: CA_6  and  N_11
REMARK    3  A    between atoms: CA_7  and  C_28
REMARK    4  A    between atoms: C_12  and  C_15
REMARK    5  A    between atoms: N_14  and  O_24
REMARK    6  A    between atoms: C_15  and  C_19
REMARK    7  A    between atoms: C_29  and  N_30
REMARK                            x       y       z     vdW  Elec       q    Type
REMARK                         _______ _______ _______ _____ _____    ______ ____
ROOT
ATOM      1  S   UNL     1     -34.875  24.304   5.613  0.00  0.00    -0.114 S 
ATOM      2  O   UNL     1     -35.106  28.298   3.242  0.00  0.00    -0.273 OA
ATOM      3  N   UNL     1     -35.121  25.964   3.559  0.00  0.00    -0.242 N 
ATOM      4  C   UNL     1     -36.342  23.973   3.224  0.00  0.00    -0.034 C 
ATOM      5  C   UNL     1     -34.087  25.363   4.378  0.00  0.00    +0.155 C 
ATOM      6  CA  UNL     1     -33.740  26.802   4.822  0.00  0.00    +0.179 C 
ATOM      7  CA  UNL     1     -36.091  25.266   2.916  0.00  0.00    +0.126 C 
ATOM      8  C   UNL     1     -35.645  23.225   4.357  0.00  0.00    +0.081 C 
ATOM      9  C   UNL     1     -34.740  27.249   3.718  0.00  0.00    +0.251 C 
ENDROOT
BRANCH   6  11
ATOM     10  O   UNL     1     -32.422  29.102   6.111  0.00  0.00    -0.268 OA
ATOM     11  N   UNL     1     -32.377  27.292   4.616  0.00  0.00    -0.291 N 
ATOM     12  C   UNL     1     -31.870  28.392   5.286  0.00  0.00    +0.269 C 
ATOM     13  H   UNL     1     -31.798  26.821   3.976  0.00  0.00    +0.150 HD
BRANCH  12  15
ATOM     14  N   UNL     1     -30.174  29.177   3.726  0.00  0.00    -0.076 NA
ATOM     15  C   UNL     1     -30.445  28.707   4.906  0.00  0.00    +0.198 C 
BRANCH  15  19
ATOM     16  S   UNL     1     -27.480  28.837   7.532  0.00  0.00    -0.060 S 
ATOM     17  N   UNL     1     -28.858  27.213   6.068  0.00  0.00    -0.383 NA
ATOM     18  N   UNL     1     -27.178  26.199   7.386  0.00  0.00    -0.328 N 
ATOM     19  C   UNL     1     -29.339  28.488   5.844  0.00  0.00    +0.148 C 
ATOM     20  C   UNL     1     -28.718  29.499   6.547  0.00  0.00    +0.127 C 
ATOM     21  C   UNL     1     -27.877  27.276   6.940  0.00  0.00    +0.204 C 
ATOM     22  H   UNL     1     -26.454  26.320   8.042  0.00  0.00    +0.145 HD
ATOM     23  H   UNL     1     -27.397  25.299   7.055  0.00  0.00    +0.145 HD
ENDBRANCH  15  19
BRANCH  14  24
ATOM     24  O   UNL     1     -31.329  29.323   2.946  0.00  0.00    -0.373 OA
ATOM     25  C   UNL     1     -31.022  28.915   1.621  0.00  0.00    +0.288 C 
ENDBRANCH  14  24
ENDBRANCH  12  15
ENDBRANCH   6  11
BRANCH   7  28
ATOM     26  O   UNL     1     -37.943  26.575   2.310  0.00  0.00    -0.239 OA
ATOM     27  OXT UNL     1     -36.481  25.894   0.687  0.00  0.00    -0.239 OA
ATOM     28  C   UNL     1     -36.925  25.986   1.862  0.00  0.00    +0.401 C 
ENDBRANCH   7  28
BRANCH   4  29
ATOM     29  C   UNL     1     -37.383  23.112   2.546  0.00  0.00    -0.048 C 
BRANCH  29  30
ATOM     30  N   UNL     1     -36.794  22.251   1.440  0.00  0.00    +0.391 N 
ATOM     31  C   UNL     1     -36.888  20.756   1.809  0.00  0.00    -0.073 C 
ATOM     32  C   UNL     1     -35.289  22.548   1.272  0.00  0.00    -0.073 C 
ATOM     33  C   UNL     1     -35.470  20.360   2.171  0.00  0.00    -0.024 C 
ATOM     34  C   UNL     1     -34.632  21.182   1.216  0.00  0.00    -0.024 C 
ATOM     35  C   UNL     1     -37.539  22.522   0.142  0.00  0.00    -0.095 C 
ENDBRANCH  29  30
ENDBRANCH   4  29
TORSDOF 7
ENDMDL
MODEL 5
REMARK VINA RESULT:      -6.0      2.836      8.954
REMARK  Name = 5353490
REMARK  7 active torsions:
REMARK  status: ('A' for Active; 'I' for Inactive)
REMARK    1  A    between atoms: C_4  and  C_29
REMARK    2  A    between atoms: CA_6  and  N_11
REMARK    3  A    between atoms: CA_7  and  C_28
REMARK    4  A    between atoms: C_12  and  C_15
REMARK    5  A    between atoms: N_14  and  O_24
REMARK    6  A    between atoms: C_15  and  C_19
REMARK    7  A    between atoms: C_29  and  N_30
REMARK                            x       y       z     vdW  Elec       q    Type
REMARK                         _______ _______ _______ _____ _____    ______ ____
ROOT
ATOM      1  S   UNL     1     -36.393  26.943   1.618  0.00  0.00    -0.114 S 
ATOM      2  O   UNL     1     -33.269  24.702   4.236  0.00  0.00    -0.273 OA
ATOM      3  N   UNL     1     -35.403  25.443   3.570  0.00  0.00    -0.242 N 
ATOM      4  C   UNL     1     -37.587  24.774   2.975  0.00  0.00    -0.034 C 
ATOM      5  C   UNL     1     -35.584  26.841   3.232  0.00  0.00    +0.155 C 
ATOM      6  CA  UNL     1     -34.042  26.941   3.240  0.00  0.00    +0.179 C 
ATOM      7  CA  UNL     1     -36.399  24.521   3.570  0.00  0.00    +0.126 C 
ATOM      8  C   UNL     1     -37.880  26.046   2.184  0.00  0.00    +0.081 C 
ATOM      9  C   UNL     1     -34.078  25.496   3.817  0.00  0.00    +0.251 C 
ENDROOT
BRANCH   6  11
ATOM     10  O   UNL     1     -31.590  28.505   2.758  0.00  0.00    -0.268 OA
ATOM     11  N   UNL     1     -33.404  27.913   4.126  0.00  0.00    -0.291 N 
ATOM     12  C   UNL     1     -32.245  28.589   3.784  0.00  0.00    +0.269 C 
ATOM     13  H   UNL     1     -33.815  28.095   5.001  0.00  0.00    +0.150 HD
BRANCH  12  15
ATOM     14  N   UNL     1     -32.467  30.600   5.138  0.00  0.00    -0.076 NA
ATOM     15  C   UNL     1     -31.777  29.536   4.860  0.00  0.00    +0.198 C 
BRANCH  15  19
ATOM     16  S   UNL     1     -28.328  29.587   6.812  0.00  0.00    -0.060 S 
ATOM     17  N   UNL     1     -30.216  28.010   6.016  0.00  0.00    -0.383 NA
ATOM     18  N   UNL     1     -28.460  26.959   7.200  0.00  0.00    -0.328 N 
ATOM     19  C   UNL     1     -30.539  29.289   5.607  0.00  0.00    +0.148 C 
ATOM     20  C   UNL     1     -29.638  30.276   5.946  0.00  0.00    +0.127 C 
ATOM     21  C   UNL     1     -29.071  28.047   6.661  0.00  0.00    +0.204 C 
ATOM     22  H   UNL     1     -27.601  27.060   7.670  0.00  0.00    +0.145 HD
ATOM     23  H   UNL     1     -28.877  26.071   7.119  0.00  0.00    +0.145 HD
ENDBRANCH  15  19
BRANCH  14  24
ATOM     24  O   UNL     1     -33.614  30.700   4.338  0.00  0.00    -0.373 OA
ATOM     25  C   UNL     1     -33.349  31.634   3.302  0.00  0.00    +0.288 C 
ENDBRANCH  14  24
ENDBRANCH  12  15
ENDBRANCH   6  11
BRANCH   7  28
ATOM     26  O   UNL     1     -35.799  22.256   3.427  0.00  0.00    -0.239 OA
ATOM     27  OXT UNL     1     -36.288  23.151   5.475  0.00  0.00    -0.239 OA
ATOM     28  C   UNL     1     -36.135  23.169   4.225  0.00  0.00    +0.401 C 
ENDBRANCH   7  28
BRANCH   4  29
ATOM     29  C   UNL     1     -38.758  23.819   2.947  0.00  0.00    -0.048 C 
BRANCH  29  30
ATOM     30  N   UNL     1     -38.981  23.215   1.569  0.00  0.00    +0.391 N 
ATOM     31  C   UNL     1     -39.231  21.696   1.678  0.00  0.00    -0.073 C 
ATOM     32  C   UNL     1     -37.713  23.370   0.703  0.00  0.00    -0.073 C 
ATOM     33  C   UNL     1     -37.946  21.059   1.186  0.00  0.00    -0.024 C 
ATOM     34  C   UNL     1     -37.498  22.000   0.089  0.00  0.00    -0.024 C 
ATOM     35  C   UNL     1     -40.167  23.899   0.908  0.00  0.00    -0.095 C 
ENDBRANCH  29  30
ENDBRANCH   4  29
TORSDOF 7
ENDMDL
MODEL 6
REMARK VINA RESULT:      -5.9      5.134      8.394
REMARK  Name = 5353490
REMARK  7 active torsions:
REMARK  status: ('A' for Active; 'I' for Inactive)
REMARK    1  A    between atoms: C_4  and  C_29
REMARK    2  A    between atoms: CA_6  and  N_11
REMARK    3  A    between atoms: CA_7  and  C_28
REMARK    4  A    between atoms: C_12  and  C_15
REMARK    5  A    between atoms: N_14  and  O_24
REMARK    6  A    between atoms: C_15  and  C_19
REMARK    7  A    between atoms: C_29  and  N_30
REMARK                            x       y       z     vdW  Elec       q    Type
REMARK                         _______ _______ _______ _____ _____    ______ ____
ROOT
ATOM      1  S   UNL     1     -35.018  21.305  -0.267  0.00  0.00    -0.114 S 
ATOM      2  O   UNL     1     -39.620  20.783   0.156  0.00  0.00    -0.273 OA
ATOM      3  N   UNL     1     -37.434  21.347   0.828  0.00  0.00    -0.242 N 
ATOM      4  C   UNL     1     -36.054  23.055   1.690  0.00  0.00    -0.034 C 
ATOM      5  C   UNL     1     -36.357  20.414   0.559  0.00  0.00    +0.155 C 
ATOM      6  CA  UNL     1     -37.359  19.673  -0.355  0.00  0.00    +0.179 C 
ATOM      7  CA  UNL     1     -37.281  22.524   1.485  0.00  0.00    +0.126 C 
ATOM      8  C   UNL     1     -34.768  22.450   1.133  0.00  0.00    +0.081 C 
ATOM      9  C   UNL     1     -38.423  20.642   0.238  0.00  0.00    +0.251 C 
ENDROOT
BRANCH   6  11
ATOM     10  O   UNL     1     -37.651  17.484  -2.308  0.00  0.00    -0.268 OA
ATOM     11  N   UNL     1     -37.639  18.261  -0.092  0.00  0.00    -0.291 N 
ATOM     12  C   UNL     1     -37.754  17.322  -1.103  0.00  0.00    +0.269 C 
ATOM     13  H   UNL     1     -37.749  17.967   0.840  0.00  0.00    +0.150 HD
BRANCH  12  15
ATOM     14  N   UNL     1     -37.086  15.196  -0.122  0.00  0.00    -0.076 NA
ATOM     15  C   UNL     1     -38.046  15.936  -0.587  0.00  0.00    +0.198 C 
BRANCH  15  19
ATOM     16  S   UNL     1     -41.892  15.066  -0.990  0.00  0.00    -0.060 S 
ATOM     17  N   UNL     1     -39.672  14.165  -0.019  0.00  0.00    -0.383 NA
ATOM     18  N   UNL     1     -41.550  12.764   0.297  0.00  0.00    -0.328 N 
ATOM     19  C   UNL     1     -39.407  15.388  -0.603  0.00  0.00    +0.148 C 
ATOM     20  C   UNL     1     -40.484  16.026  -1.180  0.00  0.00    +0.127 C 
ATOM     21  C   UNL     1     -40.950  13.894  -0.162  0.00  0.00    +0.204 C 
ATOM     22  H   UNL     1     -42.514  12.626   0.154  0.00  0.00    +0.145 HD
ATOM     23  H   UNL     1     -41.020  12.084   0.773  0.00  0.00    +0.145 HD
ENDBRANCH  15  19
BRANCH  14  24
ATOM     24  O   UNL     1     -35.849  15.853  -0.179  0.00  0.00    -0.373 OA
ATOM     25  C   UNL     1     -34.930  15.005  -0.851  0.00  0.00    +0.288 C 
ENDBRANCH  14  24
ENDBRANCH  12  15
ENDBRANCH   6  11
BRANCH   7  28
ATOM     26  O   UNL     1     -38.969  22.886   3.075  0.00  0.00    -0.239 OA
ATOM     27  OXT UNL     1     -38.952  24.141   1.162  0.00  0.00    -0.239 OA
ATOM     28  C   UNL     1     -38.531  23.259   1.956  0.00  0.00    +0.401 C 
ENDBRANCH   7  28
BRANCH   4  29
ATOM     29  C   UNL     1     -35.786  24.345   2.431  0.00  0.00    -0.048 C 
BRANCH  29  30
ATOM     30  N   UNL     1     -35.538  24.121   3.915  0.00  0.00    +0.391 N 
ATOM     31  C   UNL     1     -36.574  24.892   4.760  0.00  0.00    -0.073 C 
ATOM     32  C   UNL     1     -34.161  24.688   4.320  0.00  0.00    -0.073 C 
ATOM     33  C   UNL     1     -35.805  26.067   5.332  0.00  0.00    -0.024 C 
ATOM     34  C   UNL     1     -34.430  25.485   5.581  0.00  0.00    -0.024 C 
ATOM     35  C   UNL     1     -35.613  22.633   4.216  0.00  0.00    -0.095 C 
ENDBRANCH  29  30
ENDBRANCH   4  29
TORSDOF 7
ENDMDL
MODEL 7
REMARK VINA RESULT:      -5.9      5.385      6.997
REMARK  Name = 5353490
REMARK  7 active torsions:
REMARK  status: ('A' for Active; 'I' for Inactive)
REMARK    1  A    between atoms: C_4  and  C_29
REMARK    2  A    between atoms: CA_6  and  N_11
REMARK    3  A    between atoms: CA_7  and  C_28
REMARK    4  A    between atoms: C_12  and  C_15
REMARK    5  A    between atoms: N_14  and  O_24
REMARK    6  A    between atoms: C_15  and  C_19
REMARK    7  A    between atoms: C_29  and  N_30
REMARK                            x       y       z     vdW  Elec       q    Type
REMARK                         _______ _______ _______ _____ _____    ______ ____
ROOT
ATOM      1  S   UNL     1     -33.781  32.093   1.756  0.00  0.00    -0.114 S 
ATOM      2  O   UNL     1     -37.121  28.964   0.931  0.00  0.00    -0.273 OA
ATOM      3  N   UNL     1     -36.201  31.012   1.642  0.00  0.00    -0.242 N 
ATOM      4  C   UNL     1     -36.279  33.358   1.399  0.00  0.00    -0.034 C 
ATOM      5  C   UNL     1     -35.019  30.994   2.482  0.00  0.00    +0.155 C 
ATOM      6  CA  UNL     1     -34.907  29.495   2.123  0.00  0.00    +0.179 C 
ATOM      7  CA  UNL     1     -36.851  32.140   1.261  0.00  0.00    +0.126 C 
ATOM      8  C   UNL     1     -34.850  33.568   1.892  0.00  0.00    +0.081 C 
ATOM      9  C   UNL     1     -36.304  29.679   1.463  0.00  0.00    +0.251 C 
ENDROOT
BRANCH   6  11
ATOM     10  O   UNL     1     -33.246  27.070   2.352  0.00  0.00    -0.268 OA
ATOM     11  N   UNL     1     -34.892  28.512   3.205  0.00  0.00    -0.291 N 
ATOM     12  C   UNL     1     -34.060  27.405   3.198  0.00  0.00    +0.269 C 
ATOM     13  H   UNL     1     -35.497  28.642   3.969  0.00  0.00    +0.150 HD
BRANCH  12  15
ATOM     14  N   UNL     1     -33.654  26.865   5.537  0.00  0.00    -0.076 NA
ATOM     15  C   UNL     1     -34.226  26.536   4.418  0.00  0.00    +0.198 C 
BRANCH  15  19
ATOM     16  S   UNL     1     -36.595  23.453   3.650  0.00  0.00    -0.060 S 
ATOM     17  N   UNL     1     -34.985  24.414   5.429  0.00  0.00    -0.383 NA
ATOM     18  N   UNL     1     -35.972  22.338   5.983  0.00  0.00    -0.328 N 
ATOM     19  C   UNL     1     -35.022  25.305   4.375  0.00  0.00    +0.148 C 
ATOM     20  C   UNL     1     -35.839  24.956   3.320  0.00  0.00    +0.127 C 
ATOM     21  C   UNL     1     -35.775  23.399   5.157  0.00  0.00    +0.204 C 
ATOM     22  H   UNL     1     -36.580  21.612   5.714  0.00  0.00    +0.145 HD
ATOM     23  H   UNL     1     -35.507  22.296   6.849  0.00  0.00    +0.145 HD
ENDBRANCH  15  19
BRANCH  14  24
ATOM     24  O   UNL     1     -32.926  28.057   5.417  0.00  0.00    -0.373 OA
ATOM     25  C   UNL     1     -32.042  28.147   6.524  0.00  0.00    +0.288 C 
ENDBRANCH  14  24
ENDBRANCH  12  15
ENDBRANCH   6  11
BRANCH   7  28
ATOM     26  O   UNL     1     -38.231  31.864  -0.618  0.00  0.00    -0.239 OA
ATOM     27  OXT UNL     1     -39.190  32.044   1.451  0.00  0.00    -0.239 OA
ATOM     28  C   UNL     1     -38.234  32.003   0.633  0.00  0.00    +0.401 C 
ENDBRANCH   7  28
BRANCH   4  29
ATOM     29  C   UNL     1     -36.937  34.667   1.026  0.00  0.00    -0.048 C 
BRANCH  29  30
ATOM     30  N   UNL     1     -36.284  35.320  -0.182  0.00  0.00    +0.391 N 
ATOM     31  C   UNL     1     -35.212  36.336   0.265  0.00  0.00    -0.073 C 
ATOM     32  C   UNL     1     -37.325  36.133  -0.981  0.00  0.00    -0.073 C 
ATOM     33  C   UNL     1     -35.841  37.693   0.016  0.00  0.00    -0.024 C 
ATOM     34  C   UNL     1     -36.652  37.467  -1.242  0.00  0.00    -0.024 C 
ATOM     35  C   UNL     1     -35.660  34.245  -1.057  0.00  0.00    -0.095 C 
ENDBRANCH  29  30
ENDBRANCH   4  29
TORSDOF 7
ENDMDL
MODEL 8
REMARK VINA RESULT:      -5.9      5.824      7.929
REMARK  Name = 5353490
REMARK  7 active torsions:
REMARK  status: ('A' for Active; 'I' for Inactive)
REMARK    1  A    between atoms: C_4  and  C_29
REMARK    2  A    between atoms: CA_6  and  N_11
REMARK    3  A    between atoms: CA_7  and  C_28
REMARK    4  A    between atoms: C_12  and  C_15
REMARK    5  A    between atoms: N_14  and  O_24
REMARK    6  A    between atoms: C_15  and  C_19
REMARK    7  A    between atoms: C_29  and  N_30
REMARK                            x       y       z     vdW  Elec       q    Type
REMARK                         _______ _______ _______ _____ _____    ______ ____
ROOT
ATOM      1  S   UNL     1     -35.132  31.849   0.139  0.00  0.00    -0.114 S 
ATOM      2  O   UNL     1     -37.928  28.148   0.473  0.00  0.00    -0.273 OA
ATOM      3  N   UNL     1     -37.317  30.420   0.603  0.00  0.00    -0.242 N 
ATOM      4  C   UNL     1     -37.839  32.609  -0.107  0.00  0.00    -0.034 C 
ATOM      5  C   UNL     1     -36.068  30.772   1.248  0.00  0.00    +0.155 C 
ATOM      6  CA  UNL     1     -35.729  29.265   1.195  0.00  0.00    +0.179 C 
ATOM      7  CA  UNL     1     -38.196  31.319   0.094  0.00  0.00    +0.126 C 
ATOM      8  C   UNL     1     -36.426  33.138   0.119  0.00  0.00    +0.081 C 
ATOM      9  C   UNL     1     -37.200  29.080   0.722  0.00  0.00    +0.251 C 
ENDROOT
BRANCH   6  11
ATOM     10  O   UNL     1     -33.560  27.337   1.715  0.00  0.00    -0.268 OA
ATOM     11  N   UNL     1     -35.422  28.569   2.444  0.00  0.00    -0.291 N 
ATOM     12  C   UNL     1     -34.368  27.680   2.564  0.00  0.00    +0.269 C 
ATOM     13  H   UNL     1     -35.987  28.740   3.231  0.00  0.00    +0.150 HD
BRANCH  12  15
ATOM     14  N   UNL     1     -33.561  27.695   4.862  0.00  0.00    -0.076 NA
ATOM     15  C   UNL     1     -34.252  27.086   3.946  0.00  0.00    +0.198 C 
BRANCH  15  19
ATOM     16  S   UNL     1     -35.469  23.585   5.348  0.00  0.00    -0.060 S 
ATOM     17  N   UNL     1     -36.057  25.429   3.635  0.00  0.00    -0.383 NA
ATOM     18  N   UNL     1     -37.549  23.595   3.692  0.00  0.00    -0.328 N 
ATOM     19  C   UNL     1     -34.904  25.817   4.287  0.00  0.00    +0.148 C 
ATOM     20  C   UNL     1     -34.433  24.948   5.248  0.00  0.00    +0.127 C 
ATOM     21  C   UNL     1     -36.445  24.267   4.112  0.00  0.00    +0.204 C 
ATOM     22  H   UNL     1     -37.780  22.727   4.095  0.00  0.00    +0.145 HD
ATOM     23  H   UNL     1     -38.117  23.977   2.984  0.00  0.00    +0.145 HD
ENDBRANCH  15  19
BRANCH  14  24
ATOM     24  O   UNL     1     -32.997  28.885   4.382  0.00  0.00    -0.373 OA
ATOM     25  C   UNL     1     -31.713  29.032   4.970  0.00  0.00    +0.288 C 
ENDBRANCH  14  24
ENDBRANCH  12  15
ENDBRANCH   6  11
BRANCH   7  28
ATOM     26  O   UNL     1     -40.420  30.826   0.664  0.00  0.00    -0.239 OA
ATOM     27  OXT UNL     1     -39.726  30.513  -1.494  0.00  0.00    -0.239 OA
ATOM     28  C   UNL     1     -39.592  30.835  -0.285  0.00  0.00    +0.401 C 
ENDBRANCH   7  28
BRANCH   4  29
ATOM     29  C   UNL     1     -38.757  33.683  -0.645  0.00  0.00    -0.048 C 
BRANCH  29  30
ATOM     30  N   UNL     1     -39.488  34.428   0.461  0.00  0.00    +0.391 N 
ATOM     31  C   UNL     1     -39.143  35.931   0.421  0.00  0.00    -0.073 C 
ATOM     32  C   UNL     1     -39.023  33.927   1.845  0.00  0.00    -0.073 C 
ATOM     33  C   UNL     1     -38.210  36.143   1.598  0.00  0.00    -0.024 C 
ATOM     34  C   UNL     1     -38.756  35.191   2.640  0.00  0.00    -0.024 C 
ATOM     35  C   UNL     1     -40.986  34.226   0.296  0.00  0.00    -0.095 C 
ENDBRANCH  29  30
ENDBRANCH   4  29
TORSDOF 7
ENDMDL
MODEL 9
REMARK VINA RESULT:      -5.7      2.553      8.801
REMARK  Name = 5353490
REMARK  7 active torsions:
REMARK  status: ('A' for Active; 'I' for Inactive)
REMARK    1  A    between atoms: C_4  and  C_29
REMARK    2  A    between atoms: CA_6  and  N_11
REMARK    3  A    between atoms: CA_7  and  C_28
REMARK    4  A    between atoms: C_12  and  C_15
REMARK    5  A    between atoms: N_14  and  O_24
REMARK    6  A    between atoms: C_15  and  C_19
REMARK    7  A    between atoms: C_29  and  N_30
REMARK                            x       y       z     vdW  Elec       q    Type
REMARK                         _______ _______ _______ _____ _____    ______ ____
ROOT
ATOM      1  S   UNL     1     -33.427  25.310   1.084  0.00  0.00    -0.114 S 
ATOM      2  O   UNL     1     -34.873  25.587   5.496  0.00  0.00    -0.273 OA
ATOM      3  N   UNL     1     -35.081  25.409   3.156  0.00  0.00    -0.242 N 
ATOM      4  C   UNL     1     -35.976  24.136   1.383  0.00  0.00    -0.034 C 
ATOM      5  C   UNL     1     -34.305  26.301   2.315  0.00  0.00    +0.155 C 
ATOM      6  CA  UNL     1     -33.520  26.666   3.596  0.00  0.00    +0.179 C 
ATOM      7  CA  UNL     1     -35.963  24.491   2.689  0.00  0.00    +0.126 C 
ATOM      8  C   UNL     1     -34.966  24.646   0.359  0.00  0.00    +0.081 C 
ATOM      9  C   UNL     1     -34.602  25.835   4.344  0.00  0.00    +0.251 C 
ENDROOT
BRANCH   6  11
ATOM     10  O   UNL     1     -31.403  28.641   3.039  0.00  0.00    -0.268 OA
ATOM     11  N   UNL     1     -33.463  28.067   4.010  0.00  0.00    -0.291 N 
ATOM     12  C   UNL     1     -32.407  28.900   3.684  0.00  0.00    +0.269 C 
ATOM     13  H   UNL     1     -34.205  28.433   4.542  0.00  0.00    +0.150 HD
BRANCH  12  15
ATOM     14  N   UNL     1     -32.499  30.516   5.503  0.00  0.00    -0.076 NA
ATOM     15  C   UNL     1     -32.571  30.298   4.225  0.00  0.00    +0.198 C 
BRANCH  15  19
ATOM     16  S   UNL     1     -32.559  33.558   1.970  0.00  0.00    -0.060 S 
ATOM     17  N   UNL     1     -34.051  31.587   2.726  0.00  0.00    -0.383 NA
ATOM     18  N   UNL     1     -35.079  33.117   1.245  0.00  0.00    -0.328 N 
ATOM     19  C   UNL     1     -32.821  31.436   3.334  0.00  0.00    +0.148 C 
ATOM     20  C   UNL     1     -31.883  32.405   3.045  0.00  0.00    +0.127 C 
ATOM     21  C   UNL     1     -34.029  32.672   1.984  0.00  0.00    +0.204 C 
ATOM     22  H   UNL     1     -34.992  33.940   0.712  0.00  0.00    +0.145 HD
ATOM     23  H   UNL     1     -35.927  32.617   1.245  0.00  0.00    +0.145 HD
ENDBRANCH  15  19
BRANCH  14  24
ATOM     24  O   UNL     1     -32.264  29.334   6.220  0.00  0.00    -0.373 OA
ATOM     25  C   UNL     1     -31.186  29.566   7.113  0.00  0.00    +0.288 C 
ENDBRANCH  14  24
ENDBRANCH  12  15
ENDBRANCH   6  11
BRANCH   7  28
ATOM     26  O   UNL     1     -38.044  24.389   3.770  0.00  0.00    -0.239 OA
ATOM     27  OXT UNL     1     -36.452  22.824   4.269  0.00  0.00    -0.239 OA
ATOM     28  C   UNL     1     -36.918  23.834   3.678  0.00  0.00    +0.401 C 
ENDBRANCH   7  28
BRANCH   4  29
ATOM     29  C   UNL     1     -36.937  23.142   0.770  0.00  0.00    -0.048 C 
BRANCH  29  30
ATOM     30  N   UNL     1     -36.273  21.810   0.458  0.00  0.00    +0.391 N 
ATOM     31  C   UNL     1     -37.124  20.642   0.999  0.00  0.00    -0.073 C 
ATOM     32  C   UNL     1     -34.912  21.707   1.178  0.00  0.00    -0.073 C 
ATOM     33  C   UNL     1     -36.369  20.150   2.218  0.00  0.00    -0.024 C 
ATOM     34  C   UNL     1     -34.921  20.332   1.818  0.00  0.00    -0.024 C 
ATOM     35  C   UNL     1     -36.094  21.680  -1.046  0.00  0.00    -0.095 C 
ENDBRANCH  29  30
ENDBRANCH   4  29
TORSDOF 7
ENDMDL
