MODEL 1
REMARK VINA RESULT:      -7.3      0.000      0.000
REMARK  Name = 21121742
REMARK  8 active torsions:
REMARK  status: ('A' for Active; 'I' for Inactive)
REMARK    1  A    between atoms: C_3  and  C_10
REMARK    2  A    between atoms: C_7  and  C_24
REMARK    3  A    between atoms: N_9  and  C_14
REMARK    4  A    between atoms: C_24  and  N_26
REMARK    5  A    between atoms: C_27  and  C_29
REMARK    6  A    between atoms: C_29  and  C_30
REMARK    7  A    between atoms: C_30  and  C_32
REMARK    8  A    between atoms: C_32  and  O_33
REMARK                            x       y       z     vdW  Elec       q    Type
REMARK                         _______ _______ _______ _____ _____    ______ ____
ROOT
ATOM      1  O   UNL     1     -36.024  20.201   2.590  0.00  0.00    -0.273 OA
ATOM      2  N   UNL     1     -37.337  20.177   0.684  0.00  0.00    -0.272 N 
ATOM      3  C   UNL     1     -37.048  18.801   0.299  0.00  0.00    +0.152 C 
ATOM      4  C   UNL     1     -38.109  18.459  -0.740  0.00  0.00    +0.031 C 
ATOM      5  C   UNL     1     -38.427  19.808  -1.381  0.00  0.00    +0.024 C 
ATOM      6  C   UNL     1     -38.311  20.783  -0.220  0.00  0.00    +0.094 C 
ATOM      7  C   UNL     1     -36.848  20.742   1.851  0.00  0.00    +0.246 C 
ENDROOT
BRANCH   3  10
ATOM      8  O   UNL     1     -35.497  18.928  -1.494  0.00  0.00    -0.273 OA
ATOM      9  N   UNL     1     -34.708  18.597   0.698  0.00  0.00    -0.282 N 
ATOM     10  C   UNL     1     -35.669  18.788  -0.288  0.00  0.00    +0.244 C 
ATOM     11  H   UNL     1     -35.042  18.501   1.619  0.00  0.00    +0.155 HD
BRANCH   9  14
ATOM     12  O   UNL     1     -30.697  15.975   0.413  0.00  0.00    -0.421 OA
ATOM     13  O   UNL     1     -28.800  14.705   0.281  0.00  0.00    -0.244 OA
ATOM     14  C   UNL     1     -33.304  18.527   0.529  0.00  0.00    +0.053 C 
ATOM     15  C   UNL     1     -32.679  17.297   0.552  0.00  0.00    +0.052 C 
ATOM     16  C   UNL     1     -32.586  19.694   0.341  0.00  0.00    +0.015 C 
ATOM     17  C   UNL     1     -31.294  17.251   0.383  0.00  0.00    +0.150 C 
ATOM     18  C   UNL     1     -30.528  18.401   0.191  0.00  0.00    +0.031 C 
ATOM     19  C   UNL     1     -31.197  19.632   0.172  0.00  0.00    +0.004 C 
ATOM     20  C   UNL     1     -29.075  18.259   0.020  0.00  0.00    -0.012 C 
ATOM     21  C   UNL     1     -28.534  17.034   0.054  0.00  0.00    +0.078 C 
ATOM     22  C   UNL     1     -28.224  19.478  -0.187  0.00  0.00    +0.031 C 
ATOM     23  C   UNL     1     -29.329  15.810   0.255  0.00  0.00    +0.346 C 
ENDBRANCH   9  14
ENDBRANCH   3  10
BRANCH   7  24
ATOM     24  C   UNL     1     -37.385  22.111   2.184  0.00  0.00    +0.176 C 
BRANCH  24  26
ATOM     25  O   UNL     1     -37.970  24.271   4.019  0.00  0.00    -0.275 OA
ATOM     26  N   UNL     1     -36.457  22.756   3.123  0.00  0.00    -0.297 N 
ATOM     27  C   UNL     1     -36.847  23.779   3.954  0.00  0.00    +0.223 C 
ATOM     28  H   UNL     1     -35.524  22.443   3.159  0.00  0.00    +0.150 HD
BRANCH  27  29
ATOM     29  C   UNL     1     -35.683  24.249   4.808  0.00  0.00    +0.097 C 
BRANCH  29  30
ATOM     30  C   UNL     1     -34.713  23.121   5.143  0.00  0.00    +0.119 C 
BRANCH  30  32
ATOM     31  O   UNL     1     -36.138  22.091   6.826  0.00  0.00    -0.250 OA
ATOM     32  C   UNL     1     -35.399  21.980   5.858  0.00  0.00    +0.314 C 
BRANCH  32  33
ATOM     33  O   UNL     1     -35.094  20.783   5.290  0.00  0.00    -0.480 OA
ATOM     34  H   UNL     1     -35.135  20.684   4.359  0.00  0.00    +0.295 HD
ENDBRANCH  32  33
ENDBRANCH  30  32
ENDBRANCH  29  30
ENDBRANCH  27  29
ENDBRANCH  24  26
ENDBRANCH   7  24
TORSDOF 8
ENDMDL
MODEL 2
REMARK VINA RESULT:      -7.1      1.335      1.716
REMARK  Name = 21121742
REMARK  8 active torsions:
REMARK  status: ('A' for Active; 'I' for Inactive)
REMARK    1  A    between atoms: C_3  and  C_10
REMARK    2  A    between atoms: C_7  and  C_24
REMARK    3  A    between atoms: N_9  and  C_14
REMARK    4  A    between atoms: C_24  and  N_26
REMARK    5  A    between atoms: C_27  and  C_29
REMARK    6  A    between atoms: C_29  and  C_30
REMARK    7  A    between atoms: C_30  and  C_32
REMARK    8  A    between atoms: C_32  and  O_33
REMARK                            x       y       z     vdW  Elec       q    Type
REMARK                         _______ _______ _______ _____ _____    ______ ____
ROOT
ATOM      1  O   UNL     1     -36.037  20.269   2.692  0.00  0.00    -0.273 OA
ATOM      2  N   UNL     1     -37.368  20.179   0.801  0.00  0.00    -0.272 N 
ATOM      3  C   UNL     1     -36.977  18.838   0.385  0.00  0.00    +0.152 C 
ATOM      4  C   UNL     1     -38.022  18.433  -0.648  0.00  0.00    +0.031 C 
ATOM      5  C   UNL     1     -38.453  19.765  -1.258  0.00  0.00    +0.024 C 
ATOM      6  C   UNL     1     -38.400  20.723  -0.078  0.00  0.00    +0.094 C 
ATOM      7  C   UNL     1     -36.911  20.758   1.975  0.00  0.00    +0.246 C 
ENDROOT
BRANCH   3  10
ATOM      8  O   UNL     1     -35.465  19.188  -1.411  0.00  0.00    -0.273 OA
ATOM      9  N   UNL     1     -34.624  18.730   0.738  0.00  0.00    -0.282 N 
ATOM     10  C   UNL     1     -35.609  18.944  -0.218  0.00  0.00    +0.244 C 
ATOM     11  H   UNL     1     -34.936  18.544   1.652  0.00  0.00    +0.155 HD
BRANCH   9  14
ATOM     12  O   UNL     1     -30.423  16.407   0.650  0.00  0.00    -0.421 OA
ATOM     13  O   UNL     1     -28.434  15.279   0.614  0.00  0.00    -0.244 OA
ATOM     14  C   UNL     1     -33.221  18.749   0.547  0.00  0.00    +0.053 C 
ATOM     15  C   UNL     1     -32.500  17.580   0.689  0.00  0.00    +0.052 C 
ATOM     16  C   UNL     1     -32.599  19.940   0.219  0.00  0.00    +0.015 C 
ATOM     17  C   UNL     1     -31.119  17.622   0.495  0.00  0.00    +0.150 C 
ATOM     18  C   UNL     1     -30.448  18.800   0.164  0.00  0.00    +0.031 C 
ATOM     19  C   UNL     1     -31.211  19.967   0.027  0.00  0.00    +0.004 C 
ATOM     20  C   UNL     1     -28.991  18.752  -0.022  0.00  0.00    -0.012 C 
ATOM     21  C   UNL     1     -28.355  17.582   0.132  0.00  0.00    +0.078 C 
ATOM     22  C   UNL     1     -28.240  20.002  -0.379  0.00  0.00    +0.031 C 
ATOM     23  C   UNL     1     -29.049  16.331   0.481  0.00  0.00    +0.346 C 
ENDBRANCH   9  14
ENDBRANCH   3  10
BRANCH   7  24
ATOM     24  C   UNL     1     -37.550  22.073   2.342  0.00  0.00    +0.176 C 
BRANCH  24  26
ATOM     25  O   UNL     1     -36.272  24.620   2.845  0.00  0.00    -0.275 OA
ATOM     26  N   UNL     1     -36.959  22.537   3.604  0.00  0.00    -0.297 N 
ATOM     27  C   UNL     1     -36.375  23.775   3.730  0.00  0.00    +0.223 C 
ATOM     28  H   UNL     1     -36.982  21.941   4.387  0.00  0.00    +0.150 HD
BRANCH  27  29
ATOM     29  C   UNL     1     -35.850  23.981   5.140  0.00  0.00    +0.097 C 
BRANCH  29  30
ATOM     30  C   UNL     1     -34.481  24.652   5.160  0.00  0.00    +0.119 C 
BRANCH  30  32
ATOM     31  O   UNL     1     -33.717  26.691   6.249  0.00  0.00    -0.250 OA
ATOM     32  C   UNL     1     -34.566  26.096   5.599  0.00  0.00    +0.314 C 
BRANCH  32  33
ATOM     33  O   UNL     1     -35.722  26.676   5.182  0.00  0.00    -0.480 OA
ATOM     34  H   UNL     1     -36.181  26.325   4.444  0.00  0.00    +0.295 HD
ENDBRANCH  32  33
ENDBRANCH  30  32
ENDBRANCH  29  30
ENDBRANCH  27  29
ENDBRANCH  24  26
ENDBRANCH   7  24
TORSDOF 8
ENDMDL
MODEL 3
REMARK VINA RESULT:      -7.0      6.682     10.149
REMARK  Name = 21121742
REMARK  8 active torsions:
REMARK  status: ('A' for Active; 'I' for Inactive)
REMARK    1  A    between atoms: C_3  and  C_10
REMARK    2  A    between atoms: C_7  and  C_24
REMARK    3  A    between atoms: N_9  and  C_14
REMARK    4  A    between atoms: C_24  and  N_26
REMARK    5  A    between atoms: C_27  and  C_29
REMARK    6  A    between atoms: C_29  and  C_30
REMARK    7  A    between atoms: C_30  and  C_32
REMARK    8  A    between atoms: C_32  and  O_33
REMARK                            x       y       z     vdW  Elec       q    Type
REMARK                         _______ _______ _______ _____ _____    ______ ____
ROOT
ATOM      1  O   UNL     1     -32.406  29.708   5.577  0.00  0.00    -0.273 OA
ATOM      2  N   UNL     1     -32.092  30.245   3.347  0.00  0.00    -0.272 N 
ATOM      3  C   UNL     1     -33.426  29.872   2.896  0.00  0.00    +0.152 C 
ATOM      4  C   UNL     1     -33.555  30.496   1.511  0.00  0.00    +0.031 C 
ATOM      5  C   UNL     1     -32.116  30.526   1.001  0.00  0.00    +0.024 C 
ATOM      6  C   UNL     1     -31.306  30.813   2.255  0.00  0.00    +0.094 C 
ATOM      7  C   UNL     1     -31.716  30.196   4.681  0.00  0.00    +0.246 C 
ENDROOT
BRANCH   3  10
ATOM      8  O   UNL     1     -32.875  27.761   1.960  0.00  0.00    -0.273 OA
ATOM      9  N   UNL     1     -34.246  27.859   3.869  0.00  0.00    -0.282 N 
ATOM     10  C   UNL     1     -33.471  28.375   2.839  0.00  0.00    +0.244 C 
ATOM     11  H   UNL     1     -34.651  28.514   4.482  0.00  0.00    +0.155 HD
BRANCH   9  14
ATOM     12  O   UNL     1     -35.113  23.412   2.279  0.00  0.00    -0.421 OA
ATOM     13  O   UNL     1     -35.524  21.302   1.498  0.00  0.00    -0.244 OA
ATOM     14  C   UNL     1     -34.521  26.496   4.140  0.00  0.00    +0.053 C 
ATOM     15  C   UNL     1     -34.684  25.615   3.090  0.00  0.00    +0.052 C 
ATOM     16  C   UNL     1     -34.619  26.073   5.454  0.00  0.00    +0.015 C 
ATOM     17  C   UNL     1     -34.954  24.276   3.381  0.00  0.00    +0.150 C 
ATOM     18  C   UNL     1     -35.061  23.804   4.689  0.00  0.00    +0.031 C 
ATOM     19  C   UNL     1     -34.889  24.727   5.730  0.00  0.00    +0.004 C 
ATOM     20  C   UNL     1     -35.347  22.378   4.902  0.00  0.00    -0.012 C 
ATOM     21  C   UNL     1     -35.494  21.580   3.836  0.00  0.00    +0.078 C 
ATOM     22  C   UNL     1     -35.469  21.840   6.298  0.00  0.00    +0.031 C 
ATOM     23  C   UNL     1     -35.383  22.063   2.449  0.00  0.00    +0.346 C 
ENDBRANCH   9  14
ENDBRANCH   3  10
BRANCH   7  24
ATOM     24  C   UNL     1     -30.363  30.782   4.996  0.00  0.00    +0.176 C 
BRANCH  24  26
ATOM     25  O   UNL     1     -27.751  31.151   6.185  0.00  0.00    -0.275 OA
ATOM     26  N   UNL     1     -29.771  30.012   6.098  0.00  0.00    -0.297 N 
ATOM     27  C   UNL     1     -28.514  30.277   6.586  0.00  0.00    +0.223 C 
ATOM     28  H   UNL     1     -30.294  29.281   6.501  0.00  0.00    +0.150 HD
BRANCH  27  29
ATOM     29  C   UNL     1     -28.166  29.325   7.716  0.00  0.00    +0.097 C 
BRANCH  29  30
ATOM     30  C   UNL     1     -27.223  28.212   7.272  0.00  0.00    +0.119 C 
BRANCH  30  32
ATOM     31  O   UNL     1     -27.397  25.786   7.158  0.00  0.00    -0.250 OA
ATOM     32  C   UNL     1     -27.935  26.885   7.143  0.00  0.00    +0.314 C 
BRANCH  32  33
ATOM     33  O   UNL     1     -29.277  27.052   7.007  0.00  0.00    -0.480 OA
ATOM     34  H   UNL     1     -29.809  26.339   6.715  0.00  0.00    +0.295 HD
ENDBRANCH  32  33
ENDBRANCH  30  32
ENDBRANCH  29  30
ENDBRANCH  27  29
ENDBRANCH  24  26
ENDBRANCH   7  24
TORSDOF 8
ENDMDL
MODEL 4
REMARK VINA RESULT:      -7.0      1.592      2.207
REMARK  Name = 21121742
REMARK  8 active torsions:
REMARK  status: ('A' for Active; 'I' for Inactive)
REMARK    1  A    between atoms: C_3  and  C_10
REMARK    2  A    between atoms: C_7  and  C_24
REMARK    3  A    between atoms: N_9  and  C_14
REMARK    4  A    between atoms: C_24  and  N_26
REMARK    5  A    between atoms: C_27  and  C_29
REMARK    6  A    between atoms: C_29  and  C_30
REMARK    7  A    between atoms: C_30  and  C_32
REMARK    8  A    between atoms: C_32  and  O_33
REMARK                            x       y       z     vdW  Elec       q    Type
REMARK                         _______ _______ _______ _____ _____    ______ ____
ROOT
ATOM      1  O   UNL     1     -35.930  20.221   2.618  0.00  0.00    -0.273 OA
ATOM      2  N   UNL     1     -37.273  20.104   0.737  0.00  0.00    -0.272 N 
ATOM      3  C   UNL     1     -36.917  18.741   0.362  0.00  0.00    +0.152 C 
ATOM      4  C   UNL     1     -37.976  18.330  -0.654  0.00  0.00    +0.031 C 
ATOM      5  C   UNL     1     -38.379  19.652  -1.303  0.00  0.00    +0.024 C 
ATOM      6  C   UNL     1     -38.296  20.645  -0.154  0.00  0.00    +0.094 C 
ATOM      7  C   UNL     1     -36.796  20.708   1.890  0.00  0.00    +0.246 C 
ENDROOT
BRANCH   3  10
ATOM      8  O   UNL     1     -35.408  18.910  -1.464  0.00  0.00    -0.273 OA
ATOM      9  N   UNL     1     -34.563  18.697   0.722  0.00  0.00    -0.282 N 
ATOM     10  C   UNL     1     -35.550  18.796  -0.251  0.00  0.00    +0.244 C 
ATOM     11  H   UNL     1     -34.873  18.609   1.651  0.00  0.00    +0.155 HD
BRANCH   9  14
ATOM     12  O   UNL     1     -30.581  21.047  -0.572  0.00  0.00    -0.421 OA
ATOM     13  O   UNL     1     -28.698  22.186  -1.194  0.00  0.00    -0.244 OA
ATOM     14  C   UNL     1     -33.160  18.710   0.528  0.00  0.00    +0.053 C 
ATOM     15  C   UNL     1     -32.548  19.861   0.074  0.00  0.00    +0.052 C 
ATOM     16  C   UNL     1     -32.429  17.568   0.801  0.00  0.00    +0.015 C 
ATOM     17  C   UNL     1     -31.164  19.851  -0.108  0.00  0.00    +0.150 C 
ATOM     18  C   UNL     1     -30.386  18.723   0.153  0.00  0.00    +0.031 C 
ATOM     19  C   UNL     1     -31.041  17.573   0.613  0.00  0.00    +0.004 C 
ATOM     20  C   UNL     1     -28.934  18.802  -0.066  0.00  0.00    -0.012 C 
ATOM     21  C   UNL     1     -28.407  19.952  -0.509  0.00  0.00    +0.078 C 
ATOM     22  C   UNL     1     -28.070  17.606   0.205  0.00  0.00    +0.031 C 
ATOM     23  C   UNL     1     -29.215  21.151  -0.789  0.00  0.00    +0.346 C 
ENDBRANCH   9  14
ENDBRANCH   3  10
BRANCH   7  24
ATOM     24  C   UNL     1     -37.401  22.049   2.218  0.00  0.00    +0.176 C 
BRANCH  24  26
ATOM     25  O   UNL     1     -38.071  24.366   3.817  0.00  0.00    -0.275 OA
ATOM     26  N   UNL     1     -36.568  22.693   3.244  0.00  0.00    -0.297 N 
ATOM     27  C   UNL     1     -36.991  23.796   3.946  0.00  0.00    +0.223 C 
ATOM     28  H   UNL     1     -35.677  22.320   3.434  0.00  0.00    +0.150 HD
BRANCH  27  29
ATOM     29  C   UNL     1     -35.928  24.244   4.933  0.00  0.00    +0.097 C 
BRANCH  29  30
ATOM     30  C   UNL     1     -34.870  23.172   5.176  0.00  0.00    +0.119 C 
BRANCH  30  32
ATOM     31  O   UNL     1     -36.129  22.028   6.917  0.00  0.00    -0.250 OA
ATOM     32  C   UNL     1     -35.433  21.979   5.911  0.00  0.00    +0.314 C 
BRANCH  32  33
ATOM     33  O   UNL     1     -35.072  20.812   5.316  0.00  0.00    -0.480 OA
ATOM     34  H   UNL     1     -34.705  20.821   4.454  0.00  0.00    +0.295 HD
ENDBRANCH  32  33
ENDBRANCH  30  32
ENDBRANCH  29  30
ENDBRANCH  27  29
ENDBRANCH  24  26
ENDBRANCH   7  24
TORSDOF 8
ENDMDL
MODEL 5
REMARK VINA RESULT:      -6.8      3.029      3.965
REMARK  Name = 21121742
REMARK  8 active torsions:
REMARK  status: ('A' for Active; 'I' for Inactive)
REMARK    1  A    between atoms: C_3  and  C_10
REMARK    2  A    between atoms: C_7  and  C_24
REMARK    3  A    between atoms: N_9  and  C_14
REMARK    4  A    between atoms: C_24  and  N_26
REMARK    5  A    between atoms: C_27  and  C_29
REMARK    6  A    between atoms: C_29  and  C_30
REMARK    7  A    between atoms: C_30  and  C_32
REMARK    8  A    between atoms: C_32  and  O_33
REMARK                            x       y       z     vdW  Elec       q    Type
REMARK                         _______ _______ _______ _____ _____    ______ ____
ROOT
ATOM      1  O   UNL     1     -36.635  22.892   4.556  0.00  0.00    -0.273 OA
ATOM      2  N   UNL     1     -36.891  22.773   2.259  0.00  0.00    -0.272 N 
ATOM      3  C   UNL     1     -37.067  21.328   2.185  0.00  0.00    +0.152 C 
ATOM      4  C   UNL     1     -37.622  21.076   0.788  0.00  0.00    +0.031 C 
ATOM      5  C   UNL     1     -37.044  22.225  -0.035  0.00  0.00    +0.024 C 
ATOM      6  C   UNL     1     -37.039  23.389   0.943  0.00  0.00    +0.094 C 
ATOM      7  C   UNL     1     -36.759  23.447   3.463  0.00  0.00    +0.246 C 
ENDROOT
BRANCH   3  10
ATOM      8  O   UNL     1     -35.307  20.406   3.484  0.00  0.00    -0.273 OA
ATOM      9  N   UNL     1     -35.066  20.558   1.148  0.00  0.00    -0.282 N 
ATOM     10  C   UNL     1     -35.715  20.708   2.367  0.00  0.00    +0.244 C 
ATOM     11  H   UNL     1     -35.556  20.864   0.352  0.00  0.00    +0.155 HD
BRANCH   9  14
ATOM     12  O   UNL     1     -30.654  20.990  -0.697  0.00  0.00    -0.421 OA
ATOM     13  O   UNL     1     -28.559  21.218  -1.584  0.00  0.00    -0.244 OA
ATOM     14  C   UNL     1     -33.778  20.015   0.920  0.00  0.00    +0.053 C 
ATOM     15  C   UNL     1     -32.842  20.755   0.227  0.00  0.00    +0.052 C 
ATOM     16  C   UNL     1     -33.482  18.751   1.399  0.00  0.00    +0.015 C 
ATOM     17  C   UNL     1     -31.579  20.200   0.015  0.00  0.00    +0.150 C 
ATOM     18  C   UNL     1     -31.235  18.930   0.478  0.00  0.00    +0.031 C 
ATOM     19  C   UNL     1     -32.211  18.207   1.178  0.00  0.00    +0.004 C 
ATOM     20  C   UNL     1     -29.882  18.424   0.210  0.00  0.00    -0.012 C 
ATOM     21  C   UNL     1     -29.023  19.197  -0.470  0.00  0.00    +0.078 C 
ATOM     22  C   UNL     1     -29.482  17.061   0.695  0.00  0.00    +0.031 C 
ATOM     23  C   UNL     1     -29.371  20.539  -0.965  0.00  0.00    +0.346 C 
ENDBRANCH   9  14
ENDBRANCH   3  10
BRANCH   7  24
ATOM     24  C   UNL     1     -36.764  24.952   3.369  0.00  0.00    +0.176 C 
BRANCH  24  26
ATOM     25  O   UNL     1     -35.853  25.903   5.945  0.00  0.00    -0.275 OA
ATOM     26  N   UNL     1     -35.421  25.440   3.712  0.00  0.00    -0.297 N 
ATOM     27  C   UNL     1     -35.098  25.870   4.977  0.00  0.00    +0.223 C 
ATOM     28  H   UNL     1     -34.729  25.459   3.012  0.00  0.00    +0.150 HD
BRANCH  27  29
ATOM     29  C   UNL     1     -33.649  26.317   5.038  0.00  0.00    +0.097 C 
BRANCH  29  30
ATOM     30  C   UNL     1     -33.243  26.790   6.430  0.00  0.00    +0.119 C 
BRANCH  30  32
ATOM     31  O   UNL     1     -32.379  29.037   6.074  0.00  0.00    -0.250 OA
ATOM     32  C   UNL     1     -32.185  27.867   6.375  0.00  0.00    +0.314 C 
BRANCH  32  33
ATOM     33  O   UNL     1     -30.961  27.379   6.707  0.00  0.00    -0.480 OA
ATOM     34  H   UNL     1     -30.687  26.544   6.383  0.00  0.00    +0.295 HD
ENDBRANCH  32  33
ENDBRANCH  30  32
ENDBRANCH  29  30
ENDBRANCH  27  29
ENDBRANCH  24  26
ENDBRANCH   7  24
TORSDOF 8
ENDMDL
MODEL 6
REMARK VINA RESULT:      -6.8      5.597      8.990
REMARK  Name = 21121742
REMARK  8 active torsions:
REMARK  status: ('A' for Active; 'I' for Inactive)
REMARK    1  A    between atoms: C_3  and  C_10
REMARK    2  A    between atoms: C_7  and  C_24
REMARK    3  A    between atoms: N_9  and  C_14
REMARK    4  A    between atoms: C_24  and  N_26
REMARK    5  A    between atoms: C_27  and  C_29
REMARK    6  A    between atoms: C_29  and  C_30
REMARK    7  A    between atoms: C_30  and  C_32
REMARK    8  A    between atoms: C_32  and  O_33
REMARK                            x       y       z     vdW  Elec       q    Type
REMARK                         _______ _______ _______ _____ _____    ______ ____
ROOT
ATOM      1  O   UNL     1     -36.332  23.838   1.282  0.00  0.00    -0.273 OA
ATOM      2  N   UNL     1     -38.636  23.919   1.491  0.00  0.00    -0.272 N 
ATOM      3  C   UNL     1     -38.858  24.954   0.489  0.00  0.00    +0.152 C 
ATOM      4  C   UNL     1     -40.354  24.900   0.201  0.00  0.00    +0.031 C 
ATOM      5  C   UNL     1     -40.950  24.401   1.516  0.00  0.00    +0.024 C 
ATOM      6  C   UNL     1     -39.902  23.426   2.028  0.00  0.00    +0.094 C 
ATOM      7  C   UNL     1     -37.380  23.393   1.753  0.00  0.00    +0.246 C 
ENDROOT
BRANCH   3  10
ATOM      8  O   UNL     1     -39.277  26.958   1.691  0.00  0.00    -0.273 OA
ATOM      9  N   UNL     1     -37.105  26.512   0.904  0.00  0.00    -0.282 N 
ATOM     10  C   UNL     1     -38.456  26.259   1.106  0.00  0.00    +0.244 C 
ATOM     11  H   UNL     1     -36.603  25.829   0.404  0.00  0.00    +0.155 HD
BRANCH   9  14
ATOM     12  O   UNL     1     -33.858  28.449   3.863  0.00  0.00    -0.421 OA
ATOM     13  O   UNL     1     -32.308  29.350   5.283  0.00  0.00    -0.244 OA
ATOM     14  C   UNL     1     -36.366  27.639   1.338  0.00  0.00    +0.053 C 
ATOM     15  C   UNL     1     -35.474  27.506   2.383  0.00  0.00    +0.052 C 
ATOM     16  C   UNL     1     -36.550  28.854   0.702  0.00  0.00    +0.015 C 
ATOM     17  C   UNL     1     -34.756  28.630   2.793  0.00  0.00    +0.150 C 
ATOM     18  C   UNL     1     -34.909  29.876   2.183  0.00  0.00    +0.031 C 
ATOM     19  C   UNL     1     -35.822  29.974   1.124  0.00  0.00    +0.004 C 
ATOM     20  C   UNL     1     -34.111  31.006   2.679  0.00  0.00    -0.012 C 
ATOM     21  C   UNL     1     -33.265  30.805   3.698  0.00  0.00    +0.078 C 
ATOM     22  C   UNL     1     -34.254  32.358   2.044  0.00  0.00    +0.031 C 
ATOM     23  C   UNL     1     -33.092  29.497   4.353  0.00  0.00    +0.346 C 
ENDBRANCH   9  14
ENDBRANCH   3  10
BRANCH   7  24
ATOM     24  C   UNL     1     -37.354  22.212   2.689  0.00  0.00    +0.176 C 
BRANCH  24  26
ATOM     25  O   UNL     1     -35.093  20.902   3.933  0.00  0.00    -0.275 OA
ATOM     26  N   UNL     1     -36.661  22.613   3.921  0.00  0.00    -0.297 N 
ATOM     27  C   UNL     1     -35.591  21.912   4.423  0.00  0.00    +0.223 C 
ATOM     28  H   UNL     1     -36.974  23.412   4.403  0.00  0.00    +0.150 HD
BRANCH  27  29
ATOM     29  C   UNL     1     -35.081  22.554   5.701  0.00  0.00    +0.097 C 
BRANCH  29  30
ATOM     30  C   UNL     1     -35.522  24.007   5.839  0.00  0.00    +0.119 C 
BRANCH  30  32
ATOM     31  O   UNL     1     -33.577  24.671   4.535  0.00  0.00    -0.250 OA
ATOM     32  C   UNL     1     -34.487  24.966   5.297  0.00  0.00    +0.314 C 
BRANCH  32  33
ATOM     33  O   UNL     1     -34.686  26.227   5.763  0.00  0.00    -0.480 OA
ATOM     34  H   UNL     1     -35.309  26.380   6.446  0.00  0.00    +0.295 HD
ENDBRANCH  32  33
ENDBRANCH  30  32
ENDBRANCH  29  30
ENDBRANCH  27  29
ENDBRANCH  24  26
ENDBRANCH   7  24
TORSDOF 8
ENDMDL
MODEL 7
REMARK VINA RESULT:      -6.8      5.279      8.912
REMARK  Name = 21121742
REMARK  8 active torsions:
REMARK  status: ('A' for Active; 'I' for Inactive)
REMARK    1  A    between atoms: C_3  and  C_10
REMARK    2  A    between atoms: C_7  and  C_24
REMARK    3  A    between atoms: N_9  and  C_14
REMARK    4  A    between atoms: C_24  and  N_26
REMARK    5  A    between atoms: C_27  and  C_29
REMARK    6  A    between atoms: C_29  and  C_30
REMARK    7  A    between atoms: C_30  and  C_32
REMARK    8  A    between atoms: C_32  and  O_33
REMARK                            x       y       z     vdW  Elec       q    Type
REMARK                         _______ _______ _______ _____ _____    ______ ____
ROOT
ATOM      1  O   UNL     1     -38.412  24.727   3.734  0.00  0.00    -0.273 OA
ATOM      2  N   UNL     1     -37.399  22.845   2.845  0.00  0.00    -0.272 N 
ATOM      3  C   UNL     1     -36.264  22.819   3.758  0.00  0.00    +0.152 C 
ATOM      4  C   UNL     1     -35.656  21.433   3.582  0.00  0.00    +0.031 C 
ATOM      5  C   UNL     1     -36.001  21.076   2.138  0.00  0.00    +0.024 C 
ATOM      6  C   UNL     1     -37.374  21.698   1.941  0.00  0.00    +0.094 C 
ATOM      7  C   UNL     1     -38.426  23.769   2.959  0.00  0.00    +0.246 C 
ENDROOT
BRANCH   3  10
ATOM      8  O   UNL     1     -34.631  23.765   2.317  0.00  0.00    -0.273 OA
ATOM      9  N   UNL     1     -35.366  24.983   4.191  0.00  0.00    -0.282 N 
ATOM     10  C   UNL     1     -35.321  23.900   3.322  0.00  0.00    +0.244 C 
ATOM     11  H   UNL     1     -35.986  24.906   4.952  0.00  0.00    +0.155 HD
BRANCH   9  14
ATOM     12  O   UNL     1     -31.808  27.771   5.809  0.00  0.00    -0.421 OA
ATOM     13  O   UNL     1     -30.108  29.082   6.596  0.00  0.00    -0.244 OA
ATOM     14  C   UNL     1     -34.621  26.184   4.108  0.00  0.00    +0.053 C 
ATOM     15  C   UNL     1     -33.581  26.401   4.990  0.00  0.00    +0.052 C 
ATOM     16  C   UNL     1     -34.949  27.118   3.142  0.00  0.00    +0.015 C 
ATOM     17  C   UNL     1     -32.860  27.592   4.890  0.00  0.00    +0.150 C 
ATOM     18  C   UNL     1     -33.155  28.563   3.932  0.00  0.00    +0.031 C 
ATOM     19  C   UNL     1     -34.217  28.309   3.053  0.00  0.00    +0.004 C 
ATOM     20  C   UNL     1     -32.343  29.787   3.898  0.00  0.00    -0.012 C 
ATOM     21  C   UNL     1     -31.349  29.931   4.785  0.00  0.00    +0.078 C 
ATOM     22  C   UNL     1     -32.635  30.851   2.880  0.00  0.00    +0.031 C 
ATOM     23  C   UNL     1     -31.025  28.916   5.801  0.00  0.00    +0.346 C 
ENDBRANCH   9  14
ENDBRANCH   3  10
BRANCH   7  24
ATOM     24  C   UNL     1     -39.605  23.545   2.047  0.00  0.00    +0.176 C 
BRANCH  24  26
ATOM     25  O   UNL     1     -42.164  23.946   0.756  0.00  0.00    -0.275 OA
ATOM     26  N   UNL     1     -40.386  24.788   1.987  0.00  0.00    -0.297 N 
ATOM     27  C   UNL     1     -41.597  24.864   1.343  0.00  0.00    +0.223 C 
ATOM     28  H   UNL     1     -40.029  25.595   2.425  0.00  0.00    +0.150 HD
BRANCH  27  29
ATOM     29  C   UNL     1     -42.171  26.266   1.442  0.00  0.00    +0.097 C 
BRANCH  29  30
ATOM     30  C   UNL     1     -42.797  26.545   2.804  0.00  0.00    +0.119 C 
BRANCH  30  32
ATOM     31  O   UNL     1     -42.194  28.594   3.973  0.00  0.00    -0.250 OA
ATOM     32  C   UNL     1     -41.926  27.443   3.653  0.00  0.00    +0.314 C 
BRANCH  32  33
ATOM     33  O   UNL     1     -40.783  26.814   4.031  0.00  0.00    -0.480 OA
ATOM     34  H   UNL     1     -39.973  27.024   3.610  0.00  0.00    +0.295 HD
ENDBRANCH  32  33
ENDBRANCH  30  32
ENDBRANCH  29  30
ENDBRANCH  27  29
ENDBRANCH  24  26
ENDBRANCH   7  24
TORSDOF 8
ENDMDL
MODEL 8
REMARK VINA RESULT:      -6.8      6.628     10.573
REMARK  Name = 21121742
REMARK  8 active torsions:
REMARK  status: ('A' for Active; 'I' for Inactive)
REMARK    1  A    between atoms: C_3  and  C_10
REMARK    2  A    between atoms: C_7  and  C_24
REMARK    3  A    between atoms: N_9  and  C_14
REMARK    4  A    between atoms: C_24  and  N_26
REMARK    5  A    between atoms: C_27  and  C_29
REMARK    6  A    between atoms: C_29  and  C_30
REMARK    7  A    between atoms: C_30  and  C_32
REMARK    8  A    between atoms: C_32  and  O_33
REMARK                            x       y       z     vdW  Elec       q    Type
REMARK                         _______ _______ _______ _____ _____    ______ ____
ROOT
ATOM      1  O   UNL     1     -32.194  28.819   6.803  0.00  0.00    -0.273 OA
ATOM      2  N   UNL     1     -31.262  30.119   5.130  0.00  0.00    -0.272 N 
ATOM      3  C   UNL     1     -32.493  30.331   4.378  0.00  0.00    +0.152 C 
ATOM      4  C   UNL     1     -32.173  31.477   3.426  0.00  0.00    +0.031 C 
ATOM      5  C   UNL     1     -30.671  31.333   3.190  0.00  0.00    +0.024 C 
ATOM      6  C   UNL     1     -30.149  30.855   4.536  0.00  0.00    +0.094 C 
ATOM      7  C   UNL     1     -31.233  29.431   6.333  0.00  0.00    +0.246 C 
ENDROOT
BRANCH   3  10
ATOM      8  O   UNL     1     -32.394  28.896   2.489  0.00  0.00    -0.273 OA
ATOM      9  N   UNL     1     -33.515  28.180   4.430  0.00  0.00    -0.282 N 
ATOM     10  C   UNL     1     -32.784  29.059   3.641  0.00  0.00    +0.244 C 
ATOM     11  H   UNL     1     -33.739  28.491   5.337  0.00  0.00    +0.155 HD
BRANCH   9  14
ATOM     12  O   UNL     1     -35.122  23.855   5.757  0.00  0.00    -0.421 OA
ATOM     13  O   UNL     1     -35.885  21.801   6.412  0.00  0.00    -0.244 OA
ATOM     14  C   UNL     1     -33.975  26.887   4.080  0.00  0.00    +0.053 C 
ATOM     15  C   UNL     1     -34.324  25.998   5.076  0.00  0.00    +0.052 C 
ATOM     16  C   UNL     1     -34.066  26.541   2.744  0.00  0.00    +0.015 C 
ATOM     17  C   UNL     1     -34.776  24.729   4.708  0.00  0.00    +0.150 C 
ATOM     18  C   UNL     1     -34.885  24.335   3.374  0.00  0.00    +0.031 C 
ATOM     19  C   UNL     1     -34.521  25.264   2.389  0.00  0.00    +0.004 C 
ATOM     20  C   UNL     1     -35.370  22.980   3.077  0.00  0.00    -0.012 C 
ATOM     21  C   UNL     1     -35.691  22.169   4.094  0.00  0.00    +0.078 C 
ATOM     22  C   UNL     1     -35.498  22.526   1.653  0.00  0.00    +0.031 C 
ATOM     23  C   UNL     1     -35.582  22.570   5.507  0.00  0.00    +0.346 C 
ENDBRANCH   9  14
ENDBRANCH   3  10
BRANCH   7  24
ATOM     24  C   UNL     1     -29.915  29.456   7.064  0.00  0.00    +0.176 C 
BRANCH  24  26
ATOM     25  O   UNL     1     -27.490  28.422   8.256  0.00  0.00    -0.275 OA
ATOM     26  N   UNL     1     -29.101  28.330   6.588  0.00  0.00    -0.297 N 
ATOM     27  C   UNL     1     -27.961  27.922   7.238  0.00  0.00    +0.223 C 
ATOM     28  H   UNL     1     -29.383  27.850   5.776  0.00  0.00    +0.150 HD
BRANCH  27  29
ATOM     29  C   UNL     1     -27.328  26.742   6.523  0.00  0.00    +0.097 C 
BRANCH  29  30
ATOM     30  C   UNL     1     -26.939  27.072   5.086  0.00  0.00    +0.119 C 
BRANCH  30  32
ATOM     31  O   UNL     1     -27.817  25.422   3.527  0.00  0.00    -0.250 OA
ATOM     32  C   UNL     1     -27.922  26.504   4.089  0.00  0.00    +0.314 C 
BRANCH  32  33
ATOM     33  O   UNL     1     -28.964  27.351   3.880  0.00  0.00    -0.480 OA
ATOM     34  H   UNL     1     -29.095  27.732   3.034  0.00  0.00    +0.295 HD
ENDBRANCH  32  33
ENDBRANCH  30  32
ENDBRANCH  29  30
ENDBRANCH  27  29
ENDBRANCH  24  26
ENDBRANCH   7  24
TORSDOF 8
ENDMDL
MODEL 9
REMARK VINA RESULT:      -6.8      6.115      9.443
REMARK  Name = 21121742
REMARK  8 active torsions:
REMARK  status: ('A' for Active; 'I' for Inactive)
REMARK    1  A    between atoms: C_3  and  C_10
REMARK    2  A    between atoms: C_7  and  C_24
REMARK    3  A    between atoms: N_9  and  C_14
REMARK    4  A    between atoms: C_24  and  N_26
REMARK    5  A    between atoms: C_27  and  C_29
REMARK    6  A    between atoms: C_29  and  C_30
REMARK    7  A    between atoms: C_30  and  C_32
REMARK    8  A    between atoms: C_32  and  O_33
REMARK                            x       y       z     vdW  Elec       q    Type
REMARK                         _______ _______ _______ _____ _____    ______ ____
ROOT
ATOM      1  O   UNL     1     -37.048  25.679   3.152  0.00  0.00    -0.273 OA
ATOM      2  N   UNL     1     -36.228  23.681   3.984  0.00  0.00    -0.272 N 
ATOM      3  C   UNL     1     -35.712  24.220   5.236  0.00  0.00    +0.152 C 
ATOM      4  C   UNL     1     -35.454  22.997   6.108  0.00  0.00    +0.031 C 
ATOM      5  C   UNL     1     -35.142  21.899   5.094  0.00  0.00    +0.024 C 
ATOM      6  C   UNL     1     -36.056  22.232   3.925  0.00  0.00    +0.094 C 
ATOM      7  C   UNL     1     -36.924  24.456   3.070  0.00  0.00    +0.246 C 
ENDROOT
BRANCH   3  10
ATOM      8  O   UNL     1     -33.449  24.346   4.531  0.00  0.00    -0.273 OA
ATOM      9  N   UNL     1     -34.592  26.319   5.112  0.00  0.00    -0.282 N 
ATOM     10  C   UNL     1     -34.444  24.952   4.913  0.00  0.00    +0.244 C 
ATOM     11  H   UNL     1     -35.474  26.621   5.426  0.00  0.00    +0.155 HD
BRANCH   9  14
ATOM     12  O   UNL     1     -30.670  28.643   6.619  0.00  0.00    -0.421 OA
ATOM     13  O   UNL     1     -28.802  29.736   7.356  0.00  0.00    -0.244 OA
ATOM     14  C   UNL     1     -33.617  27.327   4.914  0.00  0.00    +0.053 C 
ATOM     15  C   UNL     1     -32.620  27.501   5.852  0.00  0.00    +0.052 C 
ATOM     16  C   UNL     1     -33.683  28.118   3.780  0.00  0.00    +0.015 C 
ATOM     17  C   UNL     1     -31.670  28.501   5.636  0.00  0.00    +0.150 C 
ATOM     18  C   UNL     1     -31.695  29.322   4.509  0.00  0.00    +0.031 C 
ATOM     19  C   UNL     1     -32.722  29.116   3.577  0.00  0.00    +0.004 C 
ATOM     20  C   UNL     1     -30.654  30.349   4.362  0.00  0.00    -0.012 C 
ATOM     21  C   UNL     1     -29.716  30.462   5.312  0.00  0.00    +0.078 C 
ATOM     22  C   UNL     1     -30.655  31.249   3.161  0.00  0.00    +0.031 C 
ATOM     23  C   UNL     1     -29.675  29.603   6.507  0.00  0.00    +0.346 C 
ENDBRANCH   9  14
ENDBRANCH   3  10
BRANCH   7  24
ATOM     24  C   UNL     1     -37.539  23.705   1.916  0.00  0.00    +0.176 C 
BRANCH  24  26
ATOM     25  O   UNL     1     -40.199  22.612   2.238  0.00  0.00    -0.275 OA
ATOM     26  N   UNL     1     -38.812  24.350   1.571  0.00  0.00    -0.297 N 
ATOM     27  C   UNL     1     -40.025  23.733   1.769  0.00  0.00    +0.223 C 
ATOM     28  H   UNL     1     -38.797  25.255   1.185  0.00  0.00    +0.150 HD
BRANCH  27  29
ATOM     29  C   UNL     1     -41.163  24.632   1.320  0.00  0.00    +0.097 C 
BRANCH  29  30
ATOM     30  C   UNL     1     -40.895  26.104   1.616  0.00  0.00    +0.119 C 
BRANCH  30  32
ATOM     31  O   UNL     1     -41.967  26.492   3.766  0.00  0.00    -0.250 OA
ATOM     32  C   UNL     1     -40.947  26.401   3.096  0.00  0.00    +0.314 C 
BRANCH  32  33
ATOM     33  O   UNL     1     -39.702  26.561   3.615  0.00  0.00    -0.480 OA
ATOM     34  H   UNL     1     -39.460  27.377   4.008  0.00  0.00    +0.295 HD
ENDBRANCH  32  33
ENDBRANCH  30  32
ENDBRANCH  29  30
ENDBRANCH  27  29
ENDBRANCH  24  26
ENDBRANCH   7  24
TORSDOF 8
ENDMDL
