MODEL 1
REMARK VINA RESULT:      -7.3      0.000      0.000
REMARK  Name = 5327049
REMARK  4 active torsions:
REMARK  status: ('A' for Active; 'I' for Inactive)
REMARK    1  A    between atoms: C_1  and  C_10
REMARK    2  A    between atoms: C_2  and  C_24
REMARK    3  A    between atoms: C_14  and  C_20
REMARK    4  A    between atoms: C_27  and  C_32
REMARK                            x       y       z     vdW  Elec       q    Type
REMARK                         _______ _______ _______ _____ _____    ______ ____
ROOT
ATOM      1  C   UNL     1     -34.395  26.367   4.508  0.00  0.00    +0.014 C 
ATOM      2  C   UNL     1     -32.157  27.775   5.396  0.00  0.00    -0.000 C 
ATOM      3  C   UNL     1     -34.005  26.285   5.844  0.00  0.00    -0.001 C 
ATOM      4  C   UNL     1     -33.666  27.152   3.615  0.00  0.00    -0.001 C 
ATOM      5  C   UNL     1     -32.886  26.989   6.289  0.00  0.00    -0.000 C 
ATOM      6  C   UNL     1     -32.547  27.857   4.059  0.00  0.00    -0.000 C 
ENDROOT
BRANCH   1  10
ATOM      7  N   UNL     1     -35.461  24.366   3.556  0.00  0.00    -0.315 N 
ATOM      8  N   UNL     1     -36.790  26.082   4.037  0.00  0.00    -0.315 N 
ATOM      9  C   UNL     1     -36.724  23.961   3.207  0.00  0.00    +0.059 C 
ATOM     10  C   UNL     1     -35.553  25.639   4.047  0.00  0.00    +0.168 C 
ATOM     11  C   UNL     1     -37.534  25.049   3.517  0.00  0.00    +0.059 C 
ATOM     12  C   UNL     1     -37.211  22.772   2.663  0.00  0.00    +0.018 C 
ATOM     13  C   UNL     1     -38.917  24.963   3.276  0.00  0.00    +0.016 C 
ATOM     14  C   UNL     1     -38.588  22.704   2.431  0.00  0.00    +0.032 C 
ATOM     15  C   UNL     1     -39.428  23.780   2.730  0.00  0.00    +0.004 C 
ATOM     16  H   UNL     1     -34.637  23.836   3.470  0.00  0.00    +0.149 HD
ATOM     17  H   UNL     1     -37.114  26.962   4.337  0.00  0.00    +0.149 HD
BRANCH  14  20
ATOM     18  N   UNL     1     -38.477  20.761   0.888  0.00  0.00    -0.343 N 
ATOM     19  N   UNL     1     -40.338  21.064   2.269  0.00  0.00    -0.285 NA
ATOM     20  C   UNL     1     -39.155  21.489   1.863  0.00  0.00    +0.117 C 
ATOM     21  H   UNL     1     -38.878  19.942   0.517  0.00  0.00    +0.144 HD
ATOM     22  H   UNL     1     -37.596  21.065   0.571  0.00  0.00    +0.144 HD
ATOM     23  H   UNL     1     -40.723  20.243   1.887  0.00  0.00    +0.188 HD
ENDBRANCH  14  20
ENDBRANCH   1  10
BRANCH   2  24
ATOM     24  C   UNL     1     -30.995  28.504   5.856  0.00  0.00    +0.000 C 
ATOM     25  C   UNL     1     -29.894  27.815   6.362  0.00  0.00    +0.000 C 
ATOM     26  C   UNL     1     -30.976  29.897   5.793  0.00  0.00    +0.000 C 
ATOM     27  C   UNL     1     -28.755  29.912   6.743  0.00  0.00    +0.031 C 
ATOM     28  C   UNL     1     -28.774  28.519   6.807  0.00  0.00    +0.003 C 
ATOM     29  C   UNL     1     -29.857  30.601   6.235  0.00  0.00    +0.003 C 
BRANCH  27  32
ATOM     30  N   UNL     1     -26.942  31.571   6.386  0.00  0.00    -0.343 N 
ATOM     31  N   UNL     1     -27.119  30.438   8.423  0.00  0.00    -0.285 NA
ATOM     32  C   UNL     1     -27.588  30.646   7.205  0.00  0.00    +0.117 C 
ATOM     33  H   UNL     1     -26.153  32.057   6.719  0.00  0.00    +0.144 HD
ATOM     34  H   UNL     1     -27.275  31.737   5.474  0.00  0.00    +0.144 HD
ATOM     35  H   UNL     1     -26.329  30.934   8.737  0.00  0.00    +0.188 HD
ENDBRANCH  27  32
ENDBRANCH   2  24
TORSDOF 4
ENDMDL
MODEL 2
REMARK VINA RESULT:      -7.1      6.076      7.300
REMARK  Name = 5327049
REMARK  4 active torsions:
REMARK  status: ('A' for Active; 'I' for Inactive)
REMARK    1  A    between atoms: C_1  and  C_10
REMARK    2  A    between atoms: C_2  and  C_24
REMARK    3  A    between atoms: C_14  and  C_20
REMARK    4  A    between atoms: C_27  and  C_32
REMARK                            x       y       z     vdW  Elec       q    Type
REMARK                         _______ _______ _______ _____ _____    ______ ____
ROOT
ATOM      1  C   UNL     1     -34.803  29.988   2.762  0.00  0.00    +0.014 C 
ATOM      2  C   UNL     1     -34.780  32.649   1.929  0.00  0.00    -0.000 C 
ATOM      3  C   UNL     1     -35.894  30.511   2.070  0.00  0.00    -0.001 C 
ATOM      4  C   UNL     1     -33.699  30.795   3.038  0.00  0.00    -0.001 C 
ATOM      5  C   UNL     1     -35.883  31.842   1.653  0.00  0.00    -0.000 C 
ATOM      6  C   UNL     1     -33.688  32.127   2.621  0.00  0.00    -0.000 C 
ENDROOT
BRANCH   1  10
ATOM      7  N   UNL     1     -35.848  27.766   2.900  0.00  0.00    -0.315 N 
ATOM      8  N   UNL     1     -33.877  28.015   3.897  0.00  0.00    -0.315 N 
ATOM      9  C   UNL     1     -35.558  26.543   3.449  0.00  0.00    +0.059 C 
ATOM     10  C   UNL     1     -34.813  28.611   3.194  0.00  0.00    +0.168 C 
ATOM     11  C   UNL     1     -34.324  26.724   4.065  0.00  0.00    +0.059 C 
ATOM     12  C   UNL     1     -36.249  25.331   3.458  0.00  0.00    +0.018 C 
ATOM     13  C   UNL     1     -33.728  25.642   4.735  0.00  0.00    +0.016 C 
ATOM     14  C   UNL     1     -35.642  24.266   4.129  0.00  0.00    +0.032 C 
ATOM     15  C   UNL     1     -34.404  24.416   4.758  0.00  0.00    +0.004 C 
ATOM     16  H   UNL     1     -36.655  27.996   2.386  0.00  0.00    +0.149 HD
ATOM     17  H   UNL     1     -33.037  28.406   4.230  0.00  0.00    +0.149 HD
BRANCH  14  20
ATOM     18  N   UNL     1     -37.352  22.669   3.294  0.00  0.00    -0.343 N 
ATOM     19  N   UNL     1     -35.951  22.074   5.068  0.00  0.00    -0.285 NA
ATOM     20  C   UNL     1     -36.316  22.976   4.174  0.00  0.00    +0.117 C 
ATOM     21  H   UNL     1     -37.794  21.792   3.342  0.00  0.00    +0.144 HD
ATOM     22  H   UNL     1     -37.640  23.331   2.624  0.00  0.00    +0.144 HD
ATOM     23  H   UNL     1     -36.406  21.203   5.100  0.00  0.00    +0.188 HD
ENDBRANCH  14  20
ENDBRANCH   1  10
BRANCH   2  24
ATOM     24  C   UNL     1     -34.769  34.030   1.496  0.00  0.00    +0.000 C 
ATOM     25  C   UNL     1     -35.901  34.584   0.899  0.00  0.00    +0.000 C 
ATOM     26  C   UNL     1     -33.626  34.809   1.678  0.00  0.00    +0.000 C 
ATOM     27  C   UNL     1     -34.747  36.694   0.665  0.00  0.00    +0.031 C 
ATOM     28  C   UNL     1     -35.890  35.915   0.483  0.00  0.00    +0.003 C 
ATOM     29  C   UNL     1     -33.614  36.139   1.264  0.00  0.00    +0.003 C 
BRANCH  27  32
ATOM     30  N   UNL     1     -35.550  38.524  -0.808  0.00  0.00    -0.343 N 
ATOM     31  N   UNL     1     -33.934  38.950   0.826  0.00  0.00    -0.285 NA
ATOM     32  C   UNL     1     -34.734  38.082   0.232  0.00  0.00    +0.117 C 
ATOM     33  H   UNL     1     -35.526  39.468  -1.085  0.00  0.00    +0.144 HD
ATOM     34  H   UNL     1     -36.151  37.891  -1.265  0.00  0.00    +0.144 HD
ATOM     35  H   UNL     1     -33.924  39.889   0.534  0.00  0.00    +0.188 HD
ENDBRANCH  27  32
ENDBRANCH   2  24
TORSDOF 4
ENDMDL
MODEL 3
REMARK VINA RESULT:      -7.1      6.119      7.324
REMARK  Name = 5327049
REMARK  4 active torsions:
REMARK  status: ('A' for Active; 'I' for Inactive)
REMARK    1  A    between atoms: C_1  and  C_10
REMARK    2  A    between atoms: C_2  and  C_24
REMARK    3  A    between atoms: C_14  and  C_20
REMARK    4  A    between atoms: C_27  and  C_32
REMARK                            x       y       z     vdW  Elec       q    Type
REMARK                         _______ _______ _______ _____ _____    ______ ____
ROOT
ATOM      1  C   UNL     1     -34.837  30.016   2.754  0.00  0.00    +0.014 C 
ATOM      2  C   UNL     1     -34.845  32.680   1.929  0.00  0.00    -0.000 C 
ATOM      3  C   UNL     1     -33.740  30.833   3.024  0.00  0.00    -0.001 C 
ATOM      4  C   UNL     1     -35.938  30.531   2.070  0.00  0.00    -0.001 C 
ATOM      5  C   UNL     1     -33.743  32.166   2.612  0.00  0.00    -0.000 C 
ATOM      6  C   UNL     1     -35.942  31.864   1.658  0.00  0.00    -0.000 C 
ENDROOT
BRANCH   1  10
ATOM      7  N   UNL     1     -35.887  27.800   2.936  0.00  0.00    -0.315 N 
ATOM      8  N   UNL     1     -33.865  28.032   3.830  0.00  0.00    -0.315 N 
ATOM      9  C   UNL     1     -35.576  26.573   3.463  0.00  0.00    +0.059 C 
ATOM     10  C   UNL     1     -34.834  28.637   3.180  0.00  0.00    +0.168 C 
ATOM     11  C   UNL     1     -34.311  26.744   4.015  0.00  0.00    +0.059 C 
ATOM     12  C   UNL     1     -36.274  25.365   3.504  0.00  0.00    +0.018 C 
ATOM     13  C   UNL     1     -33.687  25.655   4.649  0.00  0.00    +0.016 C 
ATOM     14  C   UNL     1     -35.639  24.293   4.138  0.00  0.00    +0.032 C 
ATOM     15  C   UNL     1     -34.369  24.433   4.702  0.00  0.00    +0.004 C 
ATOM     16  H   UNL     1     -36.718  28.037   2.466  0.00  0.00    +0.149 HD
ATOM     17  H   UNL     1     -33.007  28.417   4.121  0.00  0.00    +0.149 HD
BRANCH  14  20
ATOM     18  N   UNL     1     -37.373  22.695   3.358  0.00  0.00    -0.343 N 
ATOM     19  N   UNL     1     -35.937  22.114   5.108  0.00  0.00    -0.285 NA
ATOM     20  C   UNL     1     -36.318  23.007   4.213  0.00  0.00    +0.117 C 
ATOM     21  H   UNL     1     -37.819  21.820   3.426  0.00  0.00    +0.144 HD
ATOM     22  H   UNL     1     -37.673  23.350   2.687  0.00  0.00    +0.144 HD
ATOM     23  H   UNL     1     -36.395  21.245   5.161  0.00  0.00    +0.188 HD
ENDBRANCH  14  20
ENDBRANCH   1  10
BRANCH   2  24
ATOM     24  C   UNL     1     -34.848  34.063   1.500  0.00  0.00    +0.000 C 
ATOM     25  C   UNL     1     -33.670  34.807   1.536  0.00  0.00    +0.000 C 
ATOM     26  C   UNL     1     -36.030  34.650   1.049  0.00  0.00    +0.000 C 
ATOM     27  C   UNL     1     -34.856  36.727   0.672  0.00  0.00    +0.031 C 
ATOM     28  C   UNL     1     -33.674  36.140   1.123  0.00  0.00    +0.003 C 
ATOM     29  C   UNL     1     -36.035  35.981   0.635  0.00  0.00    +0.003 C 
BRANCH  27  32
ATOM     30  N   UNL     1     -34.167  39.097   0.946  0.00  0.00    -0.343 N 
ATOM     31  N   UNL     1     -35.537  38.467  -0.839  0.00  0.00    -0.285 NA
ATOM     32  C   UNL     1     -34.860  38.116   0.241  0.00  0.00    +0.117 C 
ATOM     33  H   UNL     1     -34.183  40.031   0.637  0.00  0.00    +0.144 HD
ATOM     34  H   UNL     1     -33.660  38.855   1.755  0.00  0.00    +0.144 HD
ATOM     35  H   UNL     1     -35.541  39.407  -1.133  0.00  0.00    +0.188 HD
ENDBRANCH  27  32
ENDBRANCH   2  24
TORSDOF 4
ENDMDL
MODEL 4
REMARK VINA RESULT:      -7.0      7.762      8.896
REMARK  Name = 5327049
REMARK  4 active torsions:
REMARK  status: ('A' for Active; 'I' for Inactive)
REMARK    1  A    between atoms: C_1  and  C_10
REMARK    2  A    between atoms: C_2  and  C_24
REMARK    3  A    between atoms: C_14  and  C_20
REMARK    4  A    between atoms: C_27  and  C_32
REMARK                            x       y       z     vdW  Elec       q    Type
REMARK                         _______ _______ _______ _____ _____    ______ ____
ROOT
ATOM      1  C   UNL     1     -36.870  22.375   1.410  0.00  0.00    +0.014 C 
ATOM      2  C   UNL     1     -34.579  20.816   1.093  0.00  0.00    -0.000 C 
ATOM      3  C   UNL     1     -36.616  21.322   2.287  0.00  0.00    -0.001 C 
ATOM      4  C   UNL     1     -35.978  22.649   0.373  0.00  0.00    -0.001 C 
ATOM      5  C   UNL     1     -35.471  20.542   2.130  0.00  0.00    -0.000 C 
ATOM      6  C   UNL     1     -34.832  21.870   0.214  0.00  0.00    -0.000 C 
ENDROOT
BRANCH   1  10
ATOM      7  N   UNL     1     -38.236  23.994   2.659  0.00  0.00    -0.315 N 
ATOM      8  N   UNL     1     -39.070  23.241   0.741  0.00  0.00    -0.315 N 
ATOM      9  C   UNL     1     -39.449  24.618   2.516  0.00  0.00    +0.059 C 
ATOM     10  C   UNL     1     -38.055  23.182   1.573  0.00  0.00    +0.168 C 
ATOM     11  C   UNL     1     -39.949  24.131   1.313  0.00  0.00    +0.059 C 
ATOM     12  C   UNL     1     -40.130  25.538   3.314  0.00  0.00    +0.018 C 
ATOM     13  C   UNL     1     -41.203  24.579   0.862  0.00  0.00    +0.016 C 
ATOM     14  C   UNL     1     -41.375  25.972   2.850  0.00  0.00    +0.032 C 
ATOM     15  C   UNL     1     -41.905  25.502   1.646  0.00  0.00    +0.004 C 
ATOM     16  H   UNL     1     -37.608  24.109   3.407  0.00  0.00    +0.149 HD
ATOM     17  H   UNL     1     -39.178  22.753  -0.107  0.00  0.00    +0.149 HD
BRANCH  14  20
ATOM     18  N   UNL     1     -43.527  26.940   3.626  0.00  0.00    -0.343 N 
ATOM     19  N   UNL     1     -41.498  27.818   4.384  0.00  0.00    -0.285 NA
ATOM     20  C   UNL     1     -42.134  26.931   3.640  0.00  0.00    +0.117 C 
ATOM     21  H   UNL     1     -44.021  27.598   4.168  0.00  0.00    +0.144 HD
ATOM     22  H   UNL     1     -44.018  26.289   3.075  0.00  0.00    +0.144 HD
ATOM     23  H   UNL     1     -42.009  28.468   4.919  0.00  0.00    +0.188 HD
ENDBRANCH  14  20
ENDBRANCH   1  10
BRANCH   2  24
ATOM     24  C   UNL     1     -33.391  20.006   0.928  0.00  0.00    +0.000 C 
ATOM     25  C   UNL     1     -33.311  18.753   1.534  0.00  0.00    +0.000 C 
ATOM     26  C   UNL     1     -32.326  20.479   0.162  0.00  0.00    +0.000 C 
ATOM     27  C   UNL     1     -31.101  18.445   0.608  0.00  0.00    +0.031 C 
ATOM     28  C   UNL     1     -32.166  17.972   1.375  0.00  0.00    +0.003 C 
ATOM     29  C   UNL     1     -31.181  19.700   0.001  0.00  0.00    +0.003 C 
BRANCH  27  32
ATOM     30  N   UNL     1     -28.651  18.213   0.273  0.00  0.00    -0.343 N 
ATOM     31  N   UNL     1     -30.002  16.314   0.443  0.00  0.00    -0.285 NA
ATOM     32  C   UNL     1     -29.907  17.632   0.441  0.00  0.00    +0.117 C 
ATOM     33  H   UNL     1     -27.856  17.645   0.161  0.00  0.00    +0.144 HD
ATOM     34  H   UNL     1     -28.561  19.194   0.265  0.00  0.00    +0.144 HD
ATOM     35  H   UNL     1     -29.195  15.762   0.331  0.00  0.00    +0.188 HD
ENDBRANCH  27  32
ENDBRANCH   2  24
TORSDOF 4
ENDMDL
MODEL 5
REMARK VINA RESULT:      -7.0      7.598      8.835
REMARK  Name = 5327049
REMARK  4 active torsions:
REMARK  status: ('A' for Active; 'I' for Inactive)
REMARK    1  A    between atoms: C_1  and  C_10
REMARK    2  A    between atoms: C_2  and  C_24
REMARK    3  A    between atoms: C_14  and  C_20
REMARK    4  A    between atoms: C_27  and  C_32
REMARK                            x       y       z     vdW  Elec       q    Type
REMARK                         _______ _______ _______ _____ _____    ______ ____
ROOT
ATOM      1  C   UNL     1     -37.580  22.976   1.592  0.00  0.00    +0.014 C 
ATOM      2  C   UNL     1     -35.293  21.430   1.194  0.00  0.00    -0.000 C 
ATOM      3  C   UNL     1     -36.940  22.385   2.680  0.00  0.00    -0.001 C 
ATOM      4  C   UNL     1     -37.077  22.795   0.304  0.00  0.00    -0.001 C 
ATOM      5  C   UNL     1     -35.796  21.612   2.482  0.00  0.00    -0.000 C 
ATOM      6  C   UNL     1     -35.933  22.022   0.105  0.00  0.00    -0.000 C 
ENDROOT
BRANCH   1  10
ATOM      7  N   UNL     1     -38.873  24.657   2.838  0.00  0.00    -0.315 N 
ATOM      8  N   UNL     1     -39.843  23.765   1.048  0.00  0.00    -0.315 N 
ATOM      9  C   UNL     1     -40.105  25.253   2.754  0.00  0.00    +0.059 C 
ATOM     10  C   UNL     1     -38.763  23.777   1.797  0.00  0.00    +0.168 C 
ATOM     11  C   UNL     1     -40.690  24.680   1.629  0.00  0.00    +0.059 C 
ATOM     12  C   UNL     1     -40.737  26.215   3.541  0.00  0.00    +0.018 C 
ATOM     13  C   UNL     1     -41.985  25.079   1.253  0.00  0.00    +0.016 C 
ATOM     14  C   UNL     1     -42.024  26.600   3.152  0.00  0.00    +0.032 C 
ATOM     15  C   UNL     1     -42.639  26.043   2.028  0.00  0.00    +0.004 C 
ATOM     16  H   UNL     1     -38.189  24.831   3.524  0.00  0.00    +0.149 HD
ATOM     17  H   UNL     1     -40.009  23.220   0.245  0.00  0.00    +0.149 HD
BRANCH  14  20
ATOM     18  N   UNL     1     -44.108  27.505   4.157  0.00  0.00    -0.343 N 
ATOM     19  N   UNL     1     -42.076  28.624   4.449  0.00  0.00    -0.285 NA
ATOM     20  C   UNL     1     -42.735  27.600   3.936  0.00  0.00    +0.117 C 
ATOM     21  H   UNL     1     -44.569  28.192   4.690  0.00  0.00    +0.144 HD
ATOM     22  H   UNL     1     -44.616  26.751   3.780  0.00  0.00    +0.144 HD
ATOM     23  H   UNL     1     -42.555  29.300   4.979  0.00  0.00    +0.188 HD
ENDBRANCH  14  20
ENDBRANCH   1  10
BRANCH   2  24
ATOM     24  C   UNL     1     -34.107  20.627   0.987  0.00  0.00    +0.000 C 
ATOM     25  C   UNL     1     -33.994  19.379   1.600  0.00  0.00    +0.000 C 
ATOM     26  C   UNL     1     -33.078  21.100   0.175  0.00  0.00    +0.000 C 
ATOM     27  C   UNL     1     -31.821  19.079   0.587  0.00  0.00    +0.031 C 
ATOM     28  C   UNL     1     -32.850  18.605   1.401  0.00  0.00    +0.003 C 
ATOM     29  C   UNL     1     -31.935  20.327  -0.026  0.00  0.00    +0.003 C 
BRANCH  27  32
ATOM     30  N   UNL     1     -29.874  18.383  -0.787  0.00  0.00    -0.343 N 
ATOM     31  N   UNL     1     -30.246  17.411   1.305  0.00  0.00    -0.285 NA
ATOM     32  C   UNL     1     -30.629  18.273   0.378  0.00  0.00    +0.117 C 
ATOM     33  H   UNL     1     -29.070  17.827  -0.909  0.00  0.00    +0.144 HD
ATOM     34  H   UNL     1     -30.145  19.017  -1.491  0.00  0.00    +0.144 HD
ATOM     35  H   UNL     1     -29.440  16.865   1.165  0.00  0.00    +0.188 HD
ENDBRANCH  27  32
ENDBRANCH   2  24
TORSDOF 4
ENDMDL
MODEL 6
REMARK VINA RESULT:      -7.0      4.573      5.680
REMARK  Name = 5327049
REMARK  4 active torsions:
REMARK  status: ('A' for Active; 'I' for Inactive)
REMARK    1  A    between atoms: C_1  and  C_10
REMARK    2  A    between atoms: C_2  and  C_24
REMARK    3  A    between atoms: C_14  and  C_20
REMARK    4  A    between atoms: C_27  and  C_32
REMARK                            x       y       z     vdW  Elec       q    Type
REMARK                         _______ _______ _______ _____ _____    ______ ____
ROOT
ATOM      1  C   UNL     1     -34.519  29.164   3.034  0.00  0.00    +0.014 C 
ATOM      2  C   UNL     1     -33.597  31.777   2.717  0.00  0.00    -0.000 C 
ATOM      3  C   UNL     1     -35.379  30.154   2.561  0.00  0.00    -0.001 C 
ATOM      4  C   UNL     1     -33.198  29.480   3.349  0.00  0.00    -0.001 C 
ATOM      5  C   UNL     1     -34.919  31.461   2.402  0.00  0.00    -0.000 C 
ATOM      6  C   UNL     1     -32.737  30.787   3.190  0.00  0.00    -0.000 C 
ENDROOT
BRANCH   1  10
ATOM      7  N   UNL     1     -34.426  26.945   4.090  0.00  0.00    -0.315 N 
ATOM      8  N   UNL     1     -35.991  27.258   2.543  0.00  0.00    -0.315 N 
ATOM      9  C   UNL     1     -35.100  25.754   4.004  0.00  0.00    +0.059 C 
ATOM     10  C   UNL     1     -34.996  27.811   3.199  0.00  0.00    +0.168 C 
ATOM     11  C   UNL     1     -36.071  25.975   3.033  0.00  0.00    +0.059 C 
ATOM     12  C   UNL     1     -34.947  24.539   4.674  0.00  0.00    +0.018 C 
ATOM     13  C   UNL     1     -36.952  24.932   2.696  0.00  0.00    +0.016 C 
ATOM     14  C   UNL     1     -35.832  23.514   4.326  0.00  0.00    +0.032 C 
ATOM     15  C   UNL     1     -36.817  23.704   3.354  0.00  0.00    +0.004 C 
ATOM     16  H   UNL     1     -33.668  27.142   4.686  0.00  0.00    +0.149 HD
ATOM     17  H   UNL     1     -36.557  27.672   1.853  0.00  0.00    +0.149 HD
BRANCH  14  20
ATOM     18  N   UNL     1     -35.919  22.094   6.362  0.00  0.00    -0.343 N 
ATOM     19  N   UNL     1     -35.419  21.146   4.285  0.00  0.00    -0.285 NA
ATOM     20  C   UNL     1     -35.720  22.222   4.989  0.00  0.00    +0.117 C 
ATOM     21  H   UNL     1     -35.838  21.211   6.790  0.00  0.00    +0.144 HD
ATOM     22  H   UNL     1     -36.140  22.885   6.903  0.00  0.00    +0.144 HD
ATOM     23  H   UNL     1     -35.342  20.272   4.731  0.00  0.00    +0.188 HD
ENDBRANCH  14  20
ENDBRANCH   1  10
BRANCH   2  24
ATOM     24  C   UNL     1     -33.119  33.133   2.553  0.00  0.00    +0.000 C 
ATOM     25  C   UNL     1     -33.947  34.100   1.983  0.00  0.00    +0.000 C 
ATOM     26  C   UNL     1     -31.832  33.473   2.966  0.00  0.00    +0.000 C 
ATOM     27  C   UNL     1     -32.198  35.748   2.239  0.00  0.00    +0.031 C 
ATOM     28  C   UNL     1     -33.486  35.407   1.825  0.00  0.00    +0.003 C 
ATOM     29  C   UNL     1     -31.370  34.779   2.810  0.00  0.00    +0.003 C 
BRANCH  27  32
ATOM     30  N   UNL     1     -32.006  37.849   0.930  0.00  0.00    -0.343 N 
ATOM     31  N   UNL     1     -30.985  37.668   3.024  0.00  0.00    -0.285 NA
ATOM     32  C   UNL     1     -31.717  37.110   2.076  0.00  0.00    +0.117 C 
ATOM     33  H   UNL     1     -31.670  38.769   0.839  0.00  0.00    +0.144 HD
ATOM     34  H   UNL     1     -32.547  37.448   0.210  0.00  0.00    +0.144 HD
ATOM     35  H   UNL     1     -30.659  38.590   2.915  0.00  0.00    +0.188 HD
ENDBRANCH  27  32
ENDBRANCH   2  24
TORSDOF 4
ENDMDL
MODEL 7
REMARK VINA RESULT:      -6.9      5.004     10.267
REMARK  Name = 5327049
REMARK  4 active torsions:
REMARK  status: ('A' for Active; 'I' for Inactive)
REMARK    1  A    between atoms: C_1  and  C_10
REMARK    2  A    between atoms: C_2  and  C_24
REMARK    3  A    between atoms: C_14  and  C_20
REMARK    4  A    between atoms: C_27  and  C_32
REMARK                            x       y       z     vdW  Elec       q    Type
REMARK                         _______ _______ _______ _____ _____    ______ ____
ROOT
ATOM      1  C   UNL     1     -33.466  29.891   3.255  0.00  0.00    +0.014 C 
ATOM      2  C   UNL     1     -34.110  27.223   3.750  0.00  0.00    -0.000 C 
ATOM      3  C   UNL     1     -32.619  29.103   4.033  0.00  0.00    -0.001 C 
ATOM      4  C   UNL     1     -34.635  29.346   2.724  0.00  0.00    -0.001 C 
ATOM      5  C   UNL     1     -32.940  27.768   4.281  0.00  0.00    -0.000 C 
ATOM      6  C   UNL     1     -34.957  28.012   2.971  0.00  0.00    -0.000 C 
ENDROOT
BRANCH   1  10
ATOM      7  N   UNL     1     -33.997  32.119   2.360  0.00  0.00    -0.315 N 
ATOM      8  N   UNL     1     -32.011  31.870   3.327  0.00  0.00    -0.315 N 
ATOM      9  C   UNL     1     -33.389  33.346   2.272  0.00  0.00    +0.059 C 
ATOM     10  C   UNL     1     -33.134  31.272   2.999  0.00  0.00    +0.168 C 
ATOM     11  C   UNL     1     -32.152  33.164   2.882  0.00  0.00    +0.059 C 
ATOM     12  C   UNL     1     -33.804  34.561   1.727  0.00  0.00    +0.018 C 
ATOM     13  C   UNL     1     -31.262  34.250   2.962  0.00  0.00    +0.016 C 
ATOM     14  C   UNL     1     -32.907  35.630   1.815  0.00  0.00    +0.032 C 
ATOM     15  C   UNL     1     -31.658  35.479   2.421  0.00  0.00    +0.004 C 
ATOM     16  H   UNL     1     -34.893  31.889   2.025  0.00  0.00    +0.149 HD
ATOM     17  H   UNL     1     -31.236  31.478   3.791  0.00  0.00    +0.149 HD
BRANCH  14  20
ATOM     18  N   UNL     1     -34.456  37.082   0.527  0.00  0.00    -0.343 N 
ATOM     19  N   UNL     1     -32.503  37.971   1.452  0.00  0.00    -0.285 NA
ATOM     20  C   UNL     1     -33.284  36.923   1.263  0.00  0.00    +0.117 C 
ATOM     21  H   UNL     1     -34.692  37.965   0.162  0.00  0.00    +0.144 HD
ATOM     22  H   UNL     1     -35.049  36.311   0.373  0.00  0.00    +0.144 HD
ATOM     23  H   UNL     1     -32.755  38.846   1.079  0.00  0.00    +0.188 HD
ENDBRANCH  14  20
ENDBRANCH   1  10
BRANCH   2  24
ATOM     24  C   UNL     1     -34.444  25.839   4.007  0.00  0.00    +0.000 C 
ATOM     25  C   UNL     1     -34.643  25.401   5.316  0.00  0.00    +0.000 C 
ATOM     26  C   UNL     1     -34.569  24.942   2.946  0.00  0.00    +0.000 C 
ATOM     27  C   UNL     1     -35.090  23.170   4.502  0.00  0.00    +0.031 C 
ATOM     28  C   UNL     1     -34.965  24.066   5.564  0.00  0.00    +0.003 C 
ATOM     29  C   UNL     1     -34.892  23.609   3.193  0.00  0.00    +0.003 C 
BRANCH  27  32
ATOM     30  N   UNL     1     -35.428  21.260   6.053  0.00  0.00    -0.343 N 
ATOM     31  N   UNL     1     -35.735  20.979   3.754  0.00  0.00    -0.285 NA
ATOM     32  C   UNL     1     -35.427  21.779   4.760  0.00  0.00    +0.117 C 
ATOM     33  H   UNL     1     -35.659  20.316   6.205  0.00  0.00    +0.144 HD
ATOM     34  H   UNL     1     -35.198  21.840   6.816  0.00  0.00    +0.144 HD
ATOM     35  H   UNL     1     -35.963  20.037   3.926  0.00  0.00    +0.188 HD
ENDBRANCH  27  32
ENDBRANCH   2  24
TORSDOF 4
ENDMDL
MODEL 8
REMARK VINA RESULT:      -6.8      4.081      7.107
REMARK  Name = 5327049
REMARK  4 active torsions:
REMARK  status: ('A' for Active; 'I' for Inactive)
REMARK    1  A    between atoms: C_1  and  C_10
REMARK    2  A    between atoms: C_2  and  C_24
REMARK    3  A    between atoms: C_14  and  C_20
REMARK    4  A    between atoms: C_27  and  C_32
REMARK                            x       y       z     vdW  Elec       q    Type
REMARK                         _______ _______ _______ _____ _____    ______ ____
ROOT
ATOM      1  C   UNL     1     -36.648  20.900   1.319  0.00  0.00    +0.014 C 
ATOM      2  C   UNL     1     -35.477  22.986   2.753  0.00  0.00    -0.000 C 
ATOM      3  C   UNL     1     -35.919  20.627   2.475  0.00  0.00    -0.001 C 
ATOM      4  C   UNL     1     -36.793  22.216   0.879  0.00  0.00    -0.001 C 
ATOM      5  C   UNL     1     -35.333  21.670   3.193  0.00  0.00    -0.000 C 
ATOM      6  C   UNL     1     -36.208  23.259   1.596  0.00  0.00    -0.000 C 
ENDROOT
BRANCH   1  10
ATOM      7  N   UNL     1     -36.888  18.517   0.761  0.00  0.00    -0.315 N 
ATOM      8  N   UNL     1     -38.193  19.943  -0.335  0.00  0.00    -0.315 N 
ATOM      9  C   UNL     1     -37.642  17.746  -0.087  0.00  0.00    +0.059 C 
ATOM     10  C   UNL     1     -37.255  19.821   0.576  0.00  0.00    +0.168 C 
ATOM     11  C   UNL     1     -38.448  18.660  -0.760  0.00  0.00    +0.059 C 
ATOM     12  C   UNL     1     -37.685  16.371  -0.316  0.00  0.00    +0.018 C 
ATOM     13  C   UNL     1     -39.358  18.189  -1.722  0.00  0.00    +0.016 C 
ATOM     14  C   UNL     1     -38.596  15.921  -1.276  0.00  0.00    +0.032 C 
ATOM     15  C   UNL     1     -39.419  16.813  -1.969  0.00  0.00    +0.004 C 
ATOM     16  H   UNL     1     -36.206  18.191   1.390  0.00  0.00    +0.149 HD
ATOM     17  H   UNL     1     -38.623  20.773  -0.646  0.00  0.00    +0.149 HD
BRANCH  14  20
ATOM     18  N   UNL     1     -37.543  13.712  -1.697  0.00  0.00    -0.343 N 
ATOM     19  N   UNL     1     -39.870  13.927  -1.697  0.00  0.00    -0.285 NA
ATOM     20  C   UNL     1     -38.686  14.496  -1.560  0.00  0.00    +0.117 C 
ATOM     21  H   UNL     1     -37.626  12.750  -1.889  0.00  0.00    +0.144 HD
ATOM     22  H   UNL     1     -36.652  14.120  -1.602  0.00  0.00    +0.144 HD
ATOM     23  H   UNL     1     -39.933  12.964  -1.889  0.00  0.00    +0.188 HD
ENDBRANCH  14  20
ENDBRANCH   1  10
BRANCH   2  24
ATOM     24  C   UNL     1     -34.869  24.068   3.496  0.00  0.00    +0.000 C 
ATOM     25  C   UNL     1     -34.055  24.992   2.843  0.00  0.00    +0.000 C 
ATOM     26  C   UNL     1     -35.097  24.187   4.867  0.00  0.00    +0.000 C 
ATOM     27  C   UNL     1     -33.697  26.155   4.930  0.00  0.00    +0.031 C 
ATOM     28  C   UNL     1     -33.468  26.035   3.560  0.00  0.00    +0.003 C 
ATOM     29  C   UNL     1     -34.513  25.230   5.584  0.00  0.00    +0.003 C 
BRANCH  27  32
ATOM     30  N   UNL     1     -32.829  27.128   7.043  0.00  0.00    -0.343 N 
ATOM     31  N   UNL     1     -32.770  28.368   5.063  0.00  0.00    -0.285 NA
ATOM     32  C   UNL     1     -33.087  27.242   5.679  0.00  0.00    +0.117 C 
ATOM     33  H   UNL     1     -32.415  27.876   7.531  0.00  0.00    +0.144 HD
ATOM     34  H   UNL     1     -33.061  26.298   7.520  0.00  0.00    +0.144 HD
ATOM     35  H   UNL     1     -32.357  29.105   5.568  0.00  0.00    +0.188 HD
ENDBRANCH  27  32
ENDBRANCH   2  24
TORSDOF 4
ENDMDL
MODEL 9
REMARK VINA RESULT:      -6.8      4.461     10.393
REMARK  Name = 5327049
REMARK  4 active torsions:
REMARK  status: ('A' for Active; 'I' for Inactive)
REMARK    1  A    between atoms: C_1  and  C_10
REMARK    2  A    between atoms: C_2  and  C_24
REMARK    3  A    between atoms: C_14  and  C_20
REMARK    4  A    between atoms: C_27  and  C_32
REMARK                            x       y       z     vdW  Elec       q    Type
REMARK                         _______ _______ _______ _____ _____    ______ ____
ROOT
ATOM      1  C   UNL     1     -33.628  29.835   3.201  0.00  0.00    +0.014 C 
ATOM      2  C   UNL     1     -34.201  27.149   3.689  0.00  0.00    -0.000 C 
ATOM      3  C   UNL     1     -32.734  29.053   3.931  0.00  0.00    -0.001 C 
ATOM      4  C   UNL     1     -34.809  29.275   2.715  0.00  0.00    -0.001 C 
ATOM      5  C   UNL     1     -33.020  27.710   4.175  0.00  0.00    -0.000 C 
ATOM      6  C   UNL     1     -35.095  27.931   2.958  0.00  0.00    -0.000 C 
ENDROOT
BRANCH   1  10
ATOM      7  N   UNL     1     -32.166  31.806   3.362  0.00  0.00    -0.315 N 
ATOM      8  N   UNL     1     -34.110  32.077   2.319  0.00  0.00    -0.315 N 
ATOM      9  C   UNL     1     -32.192  33.120   2.973  0.00  0.00    +0.059 C 
ATOM     10  C   UNL     1     -33.333  31.225   2.948  0.00  0.00    +0.168 C 
ATOM     11  C   UNL     1     -33.415  33.265   2.324  0.00  0.00    +0.059 C 
ATOM     12  C   UNL     1     -31.279  34.163   3.128  0.00  0.00    +0.018 C 
ATOM     13  C   UNL     1     -33.763  34.518   1.792  0.00  0.00    +0.016 C 
ATOM     14  C   UNL     1     -31.642  35.403   2.592  0.00  0.00    +0.032 C 
ATOM     15  C   UNL     1     -32.862  35.580   1.936  0.00  0.00    +0.004 C 
ATOM     16  H   UNL     1     -31.438  31.359   3.852  0.00  0.00    +0.149 HD
ATOM     17  H   UNL     1     -34.997  31.904   1.928  0.00  0.00    +0.149 HD
BRANCH  14  20
ATOM     18  N   UNL     1     -29.352  36.365   2.596  0.00  0.00    -0.343 N 
ATOM     19  N   UNL     1     -31.207  37.735   2.977  0.00  0.00    -0.285 NA
ATOM     20  C   UNL     1     -30.730  36.530   2.725  0.00  0.00    +0.117 C 
ATOM     21  H   UNL     1     -28.753  37.141   2.690  0.00  0.00    +0.144 HD
ATOM     22  H   UNL     1     -28.978  35.474   2.412  0.00  0.00    +0.144 HD
ATOM     23  H   UNL     1     -30.593  38.498   3.067  0.00  0.00    +0.188 HD
ENDBRANCH  14  20
ENDBRANCH   1  10
BRANCH   2  24
ATOM     24  C   UNL     1     -34.498  25.756   3.943  0.00  0.00    +0.000 C 
ATOM     25  C   UNL     1     -34.746  24.890   2.878  0.00  0.00    +0.000 C 
ATOM     26  C   UNL     1     -34.535  25.278   5.252  0.00  0.00    +0.000 C 
ATOM     27  C   UNL     1     -35.069  23.069   4.433  0.00  0.00    +0.031 C 
ATOM     28  C   UNL     1     -35.033  23.547   3.123  0.00  0.00    +0.003 C 
ATOM     29  C   UNL     1     -34.820  23.936   5.498  0.00  0.00    +0.003 C 
BRANCH  27  32
ATOM     30  N   UNL     1     -35.410  21.162   5.986  0.00  0.00    -0.343 N 
ATOM     31  N   UNL     1     -35.600  20.850   3.678  0.00  0.00    -0.285 NA
ATOM     32  C   UNL     1     -35.368  21.669   4.689  0.00  0.00    +0.117 C 
ATOM     33  H   UNL     1     -35.614  20.211   6.137  0.00  0.00    +0.144 HD
ATOM     34  H   UNL     1     -35.236  21.757   6.752  0.00  0.00    +0.144 HD
ATOM     35  H   UNL     1     -35.803  19.902   3.849  0.00  0.00    +0.188 HD
ENDBRANCH  27  32
ENDBRANCH   2  24
TORSDOF 4
ENDMDL
