MODEL 1
REMARK VINA RESULT:      -6.4      0.000      0.000
REMARK  Name = 21125475
REMARK  9 active torsions:
REMARK  status: ('A' for Active; 'I' for Inactive)
REMARK    1  A    between atoms: C_1  and  C_4
REMARK    2  A    between atoms: C_1  and  N_11
REMARK    3  A    between atoms: C_1  and  C_23
REMARK    4  A    between atoms: N_3  and  C_6
REMARK    5  A    between atoms: C_6  and  C_8
REMARK    6  A    between atoms: C_8  and  O_9
REMARK    7  A    between atoms: N_11  and  S_13
REMARK    8  A    between atoms: S_13  and  C_16
REMARK    9  A    between atoms: C_23  and  O_25
REMARK                            x       y       z     vdW  Elec       q    Type
REMARK                         _______ _______ _______ _____ _____    ______ ____
ROOT
ATOM      1  C   UNL     1     -35.981  22.504   3.807  0.00  0.00    +0.178 C 
ENDROOT
BRANCH   1   4
ATOM      2  O   UNL     1     -37.393  24.393   4.357  0.00  0.00    -0.274 OA
ATOM      3  N   UNL     1     -35.322  24.788   3.391  0.00  0.00    -0.294 N 
ATOM      4  C   UNL     1     -36.334  23.981   3.890  0.00  0.00    +0.241 C 
ATOM      5  H   UNL     1     -34.509  24.362   3.037  0.00  0.00    +0.150 HD
BRANCH   3   6
ATOM      6  C   UNL     1     -35.413  26.230   3.371  0.00  0.00    +0.201 C 
BRANCH   6   8
ATOM      7  O   UNL     1     -33.977  28.092   3.852  0.00  0.00    -0.248 OA
ATOM      8  C   UNL     1     -34.243  26.910   4.044  0.00  0.00    +0.337 C 
BRANCH   8   9
ATOM      9  O   UNL     1     -33.550  26.066   4.857  0.00  0.00    -0.443 OA
ATOM     10  C   UNL     1     -33.657  26.326   6.259  0.00  0.00    +0.256 C 
ENDBRANCH   8   9
ENDBRANCH   6   8
ENDBRANCH   3   6
ENDBRANCH   1   4
BRANCH   1  11
ATOM     11  N   UNL     1     -35.319  22.287   2.501  0.00  0.00    -0.170 NA
ATOM     12  H   UNL     1     -35.514  23.110   1.932  0.00  0.00    +0.149 HD
BRANCH  11  13
ATOM     13  S   UNL     1     -35.722  20.930   1.561  0.00  0.00    +0.061 S 
ATOM     14  O   UNL     1     -36.398  21.364   0.354  0.00  0.00    -0.153 OA
ATOM     15  O   UNL     1     -36.329  19.930   2.417  0.00  0.00    -0.153 OA
BRANCH  13  16
ATOM     16  C   UNL     1     -34.128  20.318   1.104  0.00  0.00    +0.122 C 
ATOM     17  C   UNL     1     -33.697  19.078   1.572  0.00  0.00    +0.020 C 
ATOM     18  C   UNL     1     -33.302  21.076   0.272  0.00  0.00    +0.020 C 
ATOM     19  C   UNL     1     -31.613  19.351   0.380  0.00  0.00    -0.022 C 
ATOM     20  C   UNL     1     -32.439  18.594   1.210  0.00  0.00    -0.003 C 
ATOM     21  C   UNL     1     -32.044  20.592  -0.089  0.00  0.00    -0.003 C 
ATOM     22  C   UNL     1     -30.268  18.834  -0.006  0.00  0.00    +0.031 C 
ENDBRANCH  13  16
ENDBRANCH  11  13
ENDBRANCH   1  11
BRANCH   1  23
ATOM     23  C   UNL     1     -35.077  22.076   4.969  0.00  0.00    +0.135 C 
ATOM     24  C   UNL     1     -35.463  22.736   6.288  0.00  0.00    +0.034 C 
BRANCH  23  25
ATOM     25  O   UNL     1     -35.136  20.658   5.124  0.00  0.00    -0.383 OA
ATOM     26  H   UNL     1     -34.698  20.232   4.370  0.00  0.00    +0.210 HD
ENDBRANCH  23  25
ENDBRANCH   1  23
TORSDOF 9
ENDMDL
MODEL 2
REMARK VINA RESULT:      -6.1      3.284      6.681
REMARK  Name = 21125475
REMARK  9 active torsions:
REMARK  status: ('A' for Active; 'I' for Inactive)
REMARK    1  A    between atoms: C_1  and  C_4
REMARK    2  A    between atoms: C_1  and  N_11
REMARK    3  A    between atoms: C_1  and  C_23
REMARK    4  A    between atoms: N_3  and  C_6
REMARK    5  A    between atoms: C_6  and  C_8
REMARK    6  A    between atoms: C_8  and  O_9
REMARK    7  A    between atoms: N_11  and  S_13
REMARK    8  A    between atoms: S_13  and  C_16
REMARK    9  A    between atoms: C_23  and  O_25
REMARK                            x       y       z     vdW  Elec       q    Type
REMARK                         _______ _______ _______ _____ _____    ______ ____
ROOT
ATOM      1  C   UNL     1     -35.415  22.719   3.914  0.00  0.00    +0.178 C 
ENDROOT
BRANCH   1   4
ATOM      2  O   UNL     1     -35.364  21.099   2.115  0.00  0.00    -0.274 OA
ATOM      3  N   UNL     1     -37.405  21.998   2.753  0.00  0.00    -0.294 N 
ATOM      4  C   UNL     1     -36.027  21.849   2.828  0.00  0.00    +0.241 C 
ATOM      5  H   UNL     1     -37.845  22.626   3.369  0.00  0.00    +0.150 HD
BRANCH   3   6
ATOM      6  C   UNL     1     -38.218  21.268   1.809  0.00  0.00    +0.201 C 
BRANCH   6   8
ATOM      7  O   UNL     1     -40.035  22.720   2.401  0.00  0.00    -0.248 OA
ATOM      8  C   UNL     1     -39.651  21.746   1.762  0.00  0.00    +0.337 C 
BRANCH   8   9
ATOM      9  O   UNL     1     -40.427  20.979   0.949  0.00  0.00    -0.443 OA
ATOM     10  C   UNL     1     -39.952  20.814  -0.391  0.00  0.00    +0.256 C 
ENDBRANCH   8   9
ENDBRANCH   6   8
ENDBRANCH   3   6
ENDBRANCH   1   4
BRANCH   1  11
ATOM     11  N   UNL     1     -36.430  23.731   4.285  0.00  0.00    -0.170 NA
ATOM     12  H   UNL     1     -37.342  23.306   4.122  0.00  0.00    +0.149 HD
BRANCH  11  13
ATOM     13  S   UNL     1     -36.444  25.243   3.508  0.00  0.00    +0.061 S 
ATOM     14  O   UNL     1     -37.661  25.950   3.854  0.00  0.00    -0.153 OA
ATOM     15  O   UNL     1     -36.077  25.058   2.118  0.00  0.00    -0.153 OA
BRANCH  13  16
ATOM     16  C   UNL     1     -35.092  26.067   4.294  0.00  0.00    +0.122 C 
ATOM     17  C   UNL     1     -34.794  25.799   5.629  0.00  0.00    +0.020 C 
ATOM     18  C   UNL     1     -34.322  26.983   3.577  0.00  0.00    +0.020 C 
ATOM     19  C   UNL     1     -32.956  27.365   5.533  0.00  0.00    -0.022 C 
ATOM     20  C   UNL     1     -33.725  26.448   6.249  0.00  0.00    -0.003 C 
ATOM     21  C   UNL     1     -33.254  27.633   4.197  0.00  0.00    -0.003 C 
ATOM     22  C   UNL     1     -31.815  28.059   6.196  0.00  0.00    +0.031 C 
ENDBRANCH  13  16
ENDBRANCH  11  13
ENDBRANCH   1  11
BRANCH   1  23
ATOM     23  C   UNL     1     -34.988  21.886   5.128  0.00  0.00    +0.135 C 
ATOM     24  C   UNL     1     -35.599  22.390   6.431  0.00  0.00    +0.034 C 
BRANCH  23  25
ATOM     25  O   UNL     1     -35.369  20.524   4.932  0.00  0.00    -0.383 OA
ATOM     26  H   UNL     1     -35.173  20.015   5.733  0.00  0.00    +0.210 HD
ENDBRANCH  23  25
ENDBRANCH   1  23
TORSDOF 9
ENDMDL
MODEL 3
REMARK VINA RESULT:      -6.1      4.907      7.046
REMARK  Name = 21125475
REMARK  9 active torsions:
REMARK  status: ('A' for Active; 'I' for Inactive)
REMARK    1  A    between atoms: C_1  and  C_4
REMARK    2  A    between atoms: C_1  and  N_11
REMARK    3  A    between atoms: C_1  and  C_23
REMARK    4  A    between atoms: N_3  and  C_6
REMARK    5  A    between atoms: C_6  and  C_8
REMARK    6  A    between atoms: C_8  and  O_9
REMARK    7  A    between atoms: N_11  and  S_13
REMARK    8  A    between atoms: S_13  and  C_16
REMARK    9  A    between atoms: C_23  and  O_25
REMARK                            x       y       z     vdW  Elec       q    Type
REMARK                         _______ _______ _______ _____ _____    ______ ____
ROOT
ATOM      1  C   UNL     1     -39.580  25.838   1.946  0.00  0.00    +0.178 C 
ENDROOT
BRANCH   1   4
ATOM      2  O   UNL     1     -40.647  27.751   0.915  0.00  0.00    -0.274 OA
ATOM      3  N   UNL     1     -41.690  26.722   2.714  0.00  0.00    -0.294 N 
ATOM      4  C   UNL     1     -40.673  26.881   1.783  0.00  0.00    +0.241 C 
ATOM      5  H   UNL     1     -41.619  25.993   3.371  0.00  0.00    +0.150 HD
BRANCH   3   6
ATOM      6  C   UNL     1     -42.850  27.583   2.756  0.00  0.00    +0.201 C 
BRANCH   6   8
ATOM      7  O   UNL     1     -41.859  28.693   4.639  0.00  0.00    -0.248 OA
ATOM      8  C   UNL     1     -42.852  28.522   3.939  0.00  0.00    +0.337 C 
BRANCH   8   9
ATOM      9  O   UNL     1     -44.058  29.127   4.120  0.00  0.00    -0.443 OA
ATOM     10  C   UNL     1     -44.333  29.582   5.448  0.00  0.00    +0.256 C 
ENDBRANCH   8   9
ENDBRANCH   6   8
ENDBRANCH   3   6
ENDBRANCH   1   4
BRANCH   1  11
ATOM     11  N   UNL     1     -38.446  26.499   2.632  0.00  0.00    -0.170 NA
ATOM     12  H   UNL     1     -38.598  27.504   2.550  0.00  0.00    +0.149 HD
BRANCH  11  13
ATOM     13  S   UNL     1     -36.853  26.199   2.119  0.00  0.00    +0.061 S 
ATOM     14  O   UNL     1     -36.052  27.392   2.310  0.00  0.00    -0.153 OA
ATOM     15  O   UNL     1     -36.893  25.547   0.824  0.00  0.00    -0.153 OA
BRANCH  13  16
ATOM     16  C   UNL     1     -36.317  24.988   3.290  0.00  0.00    +0.122 C 
ATOM     17  C   UNL     1     -35.973  23.707   2.860  0.00  0.00    +0.020 C 
ATOM     18  C   UNL     1     -36.236  25.315   4.644  0.00  0.00    +0.020 C 
ATOM     19  C   UNL     1     -35.468  23.078   5.137  0.00  0.00    -0.022 C 
ATOM     20  C   UNL     1     -35.548  22.751   3.783  0.00  0.00    -0.003 C 
ATOM     21  C   UNL     1     -35.812  24.359   5.568  0.00  0.00    -0.003 C 
ATOM     22  C   UNL     1     -35.015  22.056   6.124  0.00  0.00    +0.031 C 
ENDBRANCH  13  16
ENDBRANCH  11  13
ENDBRANCH   1  11
BRANCH   1  23
ATOM     23  C   UNL     1     -40.076  24.622   2.737  0.00  0.00    +0.135 C 
ATOM     24  C   UNL     1     -39.501  23.308   2.219  0.00  0.00    +0.034 C 
BRANCH  23  25
ATOM     25  O   UNL     1     -39.728  24.772   4.114  0.00  0.00    -0.383 OA
ATOM     26  H   UNL     1     -39.844  25.698   4.377  0.00  0.00    +0.210 HD
ENDBRANCH  23  25
ENDBRANCH   1  23
TORSDOF 9
ENDMDL
MODEL 4
REMARK VINA RESULT:      -6.0      3.682      5.906
REMARK  Name = 21125475
REMARK  9 active torsions:
REMARK  status: ('A' for Active; 'I' for Inactive)
REMARK    1  A    between atoms: C_1  and  C_4
REMARK    2  A    between atoms: C_1  and  N_11
REMARK    3  A    between atoms: C_1  and  C_23
REMARK    4  A    between atoms: N_3  and  C_6
REMARK    5  A    between atoms: C_6  and  C_8
REMARK    6  A    between atoms: C_8  and  O_9
REMARK    7  A    between atoms: N_11  and  S_13
REMARK    8  A    between atoms: S_13  and  C_16
REMARK    9  A    between atoms: C_23  and  O_25
REMARK                            x       y       z     vdW  Elec       q    Type
REMARK                         _______ _______ _______ _____ _____    ______ ____
ROOT
ATOM      1  C   UNL     1     -38.371  22.456   1.706  0.00  0.00    +0.178 C 
ENDROOT
BRANCH   1   4
ATOM      2  O   UNL     1     -38.493  24.061   3.515  0.00  0.00    -0.274 OA
ATOM      3  N   UNL     1     -40.048  24.190   1.798  0.00  0.00    -0.294 N 
ATOM      4  C   UNL     1     -38.955  23.643   2.456  0.00  0.00    +0.241 C 
ATOM      5  H   UNL     1     -40.343  23.782   0.953  0.00  0.00    +0.150 HD
BRANCH   3   6
ATOM      6  C   UNL     1     -40.770  25.335   2.303  0.00  0.00    +0.201 C 
BRANCH   6   8
ATOM      7  O   UNL     1     -39.090  26.873   1.548  0.00  0.00    -0.248 OA
ATOM      8  C   UNL     1     -40.281  26.646   1.733  0.00  0.00    +0.337 C 
BRANCH   8   9
ATOM      9  O   UNL     1     -41.300  27.508   1.467  0.00  0.00    -0.443 OA
ATOM     10  C   UNL     1     -42.577  27.145   2.001  0.00  0.00    +0.256 C 
ENDBRANCH   8   9
ENDBRANCH   6   8
ENDBRANCH   3   6
ENDBRANCH   1   4
BRANCH   1  11
ATOM     11  N   UNL     1     -37.588  21.666   2.684  0.00  0.00    -0.170 NA
ATOM     12  H   UNL     1     -37.772  22.068   3.602  0.00  0.00    +0.149 HD
BRANCH  11  13
ATOM     13  S   UNL     1     -35.899  21.553   2.525  0.00  0.00    +0.061 S 
ATOM     14  O   UNL     1     -35.524  21.841   1.154  0.00  0.00    -0.153 OA
ATOM     15  O   UNL     1     -35.449  20.332   3.163  0.00  0.00    -0.153 OA
BRANCH  13  16
ATOM     16  C   UNL     1     -35.349  22.896   3.534  0.00  0.00    +0.122 C 
ATOM     17  C   UNL     1     -34.774  24.021   2.945  0.00  0.00    +0.020 C 
ATOM     18  C   UNL     1     -35.494  22.832   4.920  0.00  0.00    +0.020 C 
ATOM     19  C   UNL     1     -34.484  25.017   5.127  0.00  0.00    -0.022 C 
ATOM     20  C   UNL     1     -34.341  25.082   3.741  0.00  0.00    -0.003 C 
ATOM     21  C   UNL     1     -35.061  23.892   5.717  0.00  0.00    -0.003 C 
ATOM     22  C   UNL     1     -34.021  26.151   5.978  0.00  0.00    +0.031 C 
ENDBRANCH  13  16
ENDBRANCH  11  13
ENDBRANCH   1  11
BRANCH   1  23
ATOM     23  C   UNL     1     -39.469  21.607   1.055  0.00  0.00    +0.135 C 
ATOM     24  C   UNL     1     -38.909  20.535   0.125  0.00  0.00    +0.034 C 
BRANCH  23  25
ATOM     25  O   UNL     1     -40.253  20.979   2.070  0.00  0.00    -0.383 OA
ATOM     26  H   UNL     1     -41.192  21.033   1.831  0.00  0.00    +0.210 HD
ENDBRANCH  23  25
ENDBRANCH   1  23
TORSDOF 9
ENDMDL
MODEL 5
REMARK VINA RESULT:      -6.0      4.184      5.988
REMARK  Name = 21125475
REMARK  9 active torsions:
REMARK  status: ('A' for Active; 'I' for Inactive)
REMARK    1  A    between atoms: C_1  and  C_4
REMARK    2  A    between atoms: C_1  and  N_11
REMARK    3  A    between atoms: C_1  and  C_23
REMARK    4  A    between atoms: N_3  and  C_6
REMARK    5  A    between atoms: C_6  and  C_8
REMARK    6  A    between atoms: C_8  and  O_9
REMARK    7  A    between atoms: N_11  and  S_13
REMARK    8  A    between atoms: S_13  and  C_16
REMARK    9  A    between atoms: C_23  and  O_25
REMARK                            x       y       z     vdW  Elec       q    Type
REMARK                         _______ _______ _______ _____ _____    ______ ____
ROOT
ATOM      1  C   UNL     1     -34.268  27.649   2.504  0.00  0.00    +0.178 C 
ENDROOT
BRANCH   1   4
ATOM      2  O   UNL     1     -32.302  26.458   3.264  0.00  0.00    -0.274 OA
ATOM      3  N   UNL     1     -33.616  27.560   4.826  0.00  0.00    -0.294 N 
ATOM      4  C   UNL     1     -33.281  27.145   3.545  0.00  0.00    +0.241 C 
ATOM      5  H   UNL     1     -34.423  28.109   4.949  0.00  0.00    +0.150 HD
BRANCH   3   6
ATOM      6  C   UNL     1     -32.826  27.221   5.987  0.00  0.00    +0.201 C 
BRANCH   6   8
ATOM      7  O   UNL     1     -30.520  27.886   6.022  0.00  0.00    -0.248 OA
ATOM      8  C   UNL     1     -31.690  28.185   6.238  0.00  0.00    +0.337 C 
BRANCH   8   9
ATOM      9  O   UNL     1     -32.123  29.382   6.720  0.00  0.00    -0.443 OA
ATOM     10  C   UNL     1     -31.808  30.526   5.920  0.00  0.00    +0.256 C 
ENDBRANCH   8   9
ENDBRANCH   6   8
ENDBRANCH   3   6
ENDBRANCH   1   4
BRANCH   1  11
ATOM     11  N   UNL     1     -35.626  27.450   3.059  0.00  0.00    -0.170 NA
ATOM     12  H   UNL     1     -35.514  27.276   4.057  0.00  0.00    +0.149 HD
BRANCH  11  13
ATOM     13  S   UNL     1     -36.618  26.211   2.450  0.00  0.00    +0.061 S 
ATOM     14  O   UNL     1     -36.213  25.893   1.095  0.00  0.00    -0.153 OA
ATOM     15  O   UNL     1     -38.001  26.532   2.742  0.00  0.00    -0.153 OA
BRANCH  13  16
ATOM     16  C   UNL     1     -36.174  24.850   3.487  0.00  0.00    +0.122 C 
ATOM     17  C   UNL     1     -36.029  25.038   4.860  0.00  0.00    +0.020 C 
ATOM     18  C   UNL     1     -35.971  23.586   2.930  0.00  0.00    +0.020 C 
ATOM     19  C   UNL     1     -35.477  22.701   5.123  0.00  0.00    -0.022 C 
ATOM     20  C   UNL     1     -35.681  23.963   5.679  0.00  0.00    -0.003 C 
ATOM     21  C   UNL     1     -35.622  22.512   3.748  0.00  0.00    -0.003 C 
ATOM     22  C   UNL     1     -35.103  21.552   5.998  0.00  0.00    +0.031 C 
ENDBRANCH  13  16
ENDBRANCH  11  13
ENDBRANCH   1  11
BRANCH   1  23
ATOM     23  C   UNL     1     -34.017  29.122   2.158  0.00  0.00    +0.135 C 
ATOM     24  C   UNL     1     -35.115  30.043   2.677  0.00  0.00    +0.034 C 
BRANCH  23  25
ATOM     25  O   UNL     1     -32.765  29.535   2.706  0.00  0.00    -0.383 OA
ATOM     26  H   UNL     1     -32.541  30.417   2.372  0.00  0.00    +0.210 HD
ENDBRANCH  23  25
ENDBRANCH   1  23
TORSDOF 9
ENDMDL
MODEL 6
REMARK VINA RESULT:      -5.9      4.660      6.640
REMARK  Name = 21125475
REMARK  9 active torsions:
REMARK  status: ('A' for Active; 'I' for Inactive)
REMARK    1  A    between atoms: C_1  and  C_4
REMARK    2  A    between atoms: C_1  and  N_11
REMARK    3  A    between atoms: C_1  and  C_23
REMARK    4  A    between atoms: N_3  and  C_6
REMARK    5  A    between atoms: C_6  and  C_8
REMARK    6  A    between atoms: C_8  and  O_9
REMARK    7  A    between atoms: N_11  and  S_13
REMARK    8  A    between atoms: S_13  and  C_16
REMARK    9  A    between atoms: C_23  and  O_25
REMARK                            x       y       z     vdW  Elec       q    Type
REMARK                         _______ _______ _______ _____ _____    ______ ____
ROOT
ATOM      1  C   UNL     1     -34.500  29.129   2.663  0.00  0.00    +0.178 C 
ENDROOT
BRANCH   1   4
ATOM      2  O   UNL     1     -32.730  30.326   3.801  0.00  0.00    -0.274 OA
ATOM      3  N   UNL     1     -32.906  28.034   4.108  0.00  0.00    -0.294 N 
ATOM      4  C   UNL     1     -33.288  29.256   3.572  0.00  0.00    +0.241 C 
ATOM      5  H   UNL     1     -33.418  27.230   3.863  0.00  0.00    +0.150 HD
BRANCH   3   6
ATOM      6  C   UNL     1     -31.789  27.894   5.014  0.00  0.00    +0.201 C 
BRANCH   6   8
ATOM      7  O   UNL     1     -32.893  27.245   7.043  0.00  0.00    -0.248 OA
ATOM      8  C   UNL     1     -32.175  28.055   6.465  0.00  0.00    +0.337 C 
BRANCH   8   9
ATOM      9  O   UNL     1     -31.642  29.176   7.023  0.00  0.00    -0.443 OA
ATOM     10  C   UNL     1     -30.345  29.550   6.549  0.00  0.00    +0.256 C 
ENDBRANCH   8   9
ENDBRANCH   6   8
ENDBRANCH   3   6
ENDBRANCH   1   4
BRANCH   1  11
ATOM     11  N   UNL     1     -35.410  28.142   3.287  0.00  0.00    -0.170 NA
ATOM     12  H   UNL     1     -34.916  27.749   4.087  0.00  0.00    +0.149 HD
BRANCH  11  13
ATOM     13  S   UNL     1     -35.992  26.830   2.376  0.00  0.00    +0.061 S 
ATOM     14  O   UNL     1     -35.106  26.592   1.253  0.00  0.00    -0.153 OA
ATOM     15  O   UNL     1     -37.415  27.006   2.157  0.00  0.00    -0.153 OA
BRANCH  13  16
ATOM     16  C   UNL     1     -35.807  25.488   3.512  0.00  0.00    +0.122 C 
ATOM     17  C   UNL     1     -35.562  25.746   4.860  0.00  0.00    +0.020 C 
ATOM     18  C   UNL     1     -35.908  24.173   3.060  0.00  0.00    +0.020 C 
ATOM     19  C   UNL     1     -35.516  23.372   5.306  0.00  0.00    -0.022 C 
ATOM     20  C   UNL     1     -35.417  24.687   5.757  0.00  0.00    -0.003 C 
ATOM     21  C   UNL     1     -35.762  23.114   3.957  0.00  0.00    -0.003 C 
ATOM     22  C   UNL     1     -35.360  22.241   6.265  0.00  0.00    +0.031 C 
ENDBRANCH  13  16
ENDBRANCH  11  13
ENDBRANCH   1  11
BRANCH   1  23
ATOM     23  C   UNL     1     -35.196  30.480   2.461  0.00  0.00    +0.135 C 
ATOM     24  C   UNL     1     -36.328  30.412   1.442  0.00  0.00    +0.034 C 
BRANCH  23  25
ATOM     25  O   UNL     1     -35.719  30.939   3.708  0.00  0.00    -0.383 OA
ATOM     26  H   UNL     1     -35.719  30.209   4.346  0.00  0.00    +0.210 HD
ENDBRANCH  23  25
ENDBRANCH   1  23
TORSDOF 9
ENDMDL
MODEL 7
REMARK VINA RESULT:      -5.8      3.532      6.740
REMARK  Name = 21125475
REMARK  9 active torsions:
REMARK  status: ('A' for Active; 'I' for Inactive)
REMARK    1  A    between atoms: C_1  and  C_4
REMARK    2  A    between atoms: C_1  and  N_11
REMARK    3  A    between atoms: C_1  and  C_23
REMARK    4  A    between atoms: N_3  and  C_6
REMARK    5  A    between atoms: C_6  and  C_8
REMARK    6  A    between atoms: C_8  and  O_9
REMARK    7  A    between atoms: N_11  and  S_13
REMARK    8  A    between atoms: S_13  and  C_16
REMARK    9  A    between atoms: C_23  and  O_25
REMARK                            x       y       z     vdW  Elec       q    Type
REMARK                         _______ _______ _______ _____ _____    ______ ____
ROOT
ATOM      1  C   UNL     1     -35.249  23.017   3.943  0.00  0.00    +0.178 C 
ENDROOT
BRANCH   1   4
ATOM      2  O   UNL     1     -35.814  22.260   1.713  0.00  0.00    -0.274 OA
ATOM      3  N   UNL     1     -37.528  22.695   3.214  0.00  0.00    -0.294 N 
ATOM      4  C   UNL     1     -36.198  22.617   2.824  0.00  0.00    +0.241 C 
ATOM      5  H   UNL     1     -37.735  22.993   4.129  0.00  0.00    +0.150 HD
BRANCH   3   6
ATOM      6  C   UNL     1     -38.621  22.353   2.333  0.00  0.00    +0.201 C 
BRANCH   6   8
ATOM      7  O   UNL     1     -39.715  24.355   3.077  0.00  0.00    -0.248 OA
ATOM      8  C   UNL     1     -39.733  23.375   2.340  0.00  0.00    +0.337 C 
BRANCH   8   9
ATOM      9  O   UNL     1     -40.722  23.072   1.455  0.00  0.00    -0.443 OA
ATOM     10  C   UNL     1     -40.289  22.572   0.186  0.00  0.00    +0.256 C 
ENDBRANCH   8   9
ENDBRANCH   6   8
ENDBRANCH   3   6
ENDBRANCH   1   4
BRANCH   1  11
ATOM     11  N   UNL     1     -35.857  24.176   4.636  0.00  0.00    -0.170 NA
ATOM     12  H   UNL     1     -36.714  24.404   4.133  0.00  0.00    +0.149 HD
BRANCH  11  13
ATOM     13  S   UNL     1     -34.980  25.623   4.796  0.00  0.00    +0.061 S 
ATOM     14  O   UNL     1     -33.572  25.361   4.568  0.00  0.00    -0.153 OA
ATOM     15  O   UNL     1     -35.409  26.300   6.004  0.00  0.00    -0.153 OA
BRANCH  13  16
ATOM     16  C   UNL     1     -35.587  26.569   3.432  0.00  0.00    +0.122 C 
ATOM     17  C   UNL     1     -34.888  27.695   2.998  0.00  0.00    +0.020 C 
ATOM     18  C   UNL     1     -36.764  26.187   2.787  0.00  0.00    +0.020 C 
ATOM     19  C   UNL     1     -36.543  28.059   1.276  0.00  0.00    -0.022 C 
ATOM     20  C   UNL     1     -35.366  28.440   1.920  0.00  0.00    -0.003 C 
ATOM     21  C   UNL     1     -37.243  26.933   1.709  0.00  0.00    -0.003 C 
ATOM     22  C   UNL     1     -37.054  28.857   0.124  0.00  0.00    +0.031 C 
ENDBRANCH  13  16
ENDBRANCH  11  13
ENDBRANCH   1  11
BRANCH   1  23
ATOM     23  C   UNL     1     -35.001  21.855   4.912  0.00  0.00    +0.135 C 
ATOM     24  C   UNL     1     -35.559  22.123   6.306  0.00  0.00    +0.034 C 
BRANCH  23  25
ATOM     25  O   UNL     1     -35.595  20.665   4.394  0.00  0.00    -0.383 OA
ATOM     26  H   UNL     1     -35.790  20.786   3.451  0.00  0.00    +0.210 HD
ENDBRANCH  23  25
ENDBRANCH   1  23
TORSDOF 9
ENDMDL
MODEL 8
REMARK VINA RESULT:      -5.8      1.401      1.743
REMARK  Name = 21125475
REMARK  9 active torsions:
REMARK  status: ('A' for Active; 'I' for Inactive)
REMARK    1  A    between atoms: C_1  and  C_4
REMARK    2  A    between atoms: C_1  and  N_11
REMARK    3  A    between atoms: C_1  and  C_23
REMARK    4  A    between atoms: N_3  and  C_6
REMARK    5  A    between atoms: C_6  and  C_8
REMARK    6  A    between atoms: C_8  and  O_9
REMARK    7  A    between atoms: N_11  and  S_13
REMARK    8  A    between atoms: S_13  and  C_16
REMARK    9  A    between atoms: C_23  and  O_25
REMARK                            x       y       z     vdW  Elec       q    Type
REMARK                         _______ _______ _______ _____ _____    ______ ____
ROOT
ATOM      1  C   UNL     1     -35.970  23.444   2.776  0.00  0.00    +0.178 C 
ENDROOT
BRANCH   1   4
ATOM      2  O   UNL     1     -36.279  25.845   2.823  0.00  0.00    -0.274 OA
ATOM      3  N   UNL     1     -34.242  24.966   3.501  0.00  0.00    -0.294 N 
ATOM      4  C   UNL     1     -35.542  24.883   3.022  0.00  0.00    +0.241 C 
ATOM      5  H   UNL     1     -33.731  24.135   3.627  0.00  0.00    +0.150 HD
BRANCH   3   6
ATOM      6  C   UNL     1     -33.609  26.224   3.824  0.00  0.00    +0.201 C 
BRANCH   6   8
ATOM      7  O   UNL     1     -34.626  26.257   5.998  0.00  0.00    -0.248 OA
ATOM      8  C   UNL     1     -33.666  26.559   5.296  0.00  0.00    +0.337 C 
BRANCH   8   9
ATOM      9  O   UNL     1     -32.554  27.218   5.722  0.00  0.00    -0.443 OA
ATOM     10  C   UNL     1     -32.048  28.221   4.836  0.00  0.00    +0.256 C 
ENDBRANCH   8   9
ENDBRANCH   6   8
ENDBRANCH   3   6
ENDBRANCH   1   4
BRANCH   1  11
ATOM     11  N   UNL     1     -34.857  22.774   2.065  0.00  0.00    -0.170 NA
ATOM     12  H   UNL     1     -34.196  23.504   1.799  0.00  0.00    +0.149 HD
BRANCH  11  13
ATOM     13  S   UNL     1     -35.172  21.862   0.666  0.00  0.00    +0.061 S 
ATOM     14  O   UNL     1     -34.976  22.693  -0.506  0.00  0.00    -0.153 OA
ATOM     15  O   UNL     1     -36.415  21.139   0.848  0.00  0.00    -0.153 OA
BRANCH  13  16
ATOM     16  C   UNL     1     -33.869  20.667   0.712  0.00  0.00    +0.122 C 
ATOM     17  C   UNL     1     -34.041  19.476   1.416  0.00  0.00    +0.020 C 
ATOM     18  C   UNL     1     -32.671  20.915   0.041  0.00  0.00    +0.020 C 
ATOM     19  C   UNL     1     -31.816  18.780   0.781  0.00  0.00    -0.022 C 
ATOM     20  C   UNL     1     -33.014  18.532   1.450  0.00  0.00    -0.003 C 
ATOM     21  C   UNL     1     -31.644  19.972   0.076  0.00  0.00    -0.003 C 
ATOM     22  C   UNL     1     -30.718  17.772   0.819  0.00  0.00    +0.031 C 
ENDBRANCH  13  16
ENDBRANCH  11  13
ENDBRANCH   1  11
BRANCH   1  23
ATOM     23  C   UNL     1     -36.306  22.725   4.088  0.00  0.00    +0.135 C 
ATOM     24  C   UNL     1     -35.311  21.620   4.424  0.00  0.00    +0.034 C 
BRANCH  23  25
ATOM     25  O   UNL     1     -36.331  23.670   5.158  0.00  0.00    -0.383 OA
ATOM     26  H   UNL     1     -36.784  23.280   5.922  0.00  0.00    +0.210 HD
ENDBRANCH  23  25
ENDBRANCH   1  23
TORSDOF 9
ENDMDL
MODEL 9
REMARK VINA RESULT:      -5.8      1.901      3.265
REMARK  Name = 21125475
REMARK  9 active torsions:
REMARK  status: ('A' for Active; 'I' for Inactive)
REMARK    1  A    between atoms: C_1  and  C_4
REMARK    2  A    between atoms: C_1  and  N_11
REMARK    3  A    between atoms: C_1  and  C_23
REMARK    4  A    between atoms: N_3  and  C_6
REMARK    5  A    between atoms: C_6  and  C_8
REMARK    6  A    between atoms: C_8  and  O_9
REMARK    7  A    between atoms: N_11  and  S_13
REMARK    8  A    between atoms: S_13  and  C_16
REMARK    9  A    between atoms: C_23  and  O_25
REMARK                            x       y       z     vdW  Elec       q    Type
REMARK                         _______ _______ _______ _____ _____    ______ ____
ROOT
ATOM      1  C   UNL     1     -36.386  21.571   1.189  0.00  0.00    +0.178 C 
ENDROOT
BRANCH   1   4
ATOM      2  O   UNL     1     -38.053  22.566   2.636  0.00  0.00    -0.274 OA
ATOM      3  N   UNL     1     -35.892  23.408   2.675  0.00  0.00    -0.294 N 
ATOM      4  C   UNL     1     -36.892  22.553   2.234  0.00  0.00    +0.241 C 
ATOM      5  H   UNL     1     -34.990  23.318   2.291  0.00  0.00    +0.150 HD
BRANCH   3   6
ATOM      6  C   UNL     1     -36.119  24.423   3.678  0.00  0.00    +0.201 C 
BRANCH   6   8
ATOM      7  O   UNL     1     -34.549  24.661   5.476  0.00  0.00    -0.248 OA
ATOM      8  C   UNL     1     -35.527  24.076   5.023  0.00  0.00    +0.337 C 
BRANCH   8   9
ATOM      9  O   UNL     1     -36.196  23.063   5.639  0.00  0.00    -0.443 OA
ATOM     10  C   UNL     1     -35.380  22.084   6.289  0.00  0.00    +0.256 C 
ENDBRANCH   8   9
ENDBRANCH   6   8
ENDBRANCH   3   6
ENDBRANCH   1   4
BRANCH   1  11
ATOM     11  N   UNL     1     -34.919  21.464   1.366  0.00  0.00    -0.170 NA
ATOM     12  H   UNL     1     -34.662  22.126   2.097  0.00  0.00    +0.149 HD
BRANCH  11  13
ATOM     13  S   UNL     1     -33.883  21.754   0.050  0.00  0.00    +0.061 S 
ATOM     14  O   UNL     1     -33.204  23.020   0.243  0.00  0.00    -0.153 OA
ATOM     15  O   UNL     1     -34.604  21.492  -1.180  0.00  0.00    -0.153 OA
BRANCH  13  16
ATOM     16  C   UNL     1     -32.692  20.461   0.235  0.00  0.00    +0.122 C 
ATOM     17  C   UNL     1     -31.438  20.579  -0.363  0.00  0.00    +0.020 C 
ATOM     18  C   UNL     1     -33.005  19.324   0.981  0.00  0.00    +0.020 C 
ATOM     19  C   UNL     1     -30.810  18.423   0.529  0.00  0.00    -0.022 C 
ATOM     20  C   UNL     1     -30.496  19.560  -0.215  0.00  0.00    -0.003 C 
ATOM     21  C   UNL     1     -32.064  18.305   1.128  0.00  0.00    -0.003 C 
ATOM     22  C   UNL     1     -29.803  17.333   0.685  0.00  0.00    +0.031 C 
ENDBRANCH  13  16
ENDBRANCH  11  13
ENDBRANCH   1  11
BRANCH   1  23
ATOM     23  C   UNL     1     -37.065  20.203   1.327  0.00  0.00    +0.135 C 
ATOM     24  C   UNL     1     -36.598  19.206   0.273  0.00  0.00    +0.034 C 
BRANCH  23  25
ATOM     25  O   UNL     1     -36.802  19.667   2.624  0.00  0.00    -0.383 OA
ATOM     26  H   UNL     1     -35.893  19.330   2.655  0.00  0.00    +0.210 HD
ENDBRANCH  23  25
ENDBRANCH   1  23
TORSDOF 9
ENDMDL
