MODEL 1
REMARK VINA RESULT:      -6.7      0.000      0.000
REMARK  Name = 5284540
REMARK  9 active torsions:
REMARK  status: ('A' for Active; 'I' for Inactive)
REMARK    1  A    between atoms: C_7  and  O_23
REMARK    2  A    between atoms: C_7  and  C_28
REMARK    3  A    between atoms: C_11  and  O_25
REMARK    4  A    between atoms: C_28  and  C_29
REMARK    5  A    between atoms: C_29  and  O_30
REMARK    6  A    between atoms: O_30  and  C_32
REMARK    7  A    between atoms: C_32  and  C_33
REMARK    8  A    between atoms: C_33  and  C_34
REMARK    9  A    between atoms: C_34  and  C_35
REMARK                            x       y       z     vdW  Elec       q    Type
REMARK                         _______ _______ _______ _____ _____    ______ ____
ROOT
ATOM      1  F   UNL     1     -34.444  19.894   1.657  0.00  0.00    -0.237 F 
ATOM      2  O   UNL     1     -31.109  16.452   0.751  0.00  0.00    -0.287 OA
ATOM      3  C   UNL     1     -36.615  22.573   0.990  0.00  0.00    +0.032 C 
ATOM      4  C   UNL     1     -36.873  21.065   0.786  0.00  0.00    +0.005 C 
ATOM      5  C   UNL     1     -35.863  20.393  -0.156  0.00  0.00    +0.033 C 
ATOM      6  C   UNL     1     -34.421  20.553   0.437  0.00  0.00    +0.164 C 
ATOM      7  C   UNL     1     -37.821  22.912   1.915  0.00  0.00    +0.142 C 
ATOM      8  C   UNL     1     -38.361  20.993   0.442  0.00  0.00    +0.003 C 
ATOM      9  C   UNL     1     -35.215  22.720   1.622  0.00  0.00    +0.035 C 
ATOM     10  C   UNL     1     -39.008  22.137   1.268  0.00  0.00    +0.032 C 
ATOM     11  C   UNL     1     -34.099  22.034   0.801  0.00  0.00    +0.141 C 
ATOM     12  C   UNL     1     -33.337  19.801  -0.430  0.00  0.00    +0.064 C 
ATOM     13  C   UNL     1     -36.222  18.908  -0.355  0.00  0.00    +0.007 C 
ATOM     14  C   UNL     1     -36.707  23.396  -0.325  0.00  0.00    +0.003 C 
ATOM     15  C   UNL     1     -35.182  18.169  -1.191  0.00  0.00    +0.023 C 
ATOM     16  C   UNL     1     -33.808  18.351  -0.600  0.00  0.00    -0.035 C 
ATOM     17  C   UNL     1     -40.047  21.601   2.249  0.00  0.00    +0.003 C 
ATOM     18  C   UNL     1     -33.128  20.402  -1.839  0.00  0.00    +0.011 C 
ATOM     19  C   UNL     1     -31.981  19.859   0.259  0.00  0.00    -0.017 C 
ATOM     20  C   UNL     1     -33.091  17.283  -0.216  0.00  0.00    +0.034 C 
ATOM     21  C   UNL     1     -31.263  18.800   0.645  0.00  0.00    +0.038 C 
ATOM     22  C   UNL     1     -31.766  17.433   0.418  0.00  0.00    +0.195 C 
ENDROOT
BRANCH   7  23
ATOM     23  O   UNL     1     -37.567  22.477   3.246  0.00  0.00    -0.380 OA
ATOM     24  H   UNL     1     -36.800  22.953   3.600  0.00  0.00    +0.211 HD
ENDBRANCH   7  23
BRANCH  11  25
ATOM     25  O   UNL     1     -33.808  22.805  -0.354  0.00  0.00    -0.382 OA
ATOM     26  H   UNL     1     -33.554  22.215  -1.081  0.00  0.00    +0.210 HD
ENDBRANCH  11  25
BRANCH   7  28
ATOM     27  O   UNL     1     -38.641  25.014   1.144  0.00  0.00    -0.290 OA
ATOM     28  C   UNL     1     -38.088  24.383   2.045  0.00  0.00    +0.218 C 
BRANCH  28  29
ATOM     29  C   UNL     1     -37.640  25.035   3.335  0.00  0.00    +0.274 C 
BRANCH  29  30
ATOM     30  O   UNL     1     -36.312  25.500   3.225  0.00  0.00    -0.440 OA
BRANCH  30  32
ATOM     31  O   UNL     1     -35.129  26.992   4.529  0.00  0.00    -0.250 OA
ATOM     32  C   UNL     1     -35.720  25.930   4.389  0.00  0.00    +0.317 C 
BRANCH  32  33
ATOM     33  C   UNL     1     -35.912  24.890   5.470  0.00  0.00    +0.110 C 
BRANCH  33  34
ATOM     34  C   UNL     1     -34.860  23.785   5.395  0.00  0.00    +0.012 C 
BRANCH  34  35
ATOM     35  C   UNL     1     -35.265  22.574   6.235  0.00  0.00    +0.001 C 
ATOM     36  C   UNL     1     -35.075  21.276   5.466  0.00  0.00    +0.000 C 
ENDBRANCH  34  35
ENDBRANCH  33  34
ENDBRANCH  32  33
ENDBRANCH  30  32
ENDBRANCH  29  30
ENDBRANCH  28  29
ENDBRANCH   7  28
TORSDOF 9
ENDMDL
MODEL 2
REMARK VINA RESULT:      -6.6      4.002      6.496
REMARK  Name = 5284540
REMARK  9 active torsions:
REMARK  status: ('A' for Active; 'I' for Inactive)
REMARK    1  A    between atoms: C_7  and  O_23
REMARK    2  A    between atoms: C_7  and  C_28
REMARK    3  A    between atoms: C_11  and  O_25
REMARK    4  A    between atoms: C_28  and  C_29
REMARK    5  A    between atoms: C_29  and  O_30
REMARK    6  A    between atoms: O_30  and  C_32
REMARK    7  A    between atoms: C_32  and  C_33
REMARK    8  A    between atoms: C_33  and  C_34
REMARK    9  A    between atoms: C_34  and  C_35
REMARK                            x       y       z     vdW  Elec       q    Type
REMARK                         _______ _______ _______ _____ _____    ______ ____
ROOT
ATOM      1  F   UNL     1     -38.450  23.346   3.282  0.00  0.00    -0.237 F 
ATOM      2  O   UNL     1     -34.939  20.900   5.623  0.00  0.00    -0.287 OA
ATOM      3  C   UNL     1     -39.869  25.730   1.128  0.00  0.00    +0.032 C 
ATOM      4  C   UNL     1     -39.320  24.331   0.772  0.00  0.00    +0.005 C 
ATOM      5  C   UNL     1     -37.843  24.140   1.149  0.00  0.00    +0.033 C 
ATOM      6  C   UNL     1     -37.677  24.336   2.695  0.00  0.00    +0.164 C 
ATOM      7  C   UNL     1     -41.315  25.582   0.567  0.00  0.00    +0.142 C 
ATOM      8  C   UNL     1     -39.740  24.136  -0.685  0.00  0.00    +0.003 C 
ATOM      9  C   UNL     1     -39.750  25.896   2.658  0.00  0.00    +0.035 C 
ATOM     10  C   UNL     1     -41.107  24.862  -0.799  0.00  0.00    +0.032 C 
ATOM     11  C   UNL     1     -38.315  25.671   3.186  0.00  0.00    +0.141 C 
ATOM     12  C   UNL     1     -36.198  24.058   3.172  0.00  0.00    +0.064 C 
ATOM     13  C   UNL     1     -37.354  22.746   0.709  0.00  0.00    +0.007 C 
ATOM     14  C   UNL     1     -39.131  26.885   0.396  0.00  0.00    +0.003 C 
ATOM     15  C   UNL     1     -35.927  22.465   1.163  0.00  0.00    +0.023 C 
ATOM     16  C   UNL     1     -35.799  22.672   2.650  0.00  0.00    -0.035 C 
ATOM     17  C   UNL     1     -42.220  23.901  -1.205  0.00  0.00    +0.003 C 
ATOM     18  C   UNL     1     -35.163  25.081   2.647  0.00  0.00    +0.011 C 
ATOM     19  C   UNL     1     -36.116  24.117   4.690  0.00  0.00    -0.017 C 
ATOM     20  C   UNL     1     -35.400  21.664   3.441  0.00  0.00    +0.034 C 
ATOM     21  C   UNL     1     -35.721  23.117   5.483  0.00  0.00    +0.038 C 
ATOM     22  C   UNL     1     -35.320  21.821   4.908  0.00  0.00    +0.195 C 
ENDROOT
BRANCH   7  23
ATOM     23  O   UNL     1     -42.119  24.812   1.454  0.00  0.00    -0.380 OA
ATOM     24  H   UNL     1     -42.603  24.140   0.950  0.00  0.00    +0.211 HD
ENDBRANCH   7  23
BRANCH  11  25
ATOM     25  O   UNL     1     -37.503  26.789   2.864  0.00  0.00    -0.382 OA
ATOM     26  H   UNL     1     -37.716  27.096   1.969  0.00  0.00    +0.210 HD
ENDBRANCH  11  25
BRANCH   7  28
ATOM     27  O   UNL     1     -41.928  27.584  -0.574  0.00  0.00    -0.290 OA
ATOM     28  C   UNL     1     -42.047  26.886   0.433  0.00  0.00    +0.218 C 
BRANCH  28  29
ATOM     29  C   UNL     1     -42.927  27.284   1.597  0.00  0.00    +0.274 C 
BRANCH  29  30
ATOM     30  O   UNL     1     -42.257  28.195   2.441  0.00  0.00    -0.440 OA
BRANCH  30  32
ATOM     31  O   UNL     1     -42.037  28.793   4.659  0.00  0.00    -0.250 OA
ATOM     32  C   UNL     1     -42.514  28.080   3.787  0.00  0.00    +0.317 C 
BRANCH  32  33
ATOM     33  C   UNL     1     -43.479  26.940   4.023  0.00  0.00    +0.110 C 
BRANCH  33  34
ATOM     34  C   UNL     1     -44.691  27.377   4.845  0.00  0.00    +0.012 C 
BRANCH  34  35
ATOM     35  C   UNL     1     -45.737  26.266   4.925  0.00  0.00    +0.001 C 
ATOM     36  C   UNL     1     -45.889  25.548   3.593  0.00  0.00    +0.000 C 
ENDBRANCH  34  35
ENDBRANCH  33  34
ENDBRANCH  32  33
ENDBRANCH  30  32
ENDBRANCH  29  30
ENDBRANCH  28  29
ENDBRANCH   7  28
TORSDOF 9
ENDMDL
MODEL 3
REMARK VINA RESULT:      -6.5      6.123     10.844
REMARK  Name = 5284540
REMARK  9 active torsions:
REMARK  status: ('A' for Active; 'I' for Inactive)
REMARK    1  A    between atoms: C_7  and  O_23
REMARK    2  A    between atoms: C_7  and  C_28
REMARK    3  A    between atoms: C_11  and  O_25
REMARK    4  A    between atoms: C_28  and  C_29
REMARK    5  A    between atoms: C_29  and  O_30
REMARK    6  A    between atoms: O_30  and  C_32
REMARK    7  A    between atoms: C_32  and  C_33
REMARK    8  A    between atoms: C_33  and  C_34
REMARK    9  A    between atoms: C_34  and  C_35
REMARK                            x       y       z     vdW  Elec       q    Type
REMARK                         _______ _______ _______ _____ _____    ______ ____
ROOT
ATOM      1  F   UNL     1     -36.101  31.532   2.912  0.00  0.00    -0.237 F 
ATOM      2  O   UNL     1     -39.542  34.851   1.946  0.00  0.00    -0.287 OA
ATOM      3  C   UNL     1     -33.419  29.352   2.285  0.00  0.00    +0.032 C 
ATOM      4  C   UNL     1     -33.365  30.861   2.605  0.00  0.00    +0.005 C 
ATOM      5  C   UNL     1     -34.149  31.727   1.607  0.00  0.00    +0.033 C 
ATOM      6  C   UNL     1     -35.654  31.292   1.621  0.00  0.00    +0.164 C 
ATOM      7  C   UNL     1     -32.500  28.821   3.425  0.00  0.00    +0.142 C 
ATOM      8  C   UNL     1     -31.875  31.137   2.807  0.00  0.00    +0.003 C 
ATOM      9  C   UNL     1     -34.899  28.919   2.351  0.00  0.00    +0.035 C 
ATOM     10  C   UNL     1     -31.320  29.837   3.449  0.00  0.00    +0.032 C 
ATOM     11  C   UNL     1     -35.820  29.754   1.432  0.00  0.00    +0.141 C 
ATOM     12  C   UNL     1     -36.544  32.204   0.689  0.00  0.00    +0.064 C 
ATOM     13  C   UNL     1     -33.998  33.220   1.959  0.00  0.00    +0.007 C 
ATOM     14  C   UNL     1     -32.809  28.994   0.901  0.00  0.00    +0.003 C 
ATOM     15  C   UNL     1     -34.851  34.113   1.066  0.00  0.00    +0.023 C 
ATOM     16  C   UNL     1     -36.289  33.662   1.094  0.00  0.00    -0.035 C 
ATOM     17  C   UNL     1     -30.719  30.105   4.827  0.00  0.00    +0.003 C 
ATOM     18  C   UNL     1     -36.226  32.066  -0.818  0.00  0.00    +0.011 C 
ATOM     19  C   UNL     1     -38.013  31.841   0.846  0.00  0.00    -0.017 C 
ATOM     20  C   UNL     1     -37.253  34.503   1.499  0.00  0.00    +0.034 C 
ATOM     21  C   UNL     1     -38.978  32.673   1.250  0.00  0.00    +0.038 C 
ATOM     22  C   UNL     1     -38.663  34.072   1.591  0.00  0.00    +0.195 C 
ENDROOT
BRANCH   7  23
ATOM     23  O   UNL     1     -33.203  28.794   4.662  0.00  0.00    -0.380 OA
ATOM     24  H   UNL     1     -33.264  27.880   4.980  0.00  0.00    +0.211 HD
ENDBRANCH   7  23
BRANCH  11  25
ATOM     25  O   UNL     1     -35.626  29.369   0.080  0.00  0.00    -0.382 OA
ATOM     26  H   UNL     1     -36.031  30.029  -0.505  0.00  0.00    +0.210 HD
ENDBRANCH  11  25
BRANCH   7  28
ATOM     27  O   UNL     1     -30.857  27.136   3.041  0.00  0.00    -0.290 OA
ATOM     28  C   UNL     1     -32.044  27.404   3.222  0.00  0.00    +0.218 C 
BRANCH  28  29
ATOM     29  C   UNL     1     -33.121  26.342   3.253  0.00  0.00    +0.274 C 
BRANCH  29  30
ATOM     30  O   UNL     1     -33.282  25.832   4.559  0.00  0.00    -0.440 OA
BRANCH  30  32
ATOM     31  O   UNL     1     -35.300  26.805   5.111  0.00  0.00    -0.250 OA
ATOM     32  C   UNL     1     -34.563  25.830   5.057  0.00  0.00    +0.317 C 
BRANCH  32  33
ATOM     33  C   UNL     1     -34.923  24.438   5.527  0.00  0.00    +0.110 C 
BRANCH  33  34
ATOM     34  C   UNL     1     -35.092  23.466   4.360  0.00  0.00    +0.012 C 
BRANCH  34  35
ATOM     35  C   UNL     1     -35.454  22.066   4.852  0.00  0.00    +0.001 C 
ATOM     36  C   UNL     1     -35.233  21.928   6.350  0.00  0.00    +0.000 C 
ENDBRANCH  34  35
ENDBRANCH  33  34
ENDBRANCH  32  33
ENDBRANCH  30  32
ENDBRANCH  29  30
ENDBRANCH  28  29
ENDBRANCH   7  28
TORSDOF 9
ENDMDL
MODEL 4
REMARK VINA RESULT:      -6.3      3.542      7.910
REMARK  Name = 5284540
REMARK  9 active torsions:
REMARK  status: ('A' for Active; 'I' for Inactive)
REMARK    1  A    between atoms: C_7  and  O_23
REMARK    2  A    between atoms: C_7  and  C_28
REMARK    3  A    between atoms: C_11  and  O_25
REMARK    4  A    between atoms: C_28  and  C_29
REMARK    5  A    between atoms: C_29  and  O_30
REMARK    6  A    between atoms: O_30  and  C_32
REMARK    7  A    between atoms: C_32  and  C_33
REMARK    8  A    between atoms: C_33  and  C_34
REMARK    9  A    between atoms: C_34  and  C_35
REMARK                            x       y       z     vdW  Elec       q    Type
REMARK                         _______ _______ _______ _____ _____    ______ ____
ROOT
ATOM      1  F   UNL     1     -36.760  27.168   2.607  0.00  0.00    -0.237 F 
ATOM      2  O   UNL     1     -36.738  32.006   1.983  0.00  0.00    -0.287 OA
ATOM      3  C   UNL     1     -35.631  23.852   2.351  0.00  0.00    +0.032 C 
ATOM      4  C   UNL     1     -35.228  24.918   3.393  0.00  0.00    +0.005 C 
ATOM      5  C   UNL     1     -34.625  26.186   2.770  0.00  0.00    +0.033 C 
ATOM      6  C   UNL     1     -35.677  26.836   1.807  0.00  0.00    +0.164 C 
ATOM      7  C   UNL     1     -36.125  22.733   3.315  0.00  0.00    +0.142 C 
ATOM      8  C   UNL     1     -34.403  24.135   4.414  0.00  0.00    +0.003 C 
ATOM      9  C   UNL     1     -36.704  24.482   1.439  0.00  0.00    +0.035 C 
ATOM     10  C   UNL     1     -35.057  22.728   4.450  0.00  0.00    +0.032 C 
ATOM     11  C   UNL     1     -36.249  25.807   0.785  0.00  0.00    +0.141 C 
ATOM     12  C   UNL     1     -35.163  28.201   1.202  0.00  0.00    +0.064 C 
ATOM     13  C   UNL     1     -34.195  27.172   3.873  0.00  0.00    +0.007 C 
ATOM     14  C   UNL     1     -34.433  23.335   1.506  0.00  0.00    +0.003 C 
ATOM     15  C   UNL     1     -33.696  28.495   3.302  0.00  0.00    +0.023 C 
ATOM     16  C   UNL     1     -34.725  29.088   2.374  0.00  0.00    -0.035 C 
ATOM     17  C   UNL     1     -35.587  22.390   5.840  0.00  0.00    +0.003 C 
ATOM     18  C   UNL     1     -33.959  28.052   0.243  0.00  0.00    +0.011 C 
ATOM     19  C   UNL     1     -36.267  28.866   0.394  0.00  0.00    -0.017 C 
ATOM     20  C   UNL     1     -35.236  30.304   2.621  0.00  0.00    +0.034 C 
ATOM     21  C   UNL     1     -36.781  30.076   0.634  0.00  0.00    +0.038 C 
ATOM     22  C   UNL     1     -36.287  30.886   1.762  0.00  0.00    +0.195 C 
ENDROOT
BRANCH   7  23
ATOM     23  O   UNL     1     -37.423  23.038   3.811  0.00  0.00    -0.380 OA
ATOM     24  H   UNL     1     -37.670  22.390   4.489  0.00  0.00    +0.211 HD
ENDBRANCH   7  23
BRANCH  11  25
ATOM     25  O   UNL     1     -35.325  25.537  -0.258  0.00  0.00    -0.382 OA
ATOM     26  H   UNL     1     -35.125  26.358  -0.733  0.00  0.00    +0.210 HD
ENDBRANCH  11  25
BRANCH   7  28
ATOM     27  O   UNL     1     -35.568  20.440   2.971  0.00  0.00    -0.290 OA
ATOM     28  C   UNL     1     -36.279  21.393   2.655  0.00  0.00    +0.218 C 
BRANCH  28  29
ATOM     29  C   UNL     1     -37.350  21.289   1.590  0.00  0.00    +0.274 C 
BRANCH  29  30
ATOM     30  O   UNL     1     -38.634  21.265   2.174  0.00  0.00    -0.440 OA
BRANCH  30  32
ATOM     31  O   UNL     1     -40.621  20.876   1.068  0.00  0.00    -0.250 OA
ATOM     32  C   UNL     1     -39.683  21.606   1.353  0.00  0.00    +0.317 C 
BRANCH  32  33
ATOM     33  C   UNL     1     -39.499  23.023   0.858  0.00  0.00    +0.110 C 
BRANCH  33  34
ATOM     34  C   UNL     1     -40.742  23.879   1.095  0.00  0.00    +0.012 C 
BRANCH  34  35
ATOM     35  C   UNL     1     -40.371  25.267   1.615  0.00  0.00    +0.001 C 
ATOM     36  C   UNL     1     -40.015  25.229   3.093  0.00  0.00    +0.000 C 
ENDBRANCH  34  35
ENDBRANCH  33  34
ENDBRANCH  32  33
ENDBRANCH  30  32
ENDBRANCH  29  30
ENDBRANCH  28  29
ENDBRANCH   7  28
TORSDOF 9
ENDMDL
MODEL 5
REMARK VINA RESULT:      -6.3      3.603      8.045
REMARK  Name = 5284540
REMARK  9 active torsions:
REMARK  status: ('A' for Active; 'I' for Inactive)
REMARK    1  A    between atoms: C_7  and  O_23
REMARK    2  A    between atoms: C_7  and  C_28
REMARK    3  A    between atoms: C_11  and  O_25
REMARK    4  A    between atoms: C_28  and  C_29
REMARK    5  A    between atoms: C_29  and  O_30
REMARK    6  A    between atoms: O_30  and  C_32
REMARK    7  A    between atoms: C_32  and  C_33
REMARK    8  A    between atoms: C_33  and  C_34
REMARK    9  A    between atoms: C_34  and  C_35
REMARK                            x       y       z     vdW  Elec       q    Type
REMARK                         _______ _______ _______ _____ _____    ______ ____
ROOT
ATOM      1  F   UNL     1     -35.508  28.112   3.126  0.00  0.00    -0.237 F 
ATOM      2  O   UNL     1     -34.040  32.730   2.567  0.00  0.00    -0.287 OA
ATOM      3  C   UNL     1     -35.534  24.631   2.665  0.00  0.00    +0.032 C 
ATOM      4  C   UNL     1     -34.676  25.455   3.650  0.00  0.00    +0.005 C 
ATOM      5  C   UNL     1     -33.793  26.506   2.960  0.00  0.00    +0.033 C 
ATOM      6  C   UNL     1     -34.706  27.507   2.171  0.00  0.00    +0.164 C 
ATOM      7  C   UNL     1     -36.221  23.666   3.677  0.00  0.00    +0.142 C 
ATOM      8  C   UNL     1     -34.010  24.395   4.527  0.00  0.00    +0.003 C 
ATOM      9  C   UNL     1     -36.466  25.616   1.929  0.00  0.00    +0.035 C 
ATOM     10  C   UNL     1     -35.065  23.262   4.641  0.00  0.00    +0.032 C 
ATOM     11  C   UNL     1     -35.708  26.769   1.233  0.00  0.00    +0.141 C 
ATOM     12  C   UNL     1     -33.874  28.676   1.514  0.00  0.00    +0.064 C 
ATOM     13  C   UNL     1     -32.927  27.243   3.999  0.00  0.00    +0.007 C 
ATOM     14  C   UNL     1     -34.689  23.817   1.645  0.00  0.00    +0.003 C 
ATOM     15  C   UNL     1     -32.117  28.375   3.377  0.00  0.00    +0.023 C 
ATOM     16  C   UNL     1     -33.022  29.312   2.619  0.00  0.00    -0.035 C 
ATOM     17  C   UNL     1     -35.479  23.026   6.091  0.00  0.00    +0.003 C 
ATOM     18  C   UNL     1     -32.922  28.216   0.385  0.00  0.00    +0.011 C 
ATOM     19  C   UNL     1     -34.810  29.699   0.886  0.00  0.00    -0.017 C 
ATOM     20  C   UNL     1     -33.083  30.611   2.954  0.00  0.00    +0.034 C 
ATOM     21  C   UNL     1     -34.876  30.992   1.215  0.00  0.00    +0.038 C 
ATOM     22  C   UNL     1     -34.002  31.541   2.267  0.00  0.00    +0.195 C 
ENDROOT
BRANCH   7  23
ATOM     23  O   UNL     1     -37.275  24.331   4.364  0.00  0.00    -0.380 OA
ATOM     24  H   UNL     1     -37.902  24.694   3.718  0.00  0.00    +0.211 HD
ENDBRANCH   7  23
BRANCH  11  25
ATOM     25  O   UNL     1     -35.070  26.286   0.061  0.00  0.00    -0.382 OA
ATOM     26  H   UNL     1     -35.124  25.317   0.040  0.00  0.00    +0.210 HD
ENDBRANCH  11  25
BRANCH   7  28
ATOM     27  O   UNL     1     -38.004  22.569   2.536  0.00  0.00    -0.290 OA
ATOM     28  C   UNL     1     -36.880  22.483   3.031  0.00  0.00    +0.218 C 
BRANCH  28  29
ATOM     29  C   UNL     1     -36.089  21.193   3.027  0.00  0.00    +0.274 C 
BRANCH  29  30
ATOM     30  O   UNL     1     -36.595  20.300   2.058  0.00  0.00    -0.440 OA
BRANCH  30  32
ATOM     31  O   UNL     1     -35.975  19.358   0.045  0.00  0.00    -0.250 OA
ATOM     32  C   UNL     1     -35.690  19.820   1.141  0.00  0.00    +0.317 C 
BRANCH  32  33
ATOM     33  C   UNL     1     -34.289  19.952   1.695  0.00  0.00    +0.110 C 
BRANCH  33  34
ATOM     34  C   UNL     1     -33.280  20.335   0.614  0.00  0.00    +0.012 C 
BRANCH  34  35
ATOM     35  C   UNL     1     -32.128  19.333   0.548  0.00  0.00    +0.001 C 
ATOM     36  C   UNL     1     -32.407  18.109   1.405  0.00  0.00    +0.000 C 
ENDBRANCH  34  35
ENDBRANCH  33  34
ENDBRANCH  32  33
ENDBRANCH  30  32
ENDBRANCH  29  30
ENDBRANCH  28  29
ENDBRANCH   7  28
TORSDOF 9
ENDMDL
MODEL 6
REMARK VINA RESULT:      -6.2      2.094      3.391
REMARK  Name = 5284540
REMARK  9 active torsions:
REMARK  status: ('A' for Active; 'I' for Inactive)
REMARK    1  A    between atoms: C_7  and  O_23
REMARK    2  A    between atoms: C_7  and  C_28
REMARK    3  A    between atoms: C_11  and  O_25
REMARK    4  A    between atoms: C_28  and  C_29
REMARK    5  A    between atoms: C_29  and  O_30
REMARK    6  A    between atoms: O_30  and  C_32
REMARK    7  A    between atoms: C_32  and  C_33
REMARK    8  A    between atoms: C_33  and  C_34
REMARK    9  A    between atoms: C_34  and  C_35
REMARK                            x       y       z     vdW  Elec       q    Type
REMARK                         _______ _______ _______ _____ _____    ______ ____
ROOT
ATOM      1  F   UNL     1     -34.080  16.720   0.453  0.00  0.00    -0.237 F 
ATOM      2  O   UNL     1     -31.881  12.763  -1.362  0.00  0.00    -0.287 OA
ATOM      3  C   UNL     1     -34.765  20.133   0.918  0.00  0.00    +0.032 C 
ATOM      4  C   UNL     1     -35.310  19.193  -0.179  0.00  0.00    +0.005 C 
ATOM      5  C   UNL     1     -34.208  18.545  -1.031  0.00  0.00    +0.033 C 
ATOM      6  C   UNL     1     -33.271  17.699  -0.102  0.00  0.00    +0.164 C 
ATOM      7  C   UNL     1     -36.116  20.633   1.512  0.00  0.00    +0.142 C 
ATOM      8  C   UNL     1     -36.382  20.030  -0.876  0.00  0.00    +0.003 C 
ATOM      9  C   UNL     1     -33.885  19.283   1.858  0.00  0.00    +0.035 C 
ATOM     10  C   UNL     1     -36.994  20.902   0.253  0.00  0.00    +0.032 C 
ATOM     11  C   UNL     1     -32.761  18.522   1.120  0.00  0.00    +0.141 C 
ATOM     12  C   UNL     1     -32.168  16.921  -0.922  0.00  0.00    +0.064 C 
ATOM     13  C   UNL     1     -34.830  17.672  -2.138  0.00  0.00    +0.007 C 
ATOM     14  C   UNL     1     -33.956  21.334   0.354  0.00  0.00    +0.003 C 
ATOM     15  C   UNL     1     -33.776  16.915  -2.938  0.00  0.00    +0.023 C 
ATOM     16  C   UNL     1     -32.887  16.121  -2.016  0.00  0.00    -0.035 C 
ATOM     17  C   UNL     1     -38.485  20.627   0.429  0.00  0.00    +0.003 C 
ATOM     18  C   UNL     1     -31.129  17.838  -1.609  0.00  0.00    +0.011 C 
ATOM     19  C   UNL     1     -31.378  16.003  -0.001  0.00  0.00    -0.017 C 
ATOM     20  C   UNL     1     -32.794  14.789  -2.149  0.00  0.00    +0.034 C 
ATOM     21  C   UNL     1     -31.282  14.677  -0.127  0.00  0.00    +0.038 C 
ATOM     22  C   UNL     1     -31.975  13.978  -1.224  0.00  0.00    +0.195 C 
ENDROOT
BRANCH   7  23
ATOM     23  O   UNL     1     -36.688  19.641   2.356  0.00  0.00    -0.380 OA
ATOM     24  H   UNL     1     -36.839  20.015   3.238  0.00  0.00    +0.211 HD
ENDBRANCH   7  23
BRANCH  11  25
ATOM     25  O   UNL     1     -31.731  19.425   0.749  0.00  0.00    -0.382 OA
ATOM     26  H   UNL     1     -31.648  19.441  -0.217  0.00  0.00    +0.210 HD
ENDBRANCH  11  25
BRANCH   7  28
ATOM     27  O   UNL     1     -36.157  22.976   1.954  0.00  0.00    -0.290 OA
ATOM     28  C   UNL     1     -35.977  21.841   2.393  0.00  0.00    +0.218 C 
BRANCH  28  29
ATOM     29  C   UNL     1     -35.605  21.579   3.837  0.00  0.00    +0.274 C 
BRANCH  29  30
ATOM     30  O   UNL     1     -36.248  22.500   4.692  0.00  0.00    -0.440 OA
BRANCH  30  32
ATOM     31  O   UNL     1     -35.272  22.125   6.750  0.00  0.00    -0.250 OA
ATOM     32  C   UNL     1     -35.553  22.869   5.820  0.00  0.00    +0.317 C 
BRANCH  32  33
ATOM     33  C   UNL     1     -35.188  24.334   5.734  0.00  0.00    +0.110 C 
BRANCH  33  34
ATOM     34  C   UNL     1     -36.198  25.128   4.907  0.00  0.00    +0.012 C 
BRANCH  34  35
ATOM     35  C   UNL     1     -35.503  25.958   3.829  0.00  0.00    +0.001 C 
ATOM     36  C   UNL     1     -34.097  25.449   3.556  0.00  0.00    +0.000 C 
ENDBRANCH  34  35
ENDBRANCH  33  34
ENDBRANCH  32  33
ENDBRANCH  30  32
ENDBRANCH  29  30
ENDBRANCH  28  29
ENDBRANCH   7  28
TORSDOF 9
ENDMDL
MODEL 7
REMARK VINA RESULT:      -6.1      2.133      3.273
REMARK  Name = 5284540
REMARK  9 active torsions:
REMARK  status: ('A' for Active; 'I' for Inactive)
REMARK    1  A    between atoms: C_7  and  O_23
REMARK    2  A    between atoms: C_7  and  C_28
REMARK    3  A    between atoms: C_11  and  O_25
REMARK    4  A    between atoms: C_28  and  C_29
REMARK    5  A    between atoms: C_29  and  O_30
REMARK    6  A    between atoms: O_30  and  C_32
REMARK    7  A    between atoms: C_32  and  C_33
REMARK    8  A    between atoms: C_33  and  C_34
REMARK    9  A    between atoms: C_34  and  C_35
REMARK                            x       y       z     vdW  Elec       q    Type
REMARK                         _______ _______ _______ _____ _____    ______ ____
ROOT
ATOM      1  F   UNL     1     -32.898  21.681   0.371  0.00  0.00    -0.237 F 
ATOM      2  O   UNL     1     -30.329  19.040  -2.826  0.00  0.00    -0.287 OA
ATOM      3  C   UNL     1     -35.732  22.872   2.070  0.00  0.00    +0.032 C 
ATOM      4  C   UNL     1     -34.903  21.604   2.371  0.00  0.00    +0.005 C 
ATOM      5  C   UNL     1     -34.836  20.623   1.191  0.00  0.00    +0.033 C 
ATOM      6  C   UNL     1     -34.179  21.340  -0.037  0.00  0.00    +0.164 C 
ATOM      7  C   UNL     1     -35.631  23.572   3.458  0.00  0.00    +0.142 C 
ATOM      8  C   UNL     1     -35.462  21.112   3.707  0.00  0.00    +0.003 C 
ATOM      9  C   UNL     1     -35.049  23.600   0.893  0.00  0.00    +0.035 C 
ATOM     10  C   UNL     1     -35.841  22.408   4.473  0.00  0.00    +0.032 C 
ATOM     11  C   UNL     1     -34.863  22.705  -0.353  0.00  0.00    +0.141 C 
ATOM     12  C   UNL     1     -33.987  20.362  -1.262  0.00  0.00    +0.064 C 
ATOM     13  C   UNL     1     -34.046  19.361   1.588  0.00  0.00    +0.007 C 
ATOM     14  C   UNL     1     -37.219  22.570   1.734  0.00  0.00    +0.003 C 
ATOM     15  C   UNL     1     -33.853  18.407   0.414  0.00  0.00    +0.023 C 
ATOM     16  C   UNL     1     -33.229  19.130  -0.752  0.00  0.00    -0.035 C 
ATOM     17  C   UNL     1     -35.062  22.536   5.779  0.00  0.00    +0.003 C 
ATOM     18  C   UNL     1     -35.311  19.878  -1.896  0.00  0.00    +0.011 C 
ATOM     19  C   UNL     1     -33.215  21.058  -2.374  0.00  0.00    -0.017 C 
ATOM     20  C   UNL     1     -32.056  18.714  -1.255  0.00  0.00    +0.034 C 
ATOM     21  C   UNL     1     -32.047  20.650  -2.878  0.00  0.00    +0.038 C 
ATOM     22  C   UNL     1     -31.393  19.436  -2.360  0.00  0.00    +0.195 C 
ENDROOT
BRANCH   7  23
ATOM     23  O   UNL     1     -34.359  24.189   3.615  0.00  0.00    -0.380 OA
ATOM     24  H   UNL     1     -33.770  23.902   2.900  0.00  0.00    +0.211 HD
ENDBRANCH   7  23
BRANCH  11  25
ATOM     25  O   UNL     1     -36.109  22.527  -1.008  0.00  0.00    -0.382 OA
ATOM     26  H   UNL     1     -36.685  21.970  -0.460  0.00  0.00    +0.210 HD
ENDBRANCH  11  25
BRANCH   7  28
ATOM     27  O   UNL     1     -37.743  24.481   4.092  0.00  0.00    -0.290 OA
ATOM     28  C   UNL     1     -36.617  24.690   3.642  0.00  0.00    +0.218 C 
BRANCH  28  29
ATOM     29  C   UNL     1     -36.145  26.072   3.246  0.00  0.00    +0.274 C 
BRANCH  29  30
ATOM     30  O   UNL     1     -35.507  26.712   4.330  0.00  0.00    -0.440 OA
BRANCH  30  32
ATOM     31  O   UNL     1     -34.702  28.612   3.297  0.00  0.00    -0.250 OA
ATOM     32  C   UNL     1     -34.536  27.630   4.008  0.00  0.00    +0.317 C 
BRANCH  32  33
ATOM     33  C   UNL     1     -33.232  27.242   4.668  0.00  0.00    +0.110 C 
BRANCH  33  34
ATOM     34  C   UNL     1     -33.451  26.620   6.046  0.00  0.00    +0.012 C 
BRANCH  34  35
ATOM     35  C   UNL     1     -32.576  27.291   7.104  0.00  0.00    +0.001 C 
ATOM     36  C   UNL     1     -31.900  28.538   6.558  0.00  0.00    +0.000 C 
ENDBRANCH  34  35
ENDBRANCH  33  34
ENDBRANCH  32  33
ENDBRANCH  30  32
ENDBRANCH  29  30
ENDBRANCH  28  29
ENDBRANCH   7  28
TORSDOF 9
ENDMDL
MODEL 8
REMARK VINA RESULT:      -6.0      1.937      3.415
REMARK  Name = 5284540
REMARK  9 active torsions:
REMARK  status: ('A' for Active; 'I' for Inactive)
REMARK    1  A    between atoms: C_7  and  O_23
REMARK    2  A    between atoms: C_7  and  C_28
REMARK    3  A    between atoms: C_11  and  O_25
REMARK    4  A    between atoms: C_28  and  C_29
REMARK    5  A    between atoms: C_29  and  O_30
REMARK    6  A    between atoms: O_30  and  C_32
REMARK    7  A    between atoms: C_32  and  C_33
REMARK    8  A    between atoms: C_33  and  C_34
REMARK    9  A    between atoms: C_34  and  C_35
REMARK                            x       y       z     vdW  Elec       q    Type
REMARK                         _______ _______ _______ _____ _____    ______ ____
ROOT
ATOM      1  F   UNL     1     -34.904  20.323  -1.162  0.00  0.00    -0.237 F 
ATOM      2  O   UNL     1     -32.458  16.697  -3.321  0.00  0.00    -0.287 OA
ATOM      3  C   UNL     1     -35.911  22.478   1.422  0.00  0.00    +0.032 C 
ATOM      4  C   UNL     1     -34.686  22.613   0.492  0.00  0.00    +0.005 C 
ATOM      5  C   UNL     1     -33.728  21.414   0.563  0.00  0.00    +0.033 C 
ATOM      6  C   UNL     1     -34.500  20.115   0.148  0.00  0.00    +0.164 C 
ATOM      7  C   UNL     1     -36.594  23.849   1.138  0.00  0.00    +0.142 C 
ATOM      8  C   UNL     1     -34.144  24.008   0.804  0.00  0.00    +0.003 C 
ATOM      9  C   UNL     1     -36.694  21.226   0.974  0.00  0.00    +0.035 C 
ATOM     10  C   UNL     1     -35.406  24.856   1.122  0.00  0.00    +0.032 C 
ATOM     11  C   UNL     1     -35.829  19.945   0.943  0.00  0.00    +0.141 C 
ATOM     12  C   UNL     1     -33.552  18.852   0.103  0.00  0.00    +0.064 C 
ATOM     13  C   UNL     1     -32.506  21.651  -0.345  0.00  0.00    +0.007 C 
ATOM     14  C   UNL     1     -35.533  22.375   2.926  0.00  0.00    +0.003 C 
ATOM     15  C   UNL     1     -31.583  20.439  -0.397  0.00  0.00    +0.023 C 
ATOM     16  C   UNL     1     -32.356  19.206  -0.788  0.00  0.00    -0.035 C 
ATOM     17  C   UNL     1     -35.555  26.024   0.153  0.00  0.00    +0.003 C 
ATOM     18  C   UNL     1     -33.006  18.424   1.486  0.00  0.00    +0.011 C 
ATOM     19  C   UNL     1     -34.307  17.649  -0.443  0.00  0.00    -0.017 C 
ATOM     20  C   UNL     1     -32.013  18.514  -1.886  0.00  0.00    +0.034 C 
ATOM     21  C   UNL     1     -33.971  16.956  -1.535  0.00  0.00    +0.038 C 
ATOM     22  C   UNL     1     -32.787  17.335  -2.327  0.00  0.00    +0.195 C 
ENDROOT
BRANCH   7  23
ATOM     23  O   UNL     1     -37.278  23.816  -0.110  0.00  0.00    -0.380 OA
ATOM     24  H   UNL     1     -37.651  22.932  -0.251  0.00  0.00    +0.211 HD
ENDBRANCH   7  23
BRANCH  11  25
ATOM     25  O   UNL     1     -35.593  19.491   2.267  0.00  0.00    -0.382 OA
ATOM     26  H   UNL     1     -35.880  18.568   2.348  0.00  0.00    +0.210 HD
ENDBRANCH  11  25
BRANCH   7  28
ATOM     27  O   UNL     1     -38.738  23.632   2.160  0.00  0.00    -0.290 OA
ATOM     28  C   UNL     1     -37.654  24.214   2.137  0.00  0.00    +0.218 C 
BRANCH  28  29
ATOM     29  C   UNL     1     -37.310  25.327   3.103  0.00  0.00    +0.274 C 
BRANCH  29  30
ATOM     30  O   UNL     1     -37.436  24.887   4.438  0.00  0.00    -0.440 OA
BRANCH  30  32
ATOM     31  O   UNL     1     -35.980  23.831   5.883  0.00  0.00    -0.250 OA
ATOM     32  C   UNL     1     -36.267  24.768   5.152  0.00  0.00    +0.317 C 
BRANCH  32  33
ATOM     33  C   UNL     1     -35.390  25.972   4.892  0.00  0.00    +0.110 C 
BRANCH  33  34
ATOM     34  C   UNL     1     -33.961  25.572   4.526  0.00  0.00    +0.012 C 
BRANCH  34  35
ATOM     35  C   UNL     1     -33.303  26.620   3.629  0.00  0.00    +0.001 C 
ATOM     36  C   UNL     1     -34.281  27.721   3.252  0.00  0.00    +0.000 C 
ENDBRANCH  34  35
ENDBRANCH  33  34
ENDBRANCH  32  33
ENDBRANCH  30  32
ENDBRANCH  29  30
ENDBRANCH  28  29
ENDBRANCH   7  28
TORSDOF 9
ENDMDL
MODEL 9
REMARK VINA RESULT:      -5.9      2.034      7.180
REMARK  Name = 5284540
REMARK  9 active torsions:
REMARK  status: ('A' for Active; 'I' for Inactive)
REMARK    1  A    between atoms: C_7  and  O_23
REMARK    2  A    between atoms: C_7  and  C_28
REMARK    3  A    between atoms: C_11  and  O_25
REMARK    4  A    between atoms: C_28  and  C_29
REMARK    5  A    between atoms: C_29  and  O_30
REMARK    6  A    between atoms: O_30  and  C_32
REMARK    7  A    between atoms: C_32  and  C_33
REMARK    8  A    between atoms: C_33  and  C_34
REMARK    9  A    between atoms: C_34  and  C_35
REMARK                            x       y       z     vdW  Elec       q    Type
REMARK                         _______ _______ _______ _____ _____    ______ ____
ROOT
ATOM      1  F   UNL     1     -34.355  23.849   2.364  0.00  0.00    -0.237 F 
ATOM      2  O   UNL     1     -33.225  27.319   5.601  0.00  0.00    -0.287 OA
ATOM      3  C   UNL     1     -36.400  21.785   0.391  0.00  0.00    +0.032 C 
ATOM      4  C   UNL     1     -35.908  23.216   0.080  0.00  0.00    +0.005 C 
ATOM      5  C   UNL     1     -36.326  24.249   1.138  0.00  0.00    +0.033 C 
ATOM      6  C   UNL     1     -35.731  23.832   2.527  0.00  0.00    +0.164 C 
ATOM      7  C   UNL     1     -35.863  21.055  -0.876  0.00  0.00    +0.142 C 
ATOM      8  C   UNL     1     -36.328  23.438  -1.373  0.00  0.00    +0.003 C 
ATOM      9  C   UNL     1     -35.770  21.362   1.734  0.00  0.00    +0.035 C 
ATOM     10  C   UNL     1     -36.194  22.041  -2.036  0.00  0.00    +0.032 C 
ATOM     11  C   UNL     1     -36.063  22.352   2.885  0.00  0.00    +0.141 C 
ATOM     12  C   UNL     1     -36.038  24.902   3.647  0.00  0.00    +0.064 C 
ATOM     13  C   UNL     1     -35.850  25.657   0.728  0.00  0.00    +0.007 C 
ATOM     14  C   UNL     1     -37.948  21.668   0.455  0.00  0.00    +0.003 C 
ATOM     15  C   UNL     1     -36.140  26.699   1.802  0.00  0.00    +0.023 C 
ATOM     16  C   UNL     1     -35.565  26.264   3.125  0.00  0.00    -0.035 C 
ATOM     17  C   UNL     1     -35.187  22.059  -3.183  0.00  0.00    +0.003 C 
ATOM     18  C   UNL     1     -37.537  25.025   4.009  0.00  0.00    +0.011 C 
ATOM     19  C   UNL     1     -35.321  24.531   4.938  0.00  0.00    -0.017 C 
ATOM     20  C   UNL     1     -34.661  27.032   3.753  0.00  0.00    +0.034 C 
ATOM     21  C   UNL     1     -34.420  25.289   5.568  0.00  0.00    +0.038 C 
ATOM     22  C   UNL     1     -34.038  26.604   5.023  0.00  0.00    +0.195 C 
ENDROOT
BRANCH   7  23
ATOM     23  O   UNL     1     -34.464  20.821  -0.762  0.00  0.00    -0.380 OA
ATOM     24  H   UNL     1     -34.235  20.001  -1.226  0.00  0.00    +0.211 HD
ENDBRANCH   7  23
BRANCH  11  25
ATOM     25  O   UNL     1     -37.408  22.206   3.313  0.00  0.00    -0.382 OA
ATOM     26  H   UNL     1     -37.875  21.605   2.712  0.00  0.00    +0.210 HD
ENDBRANCH  11  25
BRANCH   7  28
ATOM     27  O   UNL     1     -37.335  19.499  -1.923  0.00  0.00    -0.290 OA
ATOM     28  C   UNL     1     -36.456  19.692  -1.084  0.00  0.00    +0.218 C 
BRANCH  28  29
ATOM     29  C   UNL     1     -35.914  18.583  -0.207  0.00  0.00    +0.274 C 
BRANCH  29  30
ATOM     30  O   UNL     1     -34.677  18.117  -0.701  0.00  0.00    -0.440 OA
BRANCH  30  32
ATOM     31  O   UNL     1     -33.795  16.155   0.134  0.00  0.00    -0.250 OA
ATOM     32  C   UNL     1     -33.917  17.372   0.169  0.00  0.00    +0.317 C 
BRANCH  32  33
ATOM     33  C   UNL     1     -33.252  18.286   1.173  0.00  0.00    +0.110 C 
BRANCH  33  34
ATOM     34  C   UNL     1     -31.740  18.075   1.227  0.00  0.00    +0.012 C 
BRANCH  34  35
ATOM     35  C   UNL     1     -31.063  18.570  -0.050  0.00  0.00    +0.001 C 
ATOM     36  C   UNL     1     -31.153  20.083  -0.175  0.00  0.00    +0.000 C 
ENDBRANCH  34  35
ENDBRANCH  33  34
ENDBRANCH  32  33
ENDBRANCH  30  32
ENDBRANCH  29  30
ENDBRANCH  28  29
ENDBRANCH   7  28
TORSDOF 9
ENDMDL
