MODEL 1
REMARK VINA RESULT:      -6.8      0.000      0.000
REMARK  Name = 194157
REMARK  9 active torsions:
REMARK  status: ('A' for Active; 'I' for Inactive)
REMARK    1  A    between atoms: C_6  and  C_28
REMARK    2  A    between atoms: C_7  and  O_20
REMARK    3  A    between atoms: C_10  and  O_22
REMARK    4  A    between atoms: C_13  and  O_24
REMARK    5  A    between atoms: C_19  and  O_26
REMARK    6  A    between atoms: C_28  and  C_30
REMARK    7  A    between atoms: C_30  and  C_31
REMARK    8  A    between atoms: C_31  and  C_33
REMARK    9  A    between atoms: C_33  and  O_34
REMARK                            x       y       z     vdW  Elec       q    Type
REMARK                         _______ _______ _______ _____ _____    ______ ____
ROOT
ATOM      1  C   UNL     1     -33.831  26.180   3.573  0.00  0.00    +0.025 C 
ATOM      2  C   UNL     1     -34.201  24.759   4.069  0.00  0.00    +0.005 C 
ATOM      3  C   UNL     1     -35.063  23.974   3.058  0.00  0.00    +0.029 C 
ATOM      4  C   UNL     1     -34.263  23.851   1.717  0.00  0.00    +0.005 C 
ATOM      5  C   UNL     1     -35.039  23.012   0.632  0.00  0.00    +0.003 C 
ATOM      6  C   UNL     1     -33.041  26.675   4.813  0.00  0.00    +0.002 C 
ATOM      7  C   UNL     1     -33.022  26.072   2.263  0.00  0.00    +0.110 C 
ATOM      8  C   UNL     1     -35.398  21.610   1.226  0.00  0.00    +0.032 C 
ATOM      9  C   UNL     1     -33.766  25.233   1.205  0.00  0.00    +0.029 C 
ATOM     10  C   UNL     1     -35.481  22.589   3.595  0.00  0.00    +0.137 C 
ATOM     11  C   UNL     1     -34.727  25.007   5.484  0.00  0.00    +0.000 C 
ATOM     12  C   UNL     1     -33.887  26.185   6.008  0.00  0.00    +0.000 C 
ATOM     13  C   UNL     1     -36.192  21.736   2.541  0.00  0.00    +0.137 C 
ATOM     14  C   UNL     1     -34.204  22.794  -0.664  0.00  0.00    +0.003 C 
ATOM     15  C   UNL     1     -35.071  27.080   3.314  0.00  0.00    +0.002 C 
ATOM     16  C   UNL     1     -34.156  20.703   1.395  0.00  0.00    +0.032 C 
ATOM     17  C   UNL     1     -36.336  23.737   0.189  0.00  0.00    +0.000 C 
ATOM     18  C   UNL     1     -32.969  21.926  -0.463  0.00  0.00    +0.029 C 
ATOM     19  C   UNL     1     -33.349  20.566   0.107  0.00  0.00    +0.111 C 
ENDROOT
BRANCH   7  20
ATOM     20  O   UNL     1     -31.724  25.519   2.478  0.00  0.00    -0.384 OA
ATOM     21  H   UNL     1     -31.379  25.824   3.331  0.00  0.00    +0.210 HD
ENDBRANCH   7  20
BRANCH  10  22
ATOM     22  O   UNL     1     -36.379  22.744   4.698  0.00  0.00    -0.382 OA
ATOM     23  H   UNL     1     -36.598  23.682   4.808  0.00  0.00    +0.210 HD
ENDBRANCH  10  22
BRANCH  13  24
ATOM     24  O   UNL     1     -36.435  20.442   3.097  0.00  0.00    -0.382 OA
ATOM     25  H   UNL     1     -36.535  19.795   2.381  0.00  0.00    +0.210 HD
ENDBRANCH  13  24
BRANCH  19  26
ATOM     26  O   UNL     1     -32.170  19.818   0.387  0.00  0.00    -0.384 OA
ATOM     27  H   UNL     1     -32.137  19.038  -0.190  0.00  0.00    +0.210 HD
ENDBRANCH  19  26
BRANCH   6  28
ATOM     28  C   UNL     1     -32.738  28.165   4.873  0.00  0.00    +0.001 C 
ATOM     29  C   UNL     1     -31.789  28.555   3.735  0.00  0.00    +0.000 C 
BRANCH  28  30
ATOM     30  C   UNL     1     -32.165  28.536   6.256  0.00  0.00    +0.012 C 
BRANCH  30  31
ATOM     31  C   UNL     1     -31.010  29.538   6.197  0.00  0.00    +0.109 C 
BRANCH  31  33
ATOM     32  O   UNL     1     -28.805  29.618   7.227  0.00  0.00    -0.250 OA
ATOM     33  C   UNL     1     -29.735  28.966   6.775  0.00  0.00    +0.314 C 
BRANCH  33  34
ATOM     34  O   UNL     1     -29.735  27.608   6.729  0.00  0.00    -0.480 OA
ATOM     35  H   UNL     1     -29.551  27.112   7.502  0.00  0.00    +0.295 HD
ENDBRANCH  33  34
ENDBRANCH  31  33
ENDBRANCH  30  31
ENDBRANCH  28  30
ENDBRANCH   6  28
TORSDOF 9
ENDMDL
MODEL 2
REMARK VINA RESULT:      -6.8      3.156      5.264
REMARK  Name = 194157
REMARK  9 active torsions:
REMARK  status: ('A' for Active; 'I' for Inactive)
REMARK    1  A    between atoms: C_6  and  C_28
REMARK    2  A    between atoms: C_7  and  O_20
REMARK    3  A    between atoms: C_10  and  O_22
REMARK    4  A    between atoms: C_13  and  O_24
REMARK    5  A    between atoms: C_19  and  O_26
REMARK    6  A    between atoms: C_28  and  C_30
REMARK    7  A    between atoms: C_30  and  C_31
REMARK    8  A    between atoms: C_31  and  C_33
REMARK    9  A    between atoms: C_33  and  O_34
REMARK                            x       y       z     vdW  Elec       q    Type
REMARK                         _______ _______ _______ _____ _____    ______ ____
ROOT
ATOM      1  C   UNL     1     -35.878  22.656   2.646  0.00  0.00    +0.025 C 
ATOM      2  C   UNL     1     -37.221  22.752   1.877  0.00  0.00    +0.005 C 
ATOM      3  C   UNL     1     -37.091  22.367   0.388  0.00  0.00    +0.029 C 
ATOM      4  C   UNL     1     -36.561  20.896   0.302  0.00  0.00    +0.005 C 
ATOM      5  C   UNL     1     -36.447  20.387  -1.185  0.00  0.00    +0.003 C 
ATOM      6  C   UNL     1     -36.357  23.144   4.038  0.00  0.00    +0.002 C 
ATOM      7  C   UNL     1     -35.356  21.206   2.587  0.00  0.00    +0.110 C 
ATOM      8  C   UNL     1     -37.833  20.548  -1.892  0.00  0.00    +0.032 C 
ATOM      9  C   UNL     1     -35.264  20.694   1.136  0.00  0.00    +0.029 C 
ATOM     10  C   UNL     1     -38.420  22.534  -0.378  0.00  0.00    +0.137 C 
ATOM     11  C   UNL     1     -37.747  24.137   2.261  0.00  0.00    +0.000 C 
ATOM     12  C   UNL     1     -37.279  24.339   3.712  0.00  0.00    +0.000 C 
ATOM     13  C   UNL     1     -38.347  21.998  -1.811  0.00  0.00    +0.137 C 
ATOM     14  C   UNL     1     -36.024  18.891  -1.274  0.00  0.00    +0.003 C 
ATOM     15  C   UNL     1     -34.781  23.599   2.079  0.00  0.00    +0.002 C 
ATOM     16  C   UNL     1     -38.885  19.541  -1.367  0.00  0.00    +0.032 C 
ATOM     17  C   UNL     1     -35.370  21.183  -1.966  0.00  0.00    +0.000 C 
ATOM     18  C   UNL     1     -37.063  17.924  -0.721  0.00  0.00    +0.029 C 
ATOM     19  C   UNL     1     -38.398  18.097  -1.432  0.00  0.00    +0.111 C 
ENDROOT
BRANCH   7  20
ATOM     20  O   UNL     1     -36.164  20.313   3.353  0.00  0.00    -0.384 OA
ATOM     21  H   UNL     1     -35.879  20.332   4.279  0.00  0.00    +0.210 HD
ENDBRANCH   7  20
BRANCH  10  22
ATOM     22  O   UNL     1     -38.768  23.920  -0.456  0.00  0.00    -0.382 OA
ATOM     23  H   UNL     1     -39.322  24.072  -1.237  0.00  0.00    +0.210 HD
ENDBRANCH  10  22
BRANCH  13  24
ATOM     24  O   UNL     1     -39.648  22.095  -2.395  0.00  0.00    -0.382 OA
ATOM     25  H   UNL     1     -39.796  21.339  -2.984  0.00  0.00    +0.210 HD
ENDBRANCH  13  24
BRANCH  19  26
ATOM     26  O   UNL     1     -39.376  17.259  -0.823  0.00  0.00    -0.384 OA
ATOM     27  H   UNL     1     -39.402  17.434   0.131  0.00  0.00    +0.210 HD
ENDBRANCH  19  26
BRANCH   6  28
ATOM     28  C   UNL     1     -35.270  23.492   5.045  0.00  0.00    +0.001 C 
ATOM     29  C   UNL     1     -35.191  22.411   6.128  0.00  0.00    +0.000 C 
BRANCH  28  30
ATOM     30  C   UNL     1     -35.526  24.890   5.642  0.00  0.00    +0.012 C 
BRANCH  30  31
ATOM     31  C   UNL     1     -34.299  25.803   5.624  0.00  0.00    +0.109 C 
BRANCH  31  33
ATOM     32  O   UNL     1     -33.289  26.581   3.549  0.00  0.00    -0.250 OA
ATOM     33  C   UNL     1     -34.214  26.611   4.348  0.00  0.00    +0.314 C 
BRANCH  33  34
ATOM     34  O   UNL     1     -35.308  27.401   4.188  0.00  0.00    -0.480 OA
ATOM     35  H   UNL     1     -36.152  27.014   4.068  0.00  0.00    +0.295 HD
ENDBRANCH  33  34
ENDBRANCH  31  33
ENDBRANCH  30  31
ENDBRANCH  28  30
ENDBRANCH   6  28
TORSDOF 9
ENDMDL
MODEL 3
REMARK VINA RESULT:      -6.5      2.503      7.739
REMARK  Name = 194157
REMARK  9 active torsions:
REMARK  status: ('A' for Active; 'I' for Inactive)
REMARK    1  A    between atoms: C_6  and  C_28
REMARK    2  A    between atoms: C_7  and  O_20
REMARK    3  A    between atoms: C_10  and  O_22
REMARK    4  A    between atoms: C_13  and  O_24
REMARK    5  A    between atoms: C_19  and  O_26
REMARK    6  A    between atoms: C_28  and  C_30
REMARK    7  A    between atoms: C_30  and  C_31
REMARK    8  A    between atoms: C_31  and  C_33
REMARK    9  A    between atoms: C_33  and  O_34
REMARK                            x       y       z     vdW  Elec       q    Type
REMARK                         _______ _______ _______ _____ _____    ______ ____
ROOT
ATOM      1  C   UNL     1     -34.394  26.458   3.583  0.00  0.00    +0.025 C 
ATOM      2  C   UNL     1     -33.852  27.140   4.865  0.00  0.00    +0.005 C 
ATOM      3  C   UNL     1     -32.351  27.488   4.774  0.00  0.00    +0.029 C 
ATOM      4  C   UNL     1     -32.140  28.451   3.557  0.00  0.00    +0.005 C 
ATOM      5  C   UNL     1     -30.639  28.911   3.411  0.00  0.00    +0.003 C 
ATOM      6  C   UNL     1     -35.859  26.216   4.035  0.00  0.00    +0.002 C 
ATOM      7  C   UNL     1     -34.212  27.406   2.380  0.00  0.00    +0.110 C 
ATOM      8  C   UNL     1     -30.167  29.559   4.755  0.00  0.00    +0.032 C 
ATOM      9  C   UNL     1     -32.751  27.878   2.246  0.00  0.00    +0.029 C 
ATOM     10  C   UNL     1     -31.811  28.103   6.081  0.00  0.00    +0.137 C 
ATOM     11  C   UNL     1     -34.353  26.229   5.987  0.00  0.00    +0.000 C 
ATOM     12  C   UNL     1     -35.717  25.720   5.490  0.00  0.00    +0.000 C 
ATOM     13  C   UNL     1     -30.370  28.604   5.947  0.00  0.00    +0.137 C 
ATOM     14  C   UNL     1     -30.442  29.953   2.271  0.00  0.00    +0.003 C 
ATOM     15  C   UNL     1     -33.687  25.112   3.261  0.00  0.00    +0.002 C 
ATOM     16  C   UNL     1     -30.823  30.937   5.011  0.00  0.00    +0.032 C 
ATOM     17  C   UNL     1     -29.720  27.713   3.060  0.00  0.00    +0.000 C 
ATOM     18  C   UNL     1     -31.126  31.289   2.533  0.00  0.00    +0.029 C 
ATOM     19  C   UNL     1     -30.641  31.899   3.841  0.00  0.00    +0.111 C 
ENDROOT
BRANCH   7  20
ATOM     20  O   UNL     1     -35.071  28.544   2.459  0.00  0.00    -0.384 OA
ATOM     21  H   UNL     1     -35.481  28.579   3.337  0.00  0.00    +0.210 HD
ENDBRANCH   7  20
BRANCH  10  22
ATOM     22  O   UNL     1     -31.829  27.124   7.125  0.00  0.00    -0.382 OA
ATOM     23  H   UNL     1     -30.938  26.761   7.244  0.00  0.00    +0.210 HD
ENDBRANCH  10  22
BRANCH  13  24
ATOM     24  O   UNL     1     -30.003  29.253   7.167  0.00  0.00    -0.382 OA
ATOM     25  H   UNL     1     -29.838  28.586   7.852  0.00  0.00    +0.210 HD
ENDBRANCH  13  24
BRANCH  19  26
ATOM     26  O   UNL     1     -31.374  33.090   4.113  0.00  0.00    -0.384 OA
ATOM     27  H   UNL     1     -31.723  33.055   5.018  0.00  0.00    +0.210 HD
ENDBRANCH  19  26
BRANCH   6  28
ATOM     28  C   UNL     1     -36.689  25.281   3.168  0.00  0.00    +0.001 C 
ATOM     29  C   UNL     1     -37.933  26.010   2.650  0.00  0.00    +0.000 C 
BRANCH  28  30
ATOM     30  C   UNL     1     -37.054  24.008   3.957  0.00  0.00    +0.012 C 
BRANCH  30  31
ATOM     31  C   UNL     1     -36.533  22.717   3.322  0.00  0.00    +0.109 C 
BRANCH  31  33
ATOM     32  O   UNL     1     -35.111  22.377   5.269  0.00  0.00    -0.250 OA
ATOM     33  C   UNL     1     -35.666  21.927   4.277  0.00  0.00    +0.314 C 
BRANCH  33  34
ATOM     34  O   UNL     1     -35.563  20.627   3.894  0.00  0.00    -0.480 OA
ATOM     35  H   UNL     1     -36.280  20.208   3.461  0.00  0.00    +0.295 HD
ENDBRANCH  33  34
ENDBRANCH  31  33
ENDBRANCH  30  31
ENDBRANCH  28  30
ENDBRANCH   6  28
TORSDOF 9
ENDMDL
MODEL 4
REMARK VINA RESULT:      -6.5      4.605      7.692
REMARK  Name = 194157
REMARK  9 active torsions:
REMARK  status: ('A' for Active; 'I' for Inactive)
REMARK    1  A    between atoms: C_6  and  C_28
REMARK    2  A    between atoms: C_7  and  O_20
REMARK    3  A    between atoms: C_10  and  O_22
REMARK    4  A    between atoms: C_13  and  O_24
REMARK    5  A    between atoms: C_19  and  O_26
REMARK    6  A    between atoms: C_28  and  C_30
REMARK    7  A    between atoms: C_30  and  C_31
REMARK    8  A    between atoms: C_31  and  C_33
REMARK    9  A    between atoms: C_33  and  O_34
REMARK                            x       y       z     vdW  Elec       q    Type
REMARK                         _______ _______ _______ _____ _____    ______ ____
ROOT
ATOM      1  C   UNL     1     -39.537  25.307   1.749  0.00  0.00    +0.025 C 
ATOM      2  C   UNL     1     -39.136  23.851   1.397  0.00  0.00    +0.005 C 
ATOM      3  C   UNL     1     -37.608  23.639   1.362  0.00  0.00    +0.029 C 
ATOM      4  C   UNL     1     -37.025  24.000   2.770  0.00  0.00    +0.005 C 
ATOM      5  C   UNL     1     -35.469  23.762   2.854  0.00  0.00    +0.003 C 
ATOM      6  C   UNL     1     -41.079  25.168   1.646  0.00  0.00    +0.002 C 
ATOM      7  C   UNL     1     -38.988  25.668   3.145  0.00  0.00    +0.110 C 
ATOM      8  C   UNL     1     -35.153  22.283   2.456  0.00  0.00    +0.032 C 
ATOM      9  C   UNL     1     -37.470  25.415   3.240  0.00  0.00    +0.029 C 
ATOM     10  C   UNL     1     -37.223  22.205   0.944  0.00  0.00    +0.137 C 
ATOM     11  C   UNL     1     -39.973  23.547   0.154  0.00  0.00    +0.000 C 
ATOM     12  C   UNL     1     -41.287  24.316   0.376  0.00  0.00    +0.000 C 
ATOM     13  C   UNL     1     -35.721  21.935   1.066  0.00  0.00    +0.137 C 
ATOM     14  C   UNL     1     -34.902  24.016   4.282  0.00  0.00    +0.003 C 
ATOM     15  C   UNL     1     -39.008  26.350   0.726  0.00  0.00    +0.002 C 
ATOM     16  C   UNL     1     -35.615  21.269   3.530  0.00  0.00    +0.032 C 
ATOM     17  C   UNL     1     -34.706  24.729   1.912  0.00  0.00    +0.000 C 
ATOM     18  C   UNL     1     -35.399  23.024   5.327  0.00  0.00    +0.029 C 
ATOM     19  C   UNL     1     -35.070  21.595   4.917  0.00  0.00    +0.111 C 
ENDROOT
BRANCH   7  20
ATOM     20  O   UNL     1     -39.653  24.950   4.184  0.00  0.00    -0.384 OA
ATOM     21  H   UNL     1     -40.581  25.228   4.227  0.00  0.00    +0.210 HD
ENDBRANCH   7  20
BRANCH  10  22
ATOM     22  O   UNL     1     -37.589  21.980  -0.422  0.00  0.00    -0.382 OA
ATOM     23  H   UNL     1     -38.194  22.680  -0.714  0.00  0.00    +0.210 HD
ENDBRANCH  10  22
BRANCH  13  24
ATOM     24  O   UNL     1     -35.484  20.558   0.767  0.00  0.00    -0.382 OA
ATOM     25  H   UNL     1     -35.877  20.341  -0.093  0.00  0.00    +0.210 HD
ENDBRANCH  13  24
BRANCH  19  26
ATOM     26  O   UNL     1     -35.640  20.687   5.855  0.00  0.00    -0.384 OA
ATOM     27  H   UNL     1     -36.384  20.221   5.442  0.00  0.00    +0.210 HD
ENDBRANCH  19  26
BRANCH   6  28
ATOM     28  C   UNL     1     -41.876  26.464   1.628  0.00  0.00    +0.001 C 
ATOM     29  C   UNL     1     -43.055  26.370   2.601  0.00  0.00    +0.000 C 
BRANCH  28  30
ATOM     30  C   UNL     1     -42.336  26.785   0.192  0.00  0.00    +0.012 C 
BRANCH  30  31
ATOM     31  C   UNL     1     -42.777  28.236  -0.006  0.00  0.00    +0.109 C 
BRANCH  31  33
ATOM     32  O   UNL     1     -40.634  29.391   0.038  0.00  0.00    -0.250 OA
ATOM     33  C   UNL     1     -41.747  29.215   0.513  0.00  0.00    +0.314 C 
BRANCH  33  34
ATOM     34  O   UNL     1     -42.205  29.889   1.600  0.00  0.00    -0.480 OA
ATOM     35  H   UNL     1     -42.668  29.431   2.274  0.00  0.00    +0.295 HD
ENDBRANCH  33  34
ENDBRANCH  31  33
ENDBRANCH  30  31
ENDBRANCH  28  30
ENDBRANCH   6  28
TORSDOF 9
ENDMDL
MODEL 5
REMARK VINA RESULT:      -6.4      4.788      8.560
REMARK  Name = 194157
REMARK  9 active torsions:
REMARK  status: ('A' for Active; 'I' for Inactive)
REMARK    1  A    between atoms: C_6  and  C_28
REMARK    2  A    between atoms: C_7  and  O_20
REMARK    3  A    between atoms: C_10  and  O_22
REMARK    4  A    between atoms: C_13  and  O_24
REMARK    5  A    between atoms: C_19  and  O_26
REMARK    6  A    between atoms: C_28  and  C_30
REMARK    7  A    between atoms: C_30  and  C_31
REMARK    8  A    between atoms: C_31  and  C_33
REMARK    9  A    between atoms: C_33  and  O_34
REMARK                            x       y       z     vdW  Elec       q    Type
REMARK                         _______ _______ _______ _____ _____    ______ ____
ROOT
ATOM      1  C   UNL     1     -39.656  25.162   1.674  0.00  0.00    +0.025 C 
ATOM      2  C   UNL     1     -39.207  23.709   1.378  0.00  0.00    +0.005 C 
ATOM      3  C   UNL     1     -37.672  23.548   1.345  0.00  0.00    +0.029 C 
ATOM      4  C   UNL     1     -37.100  23.983   2.737  0.00  0.00    +0.005 C 
ATOM      5  C   UNL     1     -35.536  23.801   2.825  0.00  0.00    +0.003 C 
ATOM      6  C   UNL     1     -41.193  24.967   1.582  0.00  0.00    +0.002 C 
ATOM      7  C   UNL     1     -39.118  25.596   3.053  0.00  0.00    +0.110 C 
ATOM      8  C   UNL     1     -35.171  22.319   2.484  0.00  0.00    +0.032 C 
ATOM      9  C   UNL     1     -37.592  25.399   3.153  0.00  0.00    +0.029 C 
ATOM     10  C   UNL     1     -37.240  22.111   0.982  0.00  0.00    +0.137 C 
ATOM     11  C   UNL     1     -40.036  23.327   0.150  0.00  0.00    +0.000 C 
ATOM     12  C   UNL     1     -41.375  24.060   0.346  0.00  0.00    +0.000 C 
ATOM     13  C   UNL     1     -35.729  21.898   1.110  0.00  0.00    +0.137 C 
ATOM     14  C   UNL     1     -34.976  24.129   4.240  0.00  0.00    +0.003 C 
ATOM     15  C   UNL     1     -39.166  26.183   0.610  0.00  0.00    +0.002 C 
ATOM     16  C   UNL     1     -35.596  21.333   3.597  0.00  0.00    +0.032 C 
ATOM     17  C   UNL     1     -34.808  24.756   1.844  0.00  0.00    +0.000 C 
ATOM     18  C   UNL     1     -35.436  23.163   5.324  0.00  0.00    +0.029 C 
ATOM     19  C   UNL     1     -35.060  21.731   4.969  0.00  0.00    +0.111 C 
ENDROOT
BRANCH   7  20
ATOM     20  O   UNL     1     -39.755  24.897   4.122  0.00  0.00    -0.384 OA
ATOM     21  H   UNL     1     -39.200  24.152   4.398  0.00  0.00    +0.210 HD
ENDBRANCH   7  20
BRANCH  10  22
ATOM     22  O   UNL     1     -37.601  21.822  -0.372  0.00  0.00    -0.382 OA
ATOM     23  H   UNL     1     -38.527  21.536  -0.406  0.00  0.00    +0.210 HD
ENDBRANCH  10  22
BRANCH  13  24
ATOM     24  O   UNL     1     -35.446  20.519   0.864  0.00  0.00    -0.382 OA
ATOM     25  H   UNL     1     -35.478  20.347  -0.090  0.00  0.00    +0.210 HD
ENDBRANCH  13  24
BRANCH  19  26
ATOM     26  O   UNL     1     -35.596  20.841   5.943  0.00  0.00    -0.384 OA
ATOM     27  H   UNL     1     -34.899  20.588   6.569  0.00  0.00    +0.210 HD
ENDBRANCH  19  26
BRANCH   6  28
ATOM     28  C   UNL     1     -42.034  26.234   1.516  0.00  0.00    +0.001 C 
ATOM     29  C   UNL     1     -42.354  26.726   2.931  0.00  0.00    +0.000 C 
BRANCH  28  30
ATOM     30  C   UNL     1     -43.310  25.982   0.689  0.00  0.00    +0.012 C 
BRANCH  30  31
ATOM     31  C   UNL     1     -44.573  25.820   1.537  0.00  0.00    +0.109 C 
BRANCH  31  33
ATOM     32  O   UNL     1     -44.759  23.550   0.675  0.00  0.00    -0.250 OA
ATOM     33  C   UNL     1     -45.141  24.421   1.443  0.00  0.00    +0.314 C 
BRANCH  33  34
ATOM     34  O   UNL     1     -46.157  24.237   2.326  0.00  0.00    -0.480 OA
ATOM     35  H   UNL     1     -46.988  23.925   2.026  0.00  0.00    +0.295 HD
ENDBRANCH  33  34
ENDBRANCH  31  33
ENDBRANCH  30  31
ENDBRANCH  28  30
ENDBRANCH   6  28
TORSDOF 9
ENDMDL
MODEL 6
REMARK VINA RESULT:      -6.3      4.451      8.012
REMARK  Name = 194157
REMARK  9 active torsions:
REMARK  status: ('A' for Active; 'I' for Inactive)
REMARK    1  A    between atoms: C_6  and  C_28
REMARK    2  A    between atoms: C_7  and  O_20
REMARK    3  A    between atoms: C_10  and  O_22
REMARK    4  A    between atoms: C_13  and  O_24
REMARK    5  A    between atoms: C_19  and  O_26
REMARK    6  A    between atoms: C_28  and  C_30
REMARK    7  A    between atoms: C_30  and  C_31
REMARK    8  A    between atoms: C_31  and  C_33
REMARK    9  A    between atoms: C_33  and  O_34
REMARK                            x       y       z     vdW  Elec       q    Type
REMARK                         _______ _______ _______ _____ _____    ______ ____
ROOT
ATOM      1  C   UNL     1     -39.349  25.338   1.299  0.00  0.00    +0.025 C 
ATOM      2  C   UNL     1     -39.312  23.859   1.760  0.00  0.00    +0.005 C 
ATOM      3  C   UNL     1     -37.905  23.233   1.662  0.00  0.00    +0.029 C 
ATOM      4  C   UNL     1     -36.929  24.068   2.557  0.00  0.00    +0.005 C 
ATOM      5  C   UNL     1     -35.469  23.473   2.569  0.00  0.00    +0.003 C 
ATOM      6  C   UNL     1     -40.866  25.612   1.477  0.00  0.00    +0.002 C 
ATOM      7  C   UNL     1     -38.408  26.177   2.188  0.00  0.00    +0.110 C 
ATOM      8  C   UNL     1     -35.529  21.974   3.015  0.00  0.00    +0.032 C 
ATOM      9  C   UNL     1     -36.985  25.586   2.222  0.00  0.00    +0.029 C 
ATOM     10  C   UNL     1     -37.897  21.741   2.058  0.00  0.00    +0.137 C 
ATOM     11  C   UNL     1     -40.479  23.225   1.001  0.00  0.00    +0.000 C 
ATOM     12  C   UNL     1     -41.538  24.339   0.920  0.00  0.00    +0.000 C 
ATOM     13  C   UNL     1     -36.485  21.155   2.126  0.00  0.00    +0.137 C 
ATOM     14  C   UNL     1     -34.521  24.234   3.542  0.00  0.00    +0.003 C 
ATOM     15  C   UNL     1     -38.926  25.528  -0.184  0.00  0.00    +0.002 C 
ATOM     16  C   UNL     1     -35.871  21.816   4.515  0.00  0.00    +0.032 C 
ATOM     17  C   UNL     1     -34.815  23.573   1.167  0.00  0.00    +0.000 C 
ATOM     18  C   UNL     1     -34.900  24.090   5.010  0.00  0.00    +0.029 C 
ATOM     19  C   UNL     1     -34.941  22.623   5.417  0.00  0.00    +0.111 C 
ENDROOT
BRANCH   7  20
ATOM     20  O   UNL     1     -38.900  26.301   3.522  0.00  0.00    -0.384 OA
ATOM     21  H   UNL     1     -39.038  25.419   3.900  0.00  0.00    +0.210 HD
ENDBRANCH   7  20
BRANCH  10  22
ATOM     22  O   UNL     1     -38.633  20.978   1.097  0.00  0.00    -0.382 OA
ATOM     23  H   UNL     1     -38.240  21.097   0.219  0.00  0.00    +0.210 HD
ENDBRANCH  10  22
BRANCH  13  24
ATOM     24  O   UNL     1     -36.577  19.812   2.607  0.00  0.00    -0.382 OA
ATOM     25  H   UNL     1     -35.824  19.297   2.276  0.00  0.00    +0.210 HD
ENDBRANCH  13  24
BRANCH  19  26
ATOM     26  O   UNL     1     -35.402  22.513   6.760  0.00  0.00    -0.384 OA
ATOM     27  H   UNL     1     -36.362  22.372   6.763  0.00  0.00    +0.210 HD
ENDBRANCH  19  26
BRANCH   6  28
ATOM     28  C   UNL     1     -41.402  26.890   0.846  0.00  0.00    +0.001 C 
ATOM     29  C   UNL     1     -42.062  27.767   1.915  0.00  0.00    +0.000 C 
BRANCH  28  30
ATOM     30  C   UNL     1     -42.374  26.548  -0.301  0.00  0.00    +0.012 C 
BRANCH  30  31
ATOM     31  C   UNL     1     -42.056  27.267  -1.614  0.00  0.00    +0.109 C 
BRANCH  31  33
ATOM     32  O   UNL     1     -41.565  25.099  -2.608  0.00  0.00    -0.250 OA
ATOM     33  C   UNL     1     -41.510  26.319  -2.659  0.00  0.00    +0.314 C 
BRANCH  33  34
ATOM     34  O   UNL     1     -40.927  26.994  -3.684  0.00  0.00    -0.480 OA
ATOM     35  H   UNL     1     -40.223  26.602  -4.162  0.00  0.00    +0.295 HD
ENDBRANCH  33  34
ENDBRANCH  31  33
ENDBRANCH  30  31
ENDBRANCH  28  30
ENDBRANCH   6  28
TORSDOF 9
ENDMDL
MODEL 7
REMARK VINA RESULT:      -6.1      5.960      8.883
REMARK  Name = 194157
REMARK  9 active torsions:
REMARK  status: ('A' for Active; 'I' for Inactive)
REMARK    1  A    between atoms: C_6  and  C_28
REMARK    2  A    between atoms: C_7  and  O_20
REMARK    3  A    between atoms: C_10  and  O_22
REMARK    4  A    between atoms: C_13  and  O_24
REMARK    5  A    between atoms: C_19  and  O_26
REMARK    6  A    between atoms: C_28  and  C_30
REMARK    7  A    between atoms: C_30  and  C_31
REMARK    8  A    between atoms: C_31  and  C_33
REMARK    9  A    between atoms: C_33  and  O_34
REMARK                            x       y       z     vdW  Elec       q    Type
REMARK                         _______ _______ _______ _____ _____    ______ ____
ROOT
ATOM      1  C   UNL     1     -39.219  24.275   1.584  0.00  0.00    +0.025 C 
ATOM      2  C   UNL     1     -40.104  24.928   2.676  0.00  0.00    +0.005 C 
ATOM      3  C   UNL     1     -41.197  25.849   2.093  0.00  0.00    +0.029 C 
ATOM      4  C   UNL     1     -42.106  24.999   1.143  0.00  0.00    +0.005 C 
ATOM      5  C   UNL     1     -43.293  25.841   0.538  0.00  0.00    +0.003 C 
ATOM      6  C   UNL     1     -38.240  23.491   2.499  0.00  0.00    +0.002 C 
ATOM      7  C   UNL     1     -40.099  23.415   0.654  0.00  0.00    +0.110 C 
ATOM      8  C   UNL     1     -44.113  26.485   1.704  0.00  0.00    +0.032 C 
ATOM      9  C   UNL     1     -41.276  24.228   0.077  0.00  0.00    +0.029 C 
ATOM     10  C   UNL     1     -42.026  26.545   3.194  0.00  0.00    +0.137 C 
ATOM     11  C   UNL     1     -39.084  25.492   3.666  0.00  0.00    +0.000 C 
ATOM     12  C   UNL     1     -37.918  24.489   3.632  0.00  0.00    +0.000 C 
ATOM     13  C   UNL     1     -43.215  27.327   2.631  0.00  0.00    +0.137 C 
ATOM     14  C   UNL     1     -44.262  24.976  -0.321  0.00  0.00    +0.003 C 
ATOM     15  C   UNL     1     -38.452  25.312   0.718  0.00  0.00    +0.002 C 
ATOM     16  C   UNL     1     -44.933  25.442   2.499  0.00  0.00    +0.032 C 
ATOM     17  C   UNL     1     -42.764  26.953  -0.403  0.00  0.00    +0.000 C 
ATOM     18  C   UNL     1     -45.032  23.934   0.480  0.00  0.00    +0.029 C 
ATOM     19  C   UNL     1     -45.826  24.590   1.601  0.00  0.00    +0.111 C 
ENDROOT
BRANCH   7  20
ATOM     20  O   UNL     1     -40.605  22.256   1.315  0.00  0.00    -0.384 OA
ATOM     21  H   UNL     1     -40.912  21.615   0.655  0.00  0.00    +0.210 HD
ENDBRANCH   7  20
BRANCH  10  22
ATOM     22  O   UNL     1     -41.204  27.470   3.911  0.00  0.00    -0.382 OA
ATOM     23  H   UNL     1     -41.441  28.376   3.660  0.00  0.00    +0.210 HD
ENDBRANCH  10  22
BRANCH  13  24
ATOM     24  O   UNL     1     -43.978  27.837   3.727  0.00  0.00    -0.382 OA
ATOM     25  H   UNL     1     -44.810  28.210   3.398  0.00  0.00    +0.210 HD
ENDBRANCH  13  24
BRANCH  19  26
ATOM     26  O   UNL     1     -46.447  23.586   2.398  0.00  0.00    -0.384 OA
ATOM     27  H   UNL     1     -45.957  22.754   2.309  0.00  0.00    +0.210 HD
ENDBRANCH  19  26
BRANCH   6  28
ATOM     28  C   UNL     1     -36.993  22.929   1.832  0.00  0.00    +0.001 C 
ATOM     29  C   UNL     1     -37.257  21.501   1.344  0.00  0.00    +0.000 C 
BRANCH  28  30
ATOM     30  C   UNL     1     -35.796  22.996   2.801  0.00  0.00    +0.012 C 
BRANCH  30  31
ATOM     31  C   UNL     1     -35.510  21.677   3.522  0.00  0.00    +0.109 C 
BRANCH  31  33
ATOM     32  O   UNL     1     -35.888  22.848   5.624  0.00  0.00    -0.250 OA
ATOM     33  C   UNL     1     -35.558  21.834   5.026  0.00  0.00    +0.314 C 
BRANCH  33  34
ATOM     34  O   UNL     1     -35.175  20.692   5.656  0.00  0.00    -0.480 OA
ATOM     35  H   UNL     1     -34.304  20.365   5.543  0.00  0.00    +0.295 HD
ENDBRANCH  33  34
ENDBRANCH  31  33
ENDBRANCH  30  31
ENDBRANCH  28  30
ENDBRANCH   6  28
TORSDOF 9
ENDMDL
MODEL 8
REMARK VINA RESULT:      -6.1      3.211      5.667
REMARK  Name = 194157
REMARK  9 active torsions:
REMARK  status: ('A' for Active; 'I' for Inactive)
REMARK    1  A    between atoms: C_6  and  C_28
REMARK    2  A    between atoms: C_7  and  O_20
REMARK    3  A    between atoms: C_10  and  O_22
REMARK    4  A    between atoms: C_13  and  O_24
REMARK    5  A    between atoms: C_19  and  O_26
REMARK    6  A    between atoms: C_28  and  C_30
REMARK    7  A    between atoms: C_30  and  C_31
REMARK    8  A    between atoms: C_31  and  C_33
REMARK    9  A    between atoms: C_33  and  O_34
REMARK                            x       y       z     vdW  Elec       q    Type
REMARK                         _______ _______ _______ _____ _____    ______ ____
ROOT
ATOM      1  C   UNL     1     -36.109  22.143   1.948  0.00  0.00    +0.025 C 
ATOM      2  C   UNL     1     -37.239  21.243   1.385  0.00  0.00    +0.005 C 
ATOM      3  C   UNL     1     -36.872  20.589   0.036  0.00  0.00    +0.029 C 
ATOM      4  C   UNL     1     -35.585  19.720   0.242  0.00  0.00    +0.005 C 
ATOM      5  C   UNL     1     -35.159  18.961  -1.072  0.00  0.00    +0.003 C 
ATOM      6  C   UNL     1     -36.818  22.653   3.230  0.00  0.00    +0.002 C 
ATOM      7  C   UNL     1     -34.842  21.293   2.176  0.00  0.00    +0.110 C 
ATOM      8  C   UNL     1     -36.363  18.104  -1.585  0.00  0.00    +0.032 C 
ATOM      9  C   UNL     1     -34.433  20.530   0.901  0.00  0.00    +0.029 C 
ATOM     10  C   UNL     1     -38.031  19.752  -0.545  0.00  0.00    +0.137 C 
ATOM     11  C   UNL     1     -38.479  22.133   1.485  0.00  0.00    +0.000 C 
ATOM     12  C   UNL     1     -38.253  22.970   2.755  0.00  0.00    +0.000 C 
ATOM     13  C   UNL     1     -37.624  18.966  -1.794  0.00  0.00    +0.137 C 
ATOM     14  C   UNL     1     -33.945  18.011  -0.846  0.00  0.00    +0.003 C 
ATOM     15  C   UNL     1     -35.746  23.327   1.010  0.00  0.00    +0.002 C 
ATOM     16  C   UNL     1     -36.651  16.884  -0.679  0.00  0.00    +0.032 C 
ATOM     17  C   UNL     1     -34.722  19.959  -2.176  0.00  0.00    +0.000 C 
ATOM     18  C   UNL     1     -34.245  16.837   0.076  0.00  0.00    +0.029 C 
ATOM     19  C   UNL     1     -35.415  16.017  -0.453  0.00  0.00    +0.111 C 
ENDROOT
BRANCH   7  20
ATOM     20  O   UNL     1     -35.003  20.367   3.250  0.00  0.00    -0.384 OA
ATOM     21  H   UNL     1     -34.586  20.722   4.050  0.00  0.00    +0.210 HD
ENDBRANCH   7  20
BRANCH  10  22
ATOM     22  O   UNL     1     -39.115  20.610  -0.913  0.00  0.00    -0.382 OA
ATOM     23  H   UNL     1     -39.649  20.812  -0.128  0.00  0.00    +0.210 HD
ENDBRANCH  10  22
BRANCH  13  24
ATOM     24  O   UNL     1     -38.725  18.142  -2.186  0.00  0.00    -0.382 OA
ATOM     25  H   UNL     1     -38.725  18.040  -3.151  0.00  0.00    +0.210 HD
ENDBRANCH  13  24
BRANCH  19  26
ATOM     26  O   UNL     1     -35.742  14.994   0.482  0.00  0.00    -0.384 OA
ATOM     27  H   UNL     1     -36.235  15.379   1.224  0.00  0.00    +0.210 HD
ENDBRANCH  19  26
BRANCH   6  28
ATOM     28  C   UNL     1     -36.160  23.823   3.948  0.00  0.00    +0.001 C 
ATOM     29  C   UNL     1     -35.709  23.393   5.348  0.00  0.00    +0.000 C 
BRANCH  28  30
ATOM     30  C   UNL     1     -37.122  25.027   3.995  0.00  0.00    +0.012 C 
BRANCH  30  31
ATOM     31  C   UNL     1     -36.637  26.236   3.193  0.00  0.00    +0.109 C 
BRANCH  31  33
ATOM     32  O   UNL     1     -34.907  27.054   4.699  0.00  0.00    -0.250 OA
ATOM     33  C   UNL     1     -35.239  26.654   3.592  0.00  0.00    +0.314 C 
BRANCH  33  34
ATOM     34  O   UNL     1     -34.371  26.540   2.553  0.00  0.00    -0.480 OA
ATOM     35  H   UNL     1     -34.520  27.022   1.763  0.00  0.00    +0.295 HD
ENDBRANCH  33  34
ENDBRANCH  31  33
ENDBRANCH  30  31
ENDBRANCH  28  30
ENDBRANCH   6  28
TORSDOF 9
ENDMDL
MODEL 9
REMARK VINA RESULT:      -6.0      4.340      6.521
REMARK  Name = 194157
REMARK  9 active torsions:
REMARK  status: ('A' for Active; 'I' for Inactive)
REMARK    1  A    between atoms: C_6  and  C_28
REMARK    2  A    between atoms: C_7  and  O_20
REMARK    3  A    between atoms: C_10  and  O_22
REMARK    4  A    between atoms: C_13  and  O_24
REMARK    5  A    between atoms: C_19  and  O_26
REMARK    6  A    between atoms: C_28  and  C_30
REMARK    7  A    between atoms: C_30  and  C_31
REMARK    8  A    between atoms: C_31  and  C_33
REMARK    9  A    between atoms: C_33  and  O_34
REMARK                            x       y       z     vdW  Elec       q    Type
REMARK                         _______ _______ _______ _____ _____    ______ ____
ROOT
ATOM      1  C   UNL     1     -36.966  22.950   1.420  0.00  0.00    +0.025 C 
ATOM      2  C   UNL     1     -37.186  21.416   1.408  0.00  0.00    +0.005 C 
ATOM      3  C   UNL     1     -36.489  20.717   0.221  0.00  0.00    +0.029 C 
ATOM      4  C   UNL     1     -34.953  21.009   0.308  0.00  0.00    +0.005 C 
ATOM      5  C   UNL     1     -34.141  20.289  -0.835  0.00  0.00    +0.003 C 
ATOM      6  C   UNL     1     -37.816  23.309   2.668  0.00  0.00    +0.002 C 
ATOM      7  C   UNL     1     -35.457  23.252   1.528  0.00  0.00    +0.110 C 
ATOM      8  C   UNL     1     -34.444  18.755  -0.793  0.00  0.00    +0.032 C 
ATOM      9  C   UNL     1     -34.655  22.531   0.426  0.00  0.00    +0.029 C 
ATOM     10  C   UNL     1     -36.774  19.201   0.184  0.00  0.00    +0.137 C 
ATOM     11  C   UNL     1     -38.698  21.276   1.590  0.00  0.00    +0.000 C 
ATOM     12  C   UNL     1     -39.087  22.448   2.507  0.00  0.00    +0.000 C 
ATOM     13  C   UNL     1     -35.956  18.472  -0.887  0.00  0.00    +0.137 C 
ATOM     14  C   UNL     1     -32.603  20.487  -0.691  0.00  0.00    +0.003 C 
ATOM     15  C   UNL     1     -37.521  23.657   0.153  0.00  0.00    +0.002 C 
ATOM     16  C   UNL     1     -33.810  18.059   0.435  0.00  0.00    +0.032 C 
ATOM     17  C   UNL     1     -34.517  20.856  -2.229  0.00  0.00    +0.000 C 
ATOM     18  C   UNL     1     -32.009  19.821   0.543  0.00  0.00    +0.029 C 
ATOM     19  C   UNL     1     -32.313  18.328   0.553  0.00  0.00    +0.111 C 
ENDROOT
BRANCH   7  20
ATOM     20  O   UNL     1     -34.929  22.897   2.806  0.00  0.00    -0.384 OA
ATOM     21  H   UNL     1     -34.013  22.595   2.705  0.00  0.00    +0.210 HD
ENDBRANCH   7  20
BRANCH  10  22
ATOM     22  O   UNL     1     -38.157  18.971  -0.103  0.00  0.00    -0.382 OA
ATOM     23  H   UNL     1     -38.478  19.651  -0.716  0.00  0.00    +0.210 HD
ENDBRANCH  10  22
BRANCH  13  24
ATOM     24  O   UNL     1     -36.205  17.070  -0.767  0.00  0.00    -0.382 OA
ATOM     25  H   UNL     1     -35.699  16.592  -1.442  0.00  0.00    +0.210 HD
ENDBRANCH  13  24
BRANCH  19  26
ATOM     26  O   UNL     1     -31.842  17.753   1.767  0.00  0.00    -0.384 OA
ATOM     27  H   UNL     1     -31.264  18.386   2.223  0.00  0.00    +0.210 HD
ENDBRANCH  19  26
BRANCH   6  28
ATOM     28  C   UNL     1     -38.123  24.785   2.876  0.00  0.00    +0.001 C 
ATOM     29  C   UNL     1     -37.170  25.378   3.919  0.00  0.00    +0.000 C 
BRANCH  28  30
ATOM     30  C   UNL     1     -39.601  24.970   3.273  0.00  0.00    +0.012 C 
BRANCH  30  31
ATOM     31  C   UNL     1     -40.380  25.898   2.340  0.00  0.00    +0.109 C 
BRANCH  31  33
ATOM     32  O   UNL     1     -42.723  26.467   2.678  0.00  0.00    -0.250 OA
ATOM     33  C   UNL     1     -41.557  26.542   3.038  0.00  0.00    +0.314 C 
BRANCH  33  34
ATOM     34  O   UNL     1     -41.163  27.240   4.135  0.00  0.00    -0.480 OA
ATOM     35  H   UNL     1     -41.762  27.377   4.843  0.00  0.00    +0.295 HD
ENDBRANCH  33  34
ENDBRANCH  31  33
ENDBRANCH  30  31
ENDBRANCH  28  30
ENDBRANCH   6  28
TORSDOF 9
ENDMDL
