MODEL 1
REMARK VINA RESULT:      -5.9      0.000      0.000
REMARK  Name = 5946784
REMARK  7 active torsions:
REMARK  status: ('A' for Active; 'I' for Inactive)
REMARK    1  A    between atoms: C_6  and  O_21
REMARK    2  A    between atoms: C_9  and  O_19
REMARK    3  A    between atoms: O_21  and  C_23
REMARK    4  A    between atoms: C_23  and  C_24
REMARK    5  A    between atoms: C_24  and  C_27
REMARK    6  A    between atoms: C_27  and  O_28
REMARK    7  A    between atoms: O_28  and  C_30
REMARK                            x       y       z     vdW  Elec       q    Type
REMARK                         _______ _______ _______ _____ _____    ______ ____
ROOT
ATOM      1  O   UNL     1     -36.836  23.779   4.509  0.00  0.00    -0.329 OA
ATOM      2  O   UNL     1     -39.991  22.585   2.102  0.00  0.00    -0.444 OA
ATOM      3  O   UNL     1     -40.778  21.496   0.232  0.00  0.00    -0.245 OA
ATOM      4  C   UNL     1     -35.566  23.104   4.492  0.00  0.00    +0.117 C 
ATOM      5  C   UNL     1     -37.814  21.713   2.226  0.00  0.00    +0.113 C 
ATOM      6  C   UNL     1     -36.274  21.803   2.260  0.00  0.00    +0.180 C 
ATOM      7  C   UNL     1     -35.661  21.795   3.679  0.00  0.00    +0.076 C 
ATOM      8  C   UNL     1     -38.676  22.913   2.635  0.00  0.00    +0.198 C 
ATOM      9  C   UNL     1     -36.698  25.091   3.923  0.00  0.00    +0.220 C 
ATOM     10  C   UNL     1     -34.599  24.097   3.946  0.00  0.00    +0.001 C 
ATOM     11  C   UNL     1     -38.458  21.388   0.911  0.00  0.00    +0.060 C 
ATOM     12  C   UNL     1     -37.531  25.229   2.653  0.00  0.00    +0.010 C 
ATOM     13  C   UNL     1     -38.323  24.283   2.107  0.00  0.00    +0.014 C 
ATOM     14  C   UNL     1     -35.205  22.784   5.948  0.00  0.00    +0.034 C 
ATOM     15  C   UNL     1     -35.233  25.227   3.647  0.00  0.00    +0.031 C 
ATOM     16  C   UNL     1     -39.876  21.801   0.989  0.00  0.00    +0.338 C 
ATOM     17  C   UNL     1     -37.424  26.565   1.947  0.00  0.00    +0.031 C 
ATOM     18  C   UNL     1     -37.955  20.861  -0.208  0.00  0.00    +0.002 C 
ENDROOT
BRANCH   9  19
ATOM     19  O   UNL     1     -37.127  26.078   4.858  0.00  0.00    -0.358 OA
ATOM     20  H   UNL     1     -38.086  26.204   4.779  0.00  0.00    +0.213 HD
ENDBRANCH   9  19
BRANCH   6  21
ATOM     21  O   UNL     1     -35.791  22.878   1.471  0.00  0.00    -0.449 OA
BRANCH  21  23
ATOM     22  O   UNL     1     -34.173  21.517   0.563  0.00  0.00    -0.245 OA
ATOM     23  C   UNL     1     -34.744  22.596   0.636  0.00  0.00    +0.340 C 
BRANCH  23  24
ATOM     24  C   UNL     1     -34.397  23.798  -0.184  0.00  0.00    +0.093 C 
ATOM     25  C   UNL     1     -35.399  24.673  -0.392  0.00  0.00    -0.020 C 
ATOM     26  C   UNL     1     -35.333  25.955  -1.160  0.00  0.00    +0.031 C 
BRANCH  24  27
ATOM     27  C   UNL     1     -33.012  23.916  -0.754  0.00  0.00    +0.241 C 
BRANCH  27  28
ATOM     28  O   UNL     1     -32.113  24.308   0.273  0.00  0.00    -0.443 OA
BRANCH  28  30
ATOM     29  O   UNL     1     -31.774  26.473  -0.458  0.00  0.00    -0.250 OA
ATOM     30  C   UNL     1     -31.945  25.656   0.437  0.00  0.00    +0.318 C 
ATOM     31  C   UNL     1     -32.000  26.004   1.893  0.00  0.00    +0.121 C 
ENDBRANCH  28  30
ENDBRANCH  27  28
ENDBRANCH  24  27
ENDBRANCH  23  24
ENDBRANCH  21  23
ENDBRANCH   6  21
TORSDOF 7
ENDMDL
MODEL 2
REMARK VINA RESULT:      -5.8      2.503      5.265
REMARK  Name = 5946784
REMARK  7 active torsions:
REMARK  status: ('A' for Active; 'I' for Inactive)
REMARK    1  A    between atoms: C_6  and  O_21
REMARK    2  A    between atoms: C_9  and  O_19
REMARK    3  A    between atoms: O_21  and  C_23
REMARK    4  A    between atoms: C_23  and  C_24
REMARK    5  A    between atoms: C_24  and  C_27
REMARK    6  A    between atoms: C_27  and  O_28
REMARK    7  A    between atoms: O_28  and  C_30
REMARK                            x       y       z     vdW  Elec       q    Type
REMARK                         _______ _______ _______ _____ _____    ______ ____
ROOT
ATOM      1  O   UNL     1     -37.665  24.144   1.138  0.00  0.00    -0.329 OA
ATOM      2  O   UNL     1     -36.246  22.354   4.595  0.00  0.00    -0.444 OA
ATOM      3  O   UNL     1     -35.159  22.500   6.620  0.00  0.00    -0.245 OA
ATOM      4  C   UNL     1     -37.927  25.556   1.063  0.00  0.00    +0.117 C 
ATOM      5  C   UNL     1     -36.692  24.622   4.181  0.00  0.00    +0.113 C 
ATOM      6  C   UNL     1     -36.621  25.934   3.371  0.00  0.00    +0.180 C 
ATOM      7  C   UNL     1     -37.847  26.196   2.465  0.00  0.00    +0.076 C 
ATOM      8  C   UNL     1     -36.506  23.266   3.490  0.00  0.00    +0.198 C 
ATOM      9  C   UNL     1     -36.517  23.818   0.327  0.00  0.00    +0.220 C 
ATOM     10  C   UNL     1     -36.936  26.089   0.086  0.00  0.00    +0.001 C 
ATOM     11  C   UNL     1     -35.719  24.455   5.310  0.00  0.00    +0.060 C 
ATOM     12  C   UNL     1     -35.369  23.275   1.171  0.00  0.00    +0.010 C 
ATOM     13  C   UNL     1     -35.373  23.093   2.508  0.00  0.00    +0.014 C 
ATOM     14  C   UNL     1     -39.344  25.723   0.498  0.00  0.00    +0.034 C 
ATOM     15  C   UNL     1     -36.155  25.104  -0.348  0.00  0.00    +0.031 C 
ATOM     16  C   UNL     1     -35.643  23.013   5.629  0.00  0.00    +0.338 C 
ATOM     17  C   UNL     1     -34.105  22.935   0.408  0.00  0.00    +0.031 C 
ATOM     18  C   UNL     1     -34.973  25.346   5.967  0.00  0.00    +0.002 C 
ENDROOT
BRANCH   9  19
ATOM     19  O   UNL     1     -36.879  22.830  -0.637  0.00  0.00    -0.358 OA
ATOM     20  H   UNL     1     -36.490  23.059  -1.496  0.00  0.00    +0.213 HD
ENDBRANCH   9  19
BRANCH   6  21
ATOM     21  O   UNL     1     -35.396  26.053   2.667  0.00  0.00    -0.449 OA
BRANCH  21  23
ATOM     22  O   UNL     1     -35.151  28.237   3.348  0.00  0.00    -0.245 OA
ATOM     23  C   UNL     1     -34.695  27.212   2.860  0.00  0.00    +0.340 C 
BRANCH  23  24
ATOM     24  C   UNL     1     -33.283  27.048   2.395  0.00  0.00    +0.093 C 
ATOM     25  C   UNL     1     -33.105  26.215   1.352  0.00  0.00    -0.020 C 
ATOM     26  C   UNL     1     -31.812  25.875   0.680  0.00  0.00    +0.031 C 
BRANCH  24  27
ATOM     27  C   UNL     1     -32.185  27.754   3.137  0.00  0.00    +0.241 C 
BRANCH  27  28
ATOM     28  O   UNL     1     -32.186  27.332   4.493  0.00  0.00    -0.443 OA
BRANCH  28  30
ATOM     29  O   UNL     1     -32.562  29.501   5.194  0.00  0.00    -0.250 OA
ATOM     30  C   UNL     1     -32.337  28.320   5.426  0.00  0.00    +0.318 C 
ATOM     31  C   UNL     1     -32.187  27.750   6.804  0.00  0.00    +0.121 C 
ENDBRANCH  28  30
ENDBRANCH  27  28
ENDBRANCH  24  27
ENDBRANCH  23  24
ENDBRANCH  21  23
ENDBRANCH   6  21
TORSDOF 7
ENDMDL
MODEL 3
REMARK VINA RESULT:      -5.8      2.195      4.022
REMARK  Name = 5946784
REMARK  7 active torsions:
REMARK  status: ('A' for Active; 'I' for Inactive)
REMARK    1  A    between atoms: C_6  and  O_21
REMARK    2  A    between atoms: C_9  and  O_19
REMARK    3  A    between atoms: O_21  and  C_23
REMARK    4  A    between atoms: C_23  and  C_24
REMARK    5  A    between atoms: C_24  and  C_27
REMARK    6  A    between atoms: C_27  and  O_28
REMARK    7  A    between atoms: O_28  and  C_30
REMARK                            x       y       z     vdW  Elec       q    Type
REMARK                         _______ _______ _______ _____ _____    ______ ____
ROOT
ATOM      1  O   UNL     1     -35.187  26.621   3.857  0.00  0.00    -0.329 OA
ATOM      2  O   UNL     1     -38.908  26.590   2.035  0.00  0.00    -0.444 OA
ATOM      3  O   UNL     1     -40.767  25.443   1.302  0.00  0.00    -0.245 OA
ATOM      4  C   UNL     1     -34.764  25.571   4.745  0.00  0.00    +0.117 C 
ATOM      5  C   UNL     1     -37.947  24.991   3.460  0.00  0.00    +0.113 C 
ATOM      6  C   UNL     1     -36.824  24.053   3.951  0.00  0.00    +0.180 C 
ATOM      7  C   UNL     1     -35.948  24.640   5.082  0.00  0.00    +0.076 C 
ATOM      8  C   UNL     1     -37.621  26.221   2.607  0.00  0.00    +0.198 C 
ATOM      9  C   UNL     1     -34.428  26.557   2.631  0.00  0.00    +0.220 C 
ATOM     10  C   UNL     1     -33.632  24.898   4.048  0.00  0.00    +0.001 C 
ATOM     11  C   UNL     1     -39.028  24.387   2.613  0.00  0.00    +0.060 C 
ATOM     12  C   UNL     1     -35.321  26.260   1.432  0.00  0.00    +0.010 C 
ATOM     13  C   UNL     1     -36.658  26.079   1.453  0.00  0.00    +0.014 C 
ATOM     14  C   UNL     1     -34.252  26.242   6.026  0.00  0.00    +0.034 C 
ATOM     15  C   UNL     1     -33.425  25.470   2.866  0.00  0.00    +0.031 C 
ATOM     16  C   UNL     1     -39.704  25.488   1.893  0.00  0.00    +0.338 C 
ATOM     17  C   UNL     1     -34.605  26.142   0.102  0.00  0.00    +0.031 C 
ATOM     18  C   UNL     1     -39.393  23.116   2.425  0.00  0.00    +0.002 C 
ENDROOT
BRANCH   9  19
ATOM     19  O   UNL     1     -33.772  27.805   2.412  0.00  0.00    -0.358 OA
ATOM     20  H   UNL     1     -33.826  28.345   3.216  0.00  0.00    +0.213 HD
ENDBRANCH   9  19
BRANCH   6  21
ATOM     21  O   UNL     1     -36.049  23.551   2.875  0.00  0.00    -0.449 OA
BRANCH  21  23
ATOM     22  O   UNL     1     -35.602  21.612   4.031  0.00  0.00    -0.245 OA
ATOM     23  C   UNL     1     -35.612  22.259   2.993  0.00  0.00    +0.340 C 
BRANCH  23  24
ATOM     24  C   UNL     1     -35.153  21.744   1.666  0.00  0.00    +0.093 C 
ATOM     25  C   UNL     1     -34.744  22.678   0.786  0.00  0.00    -0.020 C 
ATOM     26  C   UNL     1     -34.229  22.448  -0.599  0.00  0.00    +0.031 C 
BRANCH  24  27
ATOM     27  C   UNL     1     -35.233  20.270   1.390  0.00  0.00    +0.241 C 
BRANCH  27  28
ATOM     28  O   UNL     1     -34.090  19.627   1.934  0.00  0.00    -0.443 OA
BRANCH  28  30
ATOM     29  O   UNL     1     -33.694  17.694   0.730  0.00  0.00    -0.250 OA
ATOM     30  C   UNL     1     -33.388  18.829   1.072  0.00  0.00    +0.318 C 
ATOM     31  C   UNL     1     -32.164  19.548   0.591  0.00  0.00    +0.121 C 
ENDBRANCH  28  30
ENDBRANCH  27  28
ENDBRANCH  24  27
ENDBRANCH  23  24
ENDBRANCH  21  23
ENDBRANCH   6  21
TORSDOF 7
ENDMDL
MODEL 4
REMARK VINA RESULT:      -5.7      2.414      6.301
REMARK  Name = 5946784
REMARK  7 active torsions:
REMARK  status: ('A' for Active; 'I' for Inactive)
REMARK    1  A    between atoms: C_6  and  O_21
REMARK    2  A    between atoms: C_9  and  O_19
REMARK    3  A    between atoms: O_21  and  C_23
REMARK    4  A    between atoms: C_23  and  C_24
REMARK    5  A    between atoms: C_24  and  C_27
REMARK    6  A    between atoms: C_27  and  O_28
REMARK    7  A    between atoms: O_28  and  C_30
REMARK                            x       y       z     vdW  Elec       q    Type
REMARK                         _______ _______ _______ _____ _____    ______ ____
ROOT
ATOM      1  O   UNL     1     -34.604  22.457   1.783  0.00  0.00    -0.329 OA
ATOM      2  O   UNL     1     -33.190  25.260   4.487  0.00  0.00    -0.444 OA
ATOM      3  O   UNL     1     -33.581  26.846   6.110  0.00  0.00    -0.245 OA
ATOM      4  C   UNL     1     -35.900  21.847   1.924  0.00  0.00    +0.117 C 
ATOM      5  C   UNL     1     -35.269  24.168   4.441  0.00  0.00    +0.113 C 
ATOM      6  C   UNL     1     -36.567  23.665   3.776  0.00  0.00    +0.180 C 
ATOM      7  C   UNL     1     -36.514  22.195   3.296  0.00  0.00    +0.076 C 
ATOM      8  C   UNL     1     -34.021  24.459   3.599  0.00  0.00    +0.198 C 
ATOM      9  C   UNL     1     -34.605  23.344   0.645  0.00  0.00    +0.220 C 
ATOM     10  C   UNL     1     -36.691  22.329   0.756  0.00  0.00    +0.001 C 
ATOM     11  C   UNL     1     -35.344  25.451   5.215  0.00  0.00    +0.060 C 
ATOM     12  C   UNL     1     -34.368  24.792   1.061  0.00  0.00    +0.010 C 
ATOM     13  C   UNL     1     -34.168  25.242   2.317  0.00  0.00    +0.014 C 
ATOM     14  C   UNL     1     -35.700  20.330   1.816  0.00  0.00    +0.034 C 
ATOM     15  C   UNL     1     -35.953  23.154   0.020  0.00  0.00    +0.031 C 
ATOM     16  C   UNL     1     -33.967  25.971   5.358  0.00  0.00    +0.338 C 
ATOM     17  C   UNL     1     -34.384  25.803  -0.067  0.00  0.00    +0.031 C 
ATOM     18  C   UNL     1     -36.387  26.121   5.709  0.00  0.00    +0.002 C 
ENDROOT
BRANCH   9  19
ATOM     19  O   UNL     1     -33.573  22.957  -0.262  0.00  0.00    -0.358 OA
ATOM     20  H   UNL     1     -33.571  21.991  -0.356  0.00  0.00    +0.213 HD
ENDBRANCH   9  19
BRANCH   6  21
ATOM     21  O   UNL     1     -37.015  24.546   2.759  0.00  0.00    -0.449 OA
BRANCH  21  23
ATOM     22  O   UNL     1     -39.134  24.544   3.656  0.00  0.00    -0.245 OA
ATOM     23  C   UNL     1     -38.321  24.950   2.838  0.00  0.00    +0.340 C 
BRANCH  23  24
ATOM     24  C   UNL     1     -38.613  25.968   1.782  0.00  0.00    +0.093 C 
ATOM     25  C   UNL     1     -37.587  26.774   1.447  0.00  0.00    -0.020 C 
ATOM     26  C   UNL     1     -37.595  27.864   0.423  0.00  0.00    +0.031 C 
BRANCH  24  27
ATOM     27  C   UNL     1     -40.005  26.060   1.225  0.00  0.00    +0.241 C 
BRANCH  27  28
ATOM     28  O   UNL     1     -40.664  27.184   1.791  0.00  0.00    -0.443 OA
BRANCH  28  30
ATOM     29  O   UNL     1     -41.490  27.223   3.948  0.00  0.00    -0.250 OA
ATOM     30  C   UNL     1     -41.580  26.909   2.769  0.00  0.00    +0.318 C 
ATOM     31  C   UNL     1     -42.736  26.153   2.187  0.00  0.00    +0.121 C 
ENDBRANCH  28  30
ENDBRANCH  27  28
ENDBRANCH  24  27
ENDBRANCH  23  24
ENDBRANCH  21  23
ENDBRANCH   6  21
TORSDOF 7
ENDMDL
MODEL 5
REMARK VINA RESULT:      -5.7      1.323      2.046
REMARK  Name = 5946784
REMARK  7 active torsions:
REMARK  status: ('A' for Active; 'I' for Inactive)
REMARK    1  A    between atoms: C_6  and  O_21
REMARK    2  A    between atoms: C_9  and  O_19
REMARK    3  A    between atoms: O_21  and  C_23
REMARK    4  A    between atoms: C_23  and  C_24
REMARK    5  A    between atoms: C_24  and  C_27
REMARK    6  A    between atoms: C_27  and  O_28
REMARK    7  A    between atoms: O_28  and  C_30
REMARK                            x       y       z     vdW  Elec       q    Type
REMARK                         _______ _______ _______ _____ _____    ______ ____
ROOT
ATOM      1  O   UNL     1     -36.636  23.928   4.872  0.00  0.00    -0.329 OA
ATOM      2  O   UNL     1     -39.773  23.124   2.287  0.00  0.00    -0.444 OA
ATOM      3  O   UNL     1     -40.577  22.153   0.359  0.00  0.00    -0.245 OA
ATOM      4  C   UNL     1     -35.450  23.115   4.908  0.00  0.00    +0.117 C 
ATOM      5  C   UNL     1     -37.717  22.013   2.506  0.00  0.00    +0.113 C 
ATOM      6  C   UNL     1     -36.180  21.928   2.620  0.00  0.00    +0.180 C 
ATOM      7  C   UNL     1     -35.648  21.835   4.068  0.00  0.00    +0.076 C 
ATOM      8  C   UNL     1     -38.460  23.297   2.891  0.00  0.00    +0.198 C 
ATOM      9  C   UNL     1     -36.322  25.223   4.317  0.00  0.00    +0.220 C 
ATOM     10  C   UNL     1     -34.351  24.000   4.430  0.00  0.00    +0.001 C 
ATOM     11  C   UNL     1     -38.322  21.778   1.154  0.00  0.00    +0.060 C 
ATOM     12  C   UNL     1     -37.067  25.469   3.010  0.00  0.00    +0.010 C 
ATOM     13  C   UNL     1     -37.929  24.624   2.407  0.00  0.00    +0.014 C 
ATOM     14  C   UNL     1     -35.205  22.739   6.375  0.00  0.00    +0.034 C 
ATOM     15  C   UNL     1     -34.838  25.198   4.120  0.00  0.00    +0.031 C 
ATOM     16  C   UNL     1     -39.688  22.346   1.167  0.00  0.00    +0.338 C 
ATOM     17  C   UNL     1     -36.775  26.794   2.335  0.00  0.00    +0.031 C 
ATOM     18  C   UNL     1     -37.823  21.211   0.053  0.00  0.00    +0.002 C 
ENDROOT
BRANCH   9  19
ATOM     19  O   UNL     1     -36.687  26.241   5.248  0.00  0.00    -0.358 OA
ATOM     20  H   UNL     1     -35.903  26.522   5.744  0.00  0.00    +0.213 HD
ENDBRANCH   9  19
BRANCH   6  21
ATOM     21  O   UNL     1     -35.539  22.952   1.876  0.00  0.00    -0.449 OA
BRANCH  21  23
ATOM     22  O   UNL     1     -34.192  21.401   0.841  0.00  0.00    -0.245 OA
ATOM     23  C   UNL     1     -34.604  22.546   0.963  0.00  0.00    +0.340 C 
BRANCH  23  24
ATOM     24  C   UNL     1     -34.158  23.703   0.128  0.00  0.00    +0.093 C 
ATOM     25  C   UNL     1     -33.670  24.760   0.805  0.00  0.00    -0.020 C 
ATOM     26  C   UNL     1     -33.148  26.037   0.228  0.00  0.00    +0.031 C 
BRANCH  24  27
ATOM     27  C   UNL     1     -34.335  23.635  -1.362  0.00  0.00    +0.241 C 
BRANCH  27  28
ATOM     28  O   UNL     1     -35.721  23.611  -1.671  0.00  0.00    -0.443 OA
BRANCH  28  30
ATOM     29  O   UNL     1     -35.851  25.864  -2.164  0.00  0.00    -0.250 OA
ATOM     30  C   UNL     1     -36.340  24.829  -1.732  0.00  0.00    +0.318 C 
ATOM     31  C   UNL     1     -37.732  24.723  -1.186  0.00  0.00    +0.121 C 
ENDBRANCH  28  30
ENDBRANCH  27  28
ENDBRANCH  24  27
ENDBRANCH  23  24
ENDBRANCH  21  23
ENDBRANCH   6  21
TORSDOF 7
ENDMDL
MODEL 6
REMARK VINA RESULT:      -5.6      1.247      1.684
REMARK  Name = 5946784
REMARK  7 active torsions:
REMARK  status: ('A' for Active; 'I' for Inactive)
REMARK    1  A    between atoms: C_6  and  O_21
REMARK    2  A    between atoms: C_9  and  O_19
REMARK    3  A    between atoms: O_21  and  C_23
REMARK    4  A    between atoms: C_23  and  C_24
REMARK    5  A    between atoms: C_24  and  C_27
REMARK    6  A    between atoms: C_27  and  O_28
REMARK    7  A    between atoms: O_28  and  C_30
REMARK                            x       y       z     vdW  Elec       q    Type
REMARK                         _______ _______ _______ _____ _____    ______ ____
ROOT
ATOM      1  O   UNL     1     -36.622  24.284   4.877  0.00  0.00    -0.329 OA
ATOM      2  O   UNL     1     -39.918  23.848   2.405  0.00  0.00    -0.444 OA
ATOM      3  O   UNL     1     -40.892  22.986   0.504  0.00  0.00    -0.245 OA
ATOM      4  C   UNL     1     -35.531  23.346   4.867  0.00  0.00    +0.117 C 
ATOM      5  C   UNL     1     -37.989  22.517   2.544  0.00  0.00    +0.113 C 
ATOM      6  C   UNL     1     -36.468  22.265   2.601  0.00  0.00    +0.180 C 
ATOM      7  C   UNL     1     -35.898  22.102   4.030  0.00  0.00    +0.076 C 
ATOM      8  C   UNL     1     -38.573  23.872   2.961  0.00  0.00    +0.198 C 
ATOM      9  C   UNL     1     -36.188  25.542   4.316  0.00  0.00    +0.220 C 
ATOM     10  C   UNL     1     -34.360  24.110   4.352  0.00  0.00    +0.001 C 
ATOM     11  C   UNL     1     -38.664  22.361   1.214  0.00  0.00    +0.060 C 
ATOM     12  C   UNL     1     -36.948  25.878   3.038  0.00  0.00    +0.010 C 
ATOM     13  C   UNL     1     -37.919  25.137   2.463  0.00  0.00    +0.014 C 
ATOM     14  C   UNL     1     -35.276  22.934   6.322  0.00  0.00    +0.034 C 
ATOM     15  C   UNL     1     -34.724  25.356   4.065  0.00  0.00    +0.031 C 
ATOM     16  C   UNL     1     -39.958  23.074   1.279  0.00  0.00    +0.338 C 
ATOM     17  C   UNL     1     -36.537  27.168   2.357  0.00  0.00    +0.031 C 
ATOM     18  C   UNL     1     -38.271  21.751   0.093  0.00  0.00    +0.002 C 
ENDROOT
BRANCH   9  19
ATOM     19  O   UNL     1     -36.406  26.586   5.263  0.00  0.00    -0.358 OA
ATOM     20  H   UNL     1     -35.735  27.277   5.143  0.00  0.00    +0.213 HD
ENDBRANCH   9  19
BRANCH   6  21
ATOM     21  O   UNL     1     -35.746  23.219   1.839  0.00  0.00    -0.449 OA
BRANCH  21  23
ATOM     22  O   UNL     1     -34.565  21.536   0.806  0.00  0.00    -0.245 OA
ATOM     23  C   UNL     1     -34.840  22.720   0.943  0.00  0.00    +0.340 C 
BRANCH  23  24
ATOM     24  C   UNL     1     -34.235  23.830   0.145  0.00  0.00    +0.093 C 
ATOM     25  C   UNL     1     -35.105  24.711  -0.385  0.00  0.00    -0.020 C 
ATOM     26  C   UNL     1     -34.780  25.914  -1.212  0.00  0.00    +0.031 C 
BRANCH  24  27
ATOM     27  C   UNL     1     -32.747  23.855  -0.057  0.00  0.00    +0.241 C 
BRANCH  27  28
ATOM     28  O   UNL     1     -32.403  22.988  -1.128  0.00  0.00    -0.443 OA
BRANCH  28  30
ATOM     29  O   UNL     1     -30.102  22.779  -1.181  0.00  0.00    -0.250 OA
ATOM     30  C   UNL     1     -31.220  22.315  -0.994  0.00  0.00    +0.318 C 
ATOM     31  C   UNL     1     -31.482  20.900  -0.577  0.00  0.00    +0.121 C 
ENDBRANCH  28  30
ENDBRANCH  27  28
ENDBRANCH  24  27
ENDBRANCH  23  24
ENDBRANCH  21  23
ENDBRANCH   6  21
TORSDOF 7
ENDMDL
MODEL 7
REMARK VINA RESULT:      -5.6      1.756      2.727
REMARK  Name = 5946784
REMARK  7 active torsions:
REMARK  status: ('A' for Active; 'I' for Inactive)
REMARK    1  A    between atoms: C_6  and  O_21
REMARK    2  A    between atoms: C_9  and  O_19
REMARK    3  A    between atoms: O_21  and  C_23
REMARK    4  A    between atoms: C_23  and  C_24
REMARK    5  A    between atoms: C_24  and  C_27
REMARK    6  A    between atoms: C_27  and  O_28
REMARK    7  A    between atoms: O_28  and  C_30
REMARK                            x       y       z     vdW  Elec       q    Type
REMARK                         _______ _______ _______ _____ _____    ______ ____
ROOT
ATOM      1  O   UNL     1     -36.886  23.722   4.354  0.00  0.00    -0.329 OA
ATOM      2  O   UNL     1     -40.062  22.251   2.137  0.00  0.00    -0.444 OA
ATOM      3  O   UNL     1     -40.862  21.001   0.375  0.00  0.00    -0.245 OA
ATOM      4  C   UNL     1     -35.594  23.089   4.349  0.00  0.00    +0.117 C 
ATOM      5  C   UNL     1     -37.854  21.462   2.259  0.00  0.00    +0.113 C 
ATOM      6  C   UNL     1     -36.317  21.604   2.240  0.00  0.00    +0.180 C 
ATOM      7  C   UNL     1     -35.666  21.721   3.637  0.00  0.00    +0.076 C 
ATOM      8  C   UNL     1     -38.745  22.661   2.604  0.00  0.00    +0.198 C 
ATOM      9  C   UNL     1     -36.809  24.990   3.669  0.00  0.00    +0.220 C 
ATOM     10  C   UNL     1     -34.677  24.070   3.702  0.00  0.00    +0.001 C 
ATOM     11  C   UNL     1     -38.521  21.020   0.991  0.00  0.00    +0.060 C 
ATOM     12  C   UNL     1     -37.681  25.007   2.419  0.00  0.00    +0.010 C 
ATOM     13  C   UNL     1     -38.455  23.998   1.967  0.00  0.00    +0.014 C 
ATOM     14  C   UNL     1     -35.182  22.890   5.813  0.00  0.00    +0.034 C 
ATOM     15  C   UNL     1     -35.357  25.154   3.341  0.00  0.00    +0.031 C 
ATOM     16  C   UNL     1     -39.950  21.391   1.081  0.00  0.00    +0.338 C 
ATOM     17  C   UNL     1     -37.640  26.290   1.614  0.00  0.00    +0.031 C 
ATOM     18  C   UNL     1     -38.032  20.427  -0.101  0.00  0.00    +0.002 C 
ENDROOT
BRANCH   9  19
ATOM     19  O   UNL     1     -37.246  26.031   4.543  0.00  0.00    -0.358 OA
ATOM     20  H   UNL     1     -37.631  26.752   4.020  0.00  0.00    +0.213 HD
ENDBRANCH   9  19
BRANCH   6  21
ATOM     21  O   UNL     1     -35.894  22.633   1.360  0.00  0.00    -0.449 OA
BRANCH  21  23
ATOM     22  O   UNL     1     -33.860  21.747   0.749  0.00  0.00    -0.245 OA
ATOM     23  C   UNL     1     -34.913  22.301   0.466  0.00  0.00    +0.340 C 
BRANCH  23  24
ATOM     24  C   UNL     1     -35.313  22.708  -0.917  0.00  0.00    +0.093 C 
ATOM     25  C   UNL     1     -36.292  23.630  -0.994  0.00  0.00    -0.020 C 
ATOM     26  C   UNL     1     -36.877  24.221  -2.238  0.00  0.00    +0.031 C 
BRANCH  24  27
ATOM     27  C   UNL     1     -34.659  22.038  -2.091  0.00  0.00    +0.241 C 
BRANCH  27  28
ATOM     28  O   UNL     1     -35.215  20.742  -2.263  0.00  0.00    -0.443 OA
BRANCH  28  30
ATOM     29  O   UNL     1     -33.329  19.504  -2.765  0.00  0.00    -0.250 OA
ATOM     30  C   UNL     1     -34.347  19.696  -2.112  0.00  0.00    +0.318 C 
ATOM     31  C   UNL     1     -34.820  18.794  -1.013  0.00  0.00    +0.121 C 
ENDBRANCH  28  30
ENDBRANCH  27  28
ENDBRANCH  24  27
ENDBRANCH  23  24
ENDBRANCH  21  23
ENDBRANCH   6  21
TORSDOF 7
ENDMDL
MODEL 8
REMARK VINA RESULT:      -5.5      2.036      5.409
REMARK  Name = 5946784
REMARK  7 active torsions:
REMARK  status: ('A' for Active; 'I' for Inactive)
REMARK    1  A    between atoms: C_6  and  O_21
REMARK    2  A    between atoms: C_9  and  O_19
REMARK    3  A    between atoms: O_21  and  C_23
REMARK    4  A    between atoms: C_23  and  C_24
REMARK    5  A    between atoms: C_24  and  C_27
REMARK    6  A    between atoms: C_27  and  O_28
REMARK    7  A    between atoms: O_28  and  C_30
REMARK                            x       y       z     vdW  Elec       q    Type
REMARK                         _______ _______ _______ _____ _____    ______ ____
ROOT
ATOM      1  O   UNL     1     -35.823  20.809   0.078  0.00  0.00    -0.329 OA
ATOM      2  O   UNL     1     -37.419  24.219  -1.650  0.00  0.00    -0.444 OA
ATOM      3  O   UNL     1     -37.541  26.514  -1.801  0.00  0.00    -0.245 OA
ATOM      4  C   UNL     1     -34.555  20.820   0.757  0.00  0.00    +0.117 C 
ATOM      5  C   UNL     1     -35.423  23.972  -0.438  0.00  0.00    +0.113 C 
ATOM      6  C   UNL     1     -34.562  23.499   0.751  0.00  0.00    +0.180 C 
ATOM      7  C   UNL     1     -33.826  22.158   0.517  0.00  0.00    +0.076 C 
ATOM      8  C   UNL     1     -36.746  23.273  -0.772  0.00  0.00    +0.198 C 
ATOM      9  C   UNL     1     -36.887  20.623   1.036  0.00  0.00    +0.220 C 
ATOM     10  C   UNL     1     -34.870  20.539   2.186  0.00  0.00    +0.001 C 
ATOM     11  C   UNL     1     -35.898  25.395  -0.423  0.00  0.00    +0.060 C 
ATOM     12  C   UNL     1     -37.815  21.832   1.086  0.00  0.00    +0.010 C 
ATOM     13  C   UNL     1     -37.710  22.955   0.345  0.00  0.00    +0.014 C 
ATOM     14  C   UNL     1     -33.724  19.667   0.179  0.00  0.00    +0.034 C 
ATOM     15  C   UNL     1     -36.184  20.404   2.340  0.00  0.00    +0.031 C 
ATOM     16  C   UNL     1     -37.040  25.499  -1.357  0.00  0.00    +0.338 C 
ATOM     17  C   UNL     1     -38.946  21.742   2.090  0.00  0.00    +0.031 C 
ATOM     18  C   UNL     1     -35.483  26.453   0.277  0.00  0.00    +0.002 C 
ENDROOT
BRANCH   9  19
ATOM     19  O   UNL     1     -37.654  19.474   0.680  0.00  0.00    -0.358 OA
ATOM     20  H   UNL     1     -38.301  19.288   1.379  0.00  0.00    +0.213 HD
ENDBRANCH   9  19
BRANCH   6  21
ATOM     21  O   UNL     1     -35.291  23.507   1.967  0.00  0.00    -0.449 OA
BRANCH  21  23
ATOM     22  O   UNL     1     -33.807  24.999   2.896  0.00  0.00    -0.245 OA
ATOM     23  C   UNL     1     -34.742  24.218   3.000  0.00  0.00    +0.340 C 
BRANCH  23  24
ATOM     24  C   UNL     1     -35.453  23.908   4.278  0.00  0.00    +0.093 C 
ATOM     25  C   UNL     1     -35.034  22.806   4.928  0.00  0.00    -0.020 C 
ATOM     26  C   UNL     1     -35.556  22.270   6.224  0.00  0.00    +0.031 C 
BRANCH  24  27
ATOM     27  C   UNL     1     -36.593  24.786   4.708  0.00  0.00    +0.241 C 
BRANCH  27  28
ATOM     28  O   UNL     1     -37.784  24.362   4.059  0.00  0.00    -0.443 OA
BRANCH  28  30
ATOM     29  O   UNL     1     -37.847  26.224   2.693  0.00  0.00    -0.250 OA
ATOM     30  C   UNL     1     -38.397  25.295   3.269  0.00  0.00    +0.318 C 
ATOM     31  C   UNL     1     -39.869  25.020   3.202  0.00  0.00    +0.121 C 
ENDBRANCH  28  30
ENDBRANCH  27  28
ENDBRANCH  24  27
ENDBRANCH  23  24
ENDBRANCH  21  23
ENDBRANCH   6  21
TORSDOF 7
ENDMDL
MODEL 9
REMARK VINA RESULT:      -5.5      2.284      5.360
REMARK  Name = 5946784
REMARK  7 active torsions:
REMARK  status: ('A' for Active; 'I' for Inactive)
REMARK    1  A    between atoms: C_6  and  O_21
REMARK    2  A    between atoms: C_9  and  O_19
REMARK    3  A    between atoms: O_21  and  C_23
REMARK    4  A    between atoms: C_23  and  C_24
REMARK    5  A    between atoms: C_24  and  C_27
REMARK    6  A    between atoms: C_27  and  O_28
REMARK    7  A    between atoms: O_28  and  C_30
REMARK                            x       y       z     vdW  Elec       q    Type
REMARK                         _______ _______ _______ _____ _____    ______ ____
ROOT
ATOM      1  O   UNL     1     -35.434  19.917   0.128  0.00  0.00    -0.329 OA
ATOM      2  O   UNL     1     -36.582  22.139  -3.176  0.00  0.00    -0.444 OA
ATOM      3  O   UNL     1     -36.819  24.170  -4.235  0.00  0.00    -0.245 OA
ATOM      4  C   UNL     1     -34.487  20.415   1.090  0.00  0.00    +0.117 C 
ATOM      5  C   UNL     1     -35.122  22.728  -1.434  0.00  0.00    +0.113 C 
ATOM      6  C   UNL     1     -34.697  22.872   0.043  0.00  0.00    +0.180 C 
ATOM      7  C   UNL     1     -33.825  21.711   0.576  0.00  0.00    +0.076 C 
ATOM      8  C   UNL     1     -36.187  21.704  -1.843  0.00  0.00    +0.198 C 
ATOM      9  C   UNL     1     -36.747  19.858   0.723  0.00  0.00    +0.220 C 
ATOM     10  C   UNL     1     -35.260  20.580   2.354  0.00  0.00    +0.001 C 
ATOM     11  C   UNL     1     -35.680  23.944  -2.112  0.00  0.00    +0.060 C 
ATOM     12  C   UNL     1     -37.724  20.796   0.023  0.00  0.00    +0.010 C 
ATOM     13  C   UNL     1     -37.453  21.597  -1.029  0.00  0.00    +0.014 C 
ATOM     14  C   UNL     1     -33.421  19.329   1.279  0.00  0.00    +0.034 C 
ATOM     15  C   UNL     1     -36.530  20.241   2.154  0.00  0.00    +0.031 C 
ATOM     16  C   UNL     1     -36.428  23.490  -3.305  0.00  0.00    +0.338 C 
ATOM     17  C   UNL     1     -39.125  20.826   0.601  0.00  0.00    +0.031 C 
ATOM     18  C   UNL     1     -35.619  25.238  -1.790  0.00  0.00    +0.002 C 
ENDROOT
BRANCH   9  19
ATOM     19  O   UNL     1     -37.252  18.526   0.632  0.00  0.00    -0.358 OA
ATOM     20  H   UNL     1     -37.059  18.167  -0.249  0.00  0.00    +0.213 HD
ENDBRANCH   9  19
BRANCH   6  21
ATOM     21  O   UNL     1     -35.804  23.146   0.887  0.00  0.00    -0.449 OA
BRANCH  21  23
ATOM     22  O   UNL     1     -34.678  24.916   1.831  0.00  0.00    -0.245 OA
ATOM     23  C   UNL     1     -35.651  24.178   1.772  0.00  0.00    +0.340 C 
BRANCH  23  24
ATOM     24  C   UNL     1     -36.851  24.280   2.659  0.00  0.00    +0.093 C 
ATOM     25  C   UNL     1     -38.039  24.063   2.063  0.00  0.00    -0.020 C 
ATOM     26  C   UNL     1     -39.389  24.091   2.706  0.00  0.00    +0.031 C 
BRANCH  24  27
ATOM     27  C   UNL     1     -36.662  24.667   4.098  0.00  0.00    +0.241 C 
BRANCH  27  28
ATOM     28  O   UNL     1     -36.570  23.493   4.892  0.00  0.00    -0.443 OA
BRANCH  28  30
ATOM     29  O   UNL     1     -34.289  23.789   5.104  0.00  0.00    -0.250 OA
ATOM     30  C   UNL     1     -35.321  23.182   5.355  0.00  0.00    +0.318 C 
ATOM     31  C   UNL     1     -35.389  21.968   6.231  0.00  0.00    +0.121 C 
ENDBRANCH  28  30
ENDBRANCH  27  28
ENDBRANCH  24  27
ENDBRANCH  23  24
ENDBRANCH  21  23
ENDBRANCH   6  21
TORSDOF 7
ENDMDL
