MODEL 1
REMARK VINA RESULT:      -7.2      0.000      0.000
REMARK  Name = 54714258
REMARK  4 active torsions:
REMARK  status: ('A' for Active; 'I' for Inactive)
REMARK    1  A    between atoms: C_3  and  C_14
REMARK    2  A    between atoms: C_4  and  O_26
REMARK    3  A    between atoms: C_8  and  O_28
REMARK    4  A    between atoms: C_16  and  O_24
REMARK                            x       y       z     vdW  Elec       q    Type
REMARK                         _______ _______ _______ _____ _____    ______ ____
ROOT
ATOM      1  O   UNL     1     -37.801  17.951  -0.113  0.00  0.00    -0.418 OA
ATOM      2  O   UNL     1     -38.986  16.241  -1.070  0.00  0.00    -0.244 OA
ATOM      3  C   UNL     1     -35.325  20.294   1.257  0.00  0.00    +0.049 C 
ATOM      4  C   UNL     1     -36.544  19.732   0.888  0.00  0.00    +0.169 C 
ATOM      5  C   UNL     1     -36.551  18.494   0.249  0.00  0.00    +0.185 C 
ATOM      6  C   UNL     1     -35.373  17.805  -0.027  0.00  0.00    +0.072 C 
ATOM      7  C   UNL     1     -34.132  19.619   0.987  0.00  0.00    +0.040 C 
ATOM      8  C   UNL     1     -34.154  18.376   0.346  0.00  0.00    +0.137 C 
ATOM      9  C   UNL     1     -35.454  16.517  -0.696  0.00  0.00    +0.013 C 
ATOM     10  C   UNL     1     -36.642  16.010  -1.034  0.00  0.00    +0.082 C 
ATOM     11  C   UNL     1     -37.903  16.720  -0.752  0.00  0.00    +0.346 C 
ENDROOT
BRANCH   3  14
ATOM     12  O   UNL     1     -35.065  24.044   1.753  0.00  0.00    -0.421 OA
ATOM     13  O   UNL     1     -35.060  22.763  -0.130  0.00  0.00    -0.244 OA
ATOM     14  C   UNL     1     -35.264  21.602   1.935  0.00  0.00    +0.113 A 
ATOM     15  C   UNL     1     -35.274  23.000   3.941  0.00  0.00    +0.065 A 
ATOM     16  C   UNL     1     -35.334  21.695   3.278  0.00  0.00    +0.142 A 
ATOM     17  C   UNL     1     -35.140  24.140   3.154  0.00  0.00    +0.151 A 
ATOM     18  C   UNL     1     -35.343  23.166   5.330  0.00  0.00    -0.016 C 
ATOM     19  C   UNL     1     -35.124  22.823   1.094  0.00  0.00    +0.349 A 
ATOM     20  C   UNL     1     -35.075  25.421   3.705  0.00  0.00    +0.038 C 
ATOM     21  C   UNL     1     -35.279  24.443   5.899  0.00  0.00    -0.004 C 
ATOM     22  C   UNL     1     -35.487  22.036   6.300  0.00  0.00    +0.031 C 
ATOM     23  C   UNL     1     -35.145  25.568   5.087  0.00  0.00    +0.003 C 
BRANCH  16  24
ATOM     24  O   UNL     1     -35.461  20.617   4.131  0.00  0.00    -0.505 OA
ATOM     25  H   UNL     1     -36.280  20.450   4.556  0.00  0.00    +0.292 HD
ENDBRANCH  16  24
ENDBRANCH   3  14
BRANCH   4  26
ATOM     26  O   UNL     1     -37.719  20.374   1.143  0.00  0.00    -0.503 OA
ATOM     27  H   UNL     1     -38.026  21.039   0.558  0.00  0.00    +0.292 HD
ENDBRANCH   4  26
BRANCH   8  28
ATOM     28  O   UNL     1     -32.968  17.751   0.100  0.00  0.00    -0.505 OA
ATOM     29  H   UNL     1     -32.703  17.577  -0.781  0.00  0.00    +0.292 HD
ENDBRANCH   8  28
TORSDOF 4
ENDMDL
MODEL 2
REMARK VINA RESULT:      -7.0      0.914      2.373
REMARK  Name = 54714258
REMARK  4 active torsions:
REMARK  status: ('A' for Active; 'I' for Inactive)
REMARK    1  A    between atoms: C_3  and  C_14
REMARK    2  A    between atoms: C_4  and  O_26
REMARK    3  A    between atoms: C_8  and  O_28
REMARK    4  A    between atoms: C_16  and  O_24
REMARK                            x       y       z     vdW  Elec       q    Type
REMARK                         _______ _______ _______ _____ _____    ______ ____
ROOT
ATOM      1  O   UNL     1     -33.887  17.261   0.005  0.00  0.00    -0.418 OA
ATOM      2  O   UNL     1     -33.214  15.233  -0.819  0.00  0.00    -0.244 OA
ATOM      3  C   UNL     1     -35.618  20.312   1.098  0.00  0.00    +0.049 C 
ATOM      4  C   UNL     1     -34.609  19.381   0.862  0.00  0.00    +0.169 C 
ATOM      5  C   UNL     1     -34.930  18.182   0.229  0.00  0.00    +0.185 C 
ATOM      6  C   UNL     1     -36.231  17.892  -0.173  0.00  0.00    +0.072 C 
ATOM      7  C   UNL     1     -36.929  20.037   0.702  0.00  0.00    +0.040 C 
ATOM      8  C   UNL     1     -37.237  18.830   0.067  0.00  0.00    +0.137 C 
ATOM      9  C   UNL     1     -36.494  16.622  -0.829  0.00  0.00    +0.013 C 
ATOM     10  C   UNL     1     -35.501  15.755  -1.038  0.00  0.00    +0.082 C 
ATOM     11  C   UNL     1     -34.116  16.040  -0.621  0.00  0.00    +0.346 C 
ENDROOT
BRANCH   3  14
ATOM     12  O   UNL     1     -34.691  23.959   1.560  0.00  0.00    -0.421 OA
ATOM     13  O   UNL     1     -34.898  22.676  -0.311  0.00  0.00    -0.244 OA
ATOM     14  C   UNL     1     -35.329  21.596   1.764  0.00  0.00    +0.113 A 
ATOM     15  C   UNL     1     -35.106  22.996   3.755  0.00  0.00    +0.065 A 
ATOM     16  C   UNL     1     -35.394  21.715   3.105  0.00  0.00    +0.142 A 
ATOM     17  C   UNL     1     -34.762  24.084   2.959  0.00  0.00    +0.151 A 
ATOM     18  C   UNL     1     -35.158  23.187   5.142  0.00  0.00    -0.016 C 
ATOM     19  C   UNL     1     -34.963  22.761   0.912  0.00  0.00    +0.349 A 
ATOM     20  C   UNL     1     -34.471  25.338   3.499  0.00  0.00    +0.038 C 
ATOM     21  C   UNL     1     -34.871  24.438   5.699  0.00  0.00    -0.004 C 
ATOM     22  C   UNL     1     -35.513  22.113   6.121  0.00  0.00    +0.031 C 
ATOM     23  C   UNL     1     -34.527  25.512   4.878  0.00  0.00    +0.003 C 
BRANCH  16  24
ATOM     24  O   UNL     1     -35.722  20.688   3.967  0.00  0.00    -0.505 OA
ATOM     25  H   UNL     1     -35.392  20.689   4.844  0.00  0.00    +0.292 HD
ENDBRANCH  16  24
ENDBRANCH   3  14
BRANCH   4  26
ATOM     26  O   UNL     1     -33.323  19.629   1.239  0.00  0.00    -0.503 OA
ATOM     27  H   UNL     1     -32.723  18.919   1.356  0.00  0.00    +0.292 HD
ENDBRANCH   4  26
BRANCH   8  28
ATOM     28  O   UNL     1     -38.529  18.602  -0.302  0.00  0.00    -0.505 OA
ATOM     29  H   UNL     1     -38.822  18.846  -1.158  0.00  0.00    +0.292 HD
ENDBRANCH   8  28
TORSDOF 4
ENDMDL
MODEL 3
REMARK VINA RESULT:      -6.7      4.364      7.683
REMARK  Name = 54714258
REMARK  4 active torsions:
REMARK  status: ('A' for Active; 'I' for Inactive)
REMARK    1  A    between atoms: C_3  and  C_14
REMARK    2  A    between atoms: C_4  and  O_26
REMARK    3  A    between atoms: C_8  and  O_28
REMARK    4  A    between atoms: C_16  and  O_24
REMARK                            x       y       z     vdW  Elec       q    Type
REMARK                         _______ _______ _______ _____ _____    ______ ____
ROOT
ATOM      1  O   UNL     1     -35.138  23.992   5.539  0.00  0.00    -0.418 OA
ATOM      2  O   UNL     1     -35.933  22.198   6.719  0.00  0.00    -0.244 OA
ATOM      3  C   UNL     1     -33.929  26.435   3.074  0.00  0.00    +0.049 C 
ATOM      4  C   UNL     1     -34.305  25.860   4.286  0.00  0.00    +0.169 C 
ATOM      5  C   UNL     1     -34.765  24.545   4.297  0.00  0.00    +0.185 C 
ATOM      6  C   UNL     1     -34.858  23.792   3.129  0.00  0.00    +0.072 C 
ATOM      7  C   UNL     1     -34.018  25.695   1.893  0.00  0.00    +0.040 C 
ATOM      8  C   UNL     1     -34.481  24.376   1.918  0.00  0.00    +0.137 C 
ATOM      9  C   UNL     1     -35.347  22.426   3.213  0.00  0.00    +0.013 C 
ATOM     10  C   UNL     1     -35.697  21.910   4.394  0.00  0.00    +0.082 C 
ATOM     11  C   UNL     1     -35.607  22.687   5.643  0.00  0.00    +0.346 C 
ENDROOT
BRANCH   3  14
ATOM     12  O   UNL     1     -31.541  29.377   3.181  0.00  0.00    -0.421 OA
ATOM     13  O   UNL     1     -31.205  27.144   3.479  0.00  0.00    -0.244 OA
ATOM     14  C   UNL     1     -33.435  27.822   3.010  0.00  0.00    +0.113 A 
ATOM     15  C   UNL     1     -33.768  30.223   2.688  0.00  0.00    +0.065 A 
ATOM     16  C   UNL     1     -34.270  28.848   2.750  0.00  0.00    +0.142 A 
ATOM     17  C   UNL     1     -32.412  30.446   2.907  0.00  0.00    +0.151 A 
ATOM     18  C   UNL     1     -34.582  31.332   2.420  0.00  0.00    -0.016 C 
ATOM     19  C   UNL     1     -31.984  28.062   3.242  0.00  0.00    +0.349 A 
ATOM     20  C   UNL     1     -31.853  31.724   2.867  0.00  0.00    +0.038 C 
ATOM     21  C   UNL     1     -34.037  32.620   2.376  0.00  0.00    -0.004 C 
ATOM     22  C   UNL     1     -36.053  31.246   2.165  0.00  0.00    +0.031 C 
ATOM     23  C   UNL     1     -32.674  32.815   2.599  0.00  0.00    +0.003 C 
BRANCH  16  24
ATOM     24  O   UNL     1     -35.626  28.716   2.527  0.00  0.00    -0.505 OA
ATOM     25  H   UNL     1     -35.945  28.559   1.659  0.00  0.00    +0.292 HD
ENDBRANCH  16  24
ENDBRANCH   3  14
BRANCH   4  26
ATOM     26  O   UNL     1     -34.226  26.564   5.451  0.00  0.00    -0.503 OA
ATOM     27  H   UNL     1     -34.975  27.027   5.770  0.00  0.00    +0.292 HD
ENDBRANCH   4  26
BRANCH   8  28
ATOM     28  O   UNL     1     -34.552  23.690   0.742  0.00  0.00    -0.505 OA
ATOM     29  H   UNL     1     -35.010  24.057   0.012  0.00  0.00    +0.292 HD
ENDBRANCH   8  28
TORSDOF 4
ENDMDL
MODEL 4
REMARK VINA RESULT:      -6.5      1.550      7.437
REMARK  Name = 54714258
REMARK  4 active torsions:
REMARK  status: ('A' for Active; 'I' for Inactive)
REMARK    1  A    between atoms: C_3  and  C_14
REMARK    2  A    between atoms: C_4  and  O_26
REMARK    3  A    between atoms: C_8  and  O_28
REMARK    4  A    between atoms: C_16  and  O_24
REMARK                            x       y       z     vdW  Elec       q    Type
REMARK                         _______ _______ _______ _____ _____    ______ ____
ROOT
ATOM      1  O   UNL     1     -35.232  25.465   3.249  0.00  0.00    -0.418 OA
ATOM      2  O   UNL     1     -34.784  27.613   3.905  0.00  0.00    -0.244 OA
ATOM      3  C   UNL     1     -35.807  21.854   2.883  0.00  0.00    +0.049 C 
ATOM      4  C   UNL     1     -35.697  23.209   2.580  0.00  0.00    +0.169 C 
ATOM      5  C   UNL     1     -35.335  24.100   3.588  0.00  0.00    +0.185 C 
ATOM      6  C   UNL     1     -35.080  23.672   4.888  0.00  0.00    +0.072 C 
ATOM      7  C   UNL     1     -35.557  21.407   4.183  0.00  0.00    +0.040 C 
ATOM      8  C   UNL     1     -35.194  22.312   5.184  0.00  0.00    +0.137 C 
ATOM      9  C   UNL     1     -34.707  24.656   5.889  0.00  0.00    +0.013 C 
ATOM     10  C   UNL     1     -34.611  25.946   5.560  0.00  0.00    +0.082 C 
ATOM     11  C   UNL     1     -34.876  26.424   4.191  0.00  0.00    +0.346 C 
ENDROOT
BRANCH   3  14
ATOM     12  O   UNL     1     -37.917  19.972   0.359  0.00  0.00    -0.421 OA
ATOM     13  O   UNL     1     -38.403  21.727   1.727  0.00  0.00    -0.244 OA
ATOM     14  C   UNL     1     -36.187  20.872   1.852  0.00  0.00    +0.113 A 
ATOM     15  C   UNL     1     -35.691  18.993   0.369  0.00  0.00    +0.065 A 
ATOM     16  C   UNL     1     -35.302  19.964   1.394  0.00  0.00    +0.142 A 
ATOM     17  C   UNL     1     -36.993  19.027  -0.120  0.00  0.00    +0.151 A 
ATOM     18  C   UNL     1     -34.819  18.027  -0.151  0.00  0.00    -0.016 C 
ATOM     19  C   UNL     1     -37.580  20.909   1.327  0.00  0.00    +0.349 A 
ATOM     20  C   UNL     1     -37.444  18.138  -1.097  0.00  0.00    +0.038 C 
ATOM     21  C   UNL     1     -35.255  17.128  -1.131  0.00  0.00    -0.004 C 
ATOM     22  C   UNL     1     -33.394  17.871   0.276  0.00  0.00    +0.031 C 
ATOM     23  C   UNL     1     -36.566  17.184  -1.602  0.00  0.00    +0.003 C 
BRANCH  16  24
ATOM     24  O   UNL     1     -33.995  19.858   1.827  0.00  0.00    -0.505 OA
ATOM     25  H   UNL     1     -33.340  20.434   1.484  0.00  0.00    +0.292 HD
ENDBRANCH  16  24
ENDBRANCH   3  14
BRANCH   4  26
ATOM     26  O   UNL     1     -35.936  23.668   1.319  0.00  0.00    -0.503 OA
ATOM     27  H   UNL     1     -35.270  23.604   0.663  0.00  0.00    +0.292 HD
ENDBRANCH   4  26
BRANCH   8  28
ATOM     28  O   UNL     1     -34.958  21.833   6.439  0.00  0.00    -0.505 OA
ATOM     29  H   UNL     1     -34.089  21.839   6.787  0.00  0.00    +0.292 HD
ENDBRANCH   8  28
TORSDOF 4
ENDMDL
MODEL 5
REMARK VINA RESULT:      -6.4      2.627      4.332
REMARK  Name = 54714258
REMARK  4 active torsions:
REMARK  status: ('A' for Active; 'I' for Inactive)
REMARK    1  A    between atoms: C_3  and  C_14
REMARK    2  A    between atoms: C_4  and  O_26
REMARK    3  A    between atoms: C_8  and  O_28
REMARK    4  A    between atoms: C_16  and  O_24
REMARK                            x       y       z     vdW  Elec       q    Type
REMARK                         _______ _______ _______ _____ _____    ______ ____
ROOT
ATOM      1  O   UNL     1     -39.230  22.415   1.187  0.00  0.00    -0.418 OA
ATOM      2  O   UNL     1     -41.055  21.736  -0.018  0.00  0.00    -0.244 OA
ATOM      3  C   UNL     1     -36.012  22.883   2.898  0.00  0.00    +0.049 C 
ATOM      4  C   UNL     1     -37.310  23.110   2.445  0.00  0.00    +0.169 C 
ATOM      5  C   UNL     1     -37.916  22.157   1.629  0.00  0.00    +0.185 C 
ATOM      6  C   UNL     1     -37.260  20.987   1.257  0.00  0.00    +0.072 C 
ATOM      7  C   UNL     1     -35.338  21.716   2.533  0.00  0.00    +0.040 C 
ATOM      8  C   UNL     1     -35.959  20.768   1.714  0.00  0.00    +0.137 C 
ATOM      9  C   UNL     1     -37.953  20.036   0.404  0.00  0.00    +0.013 C 
ATOM     10  C   UNL     1     -39.197  20.288  -0.010  0.00  0.00    +0.082 C 
ATOM     11  C   UNL     1     -39.913  21.519   0.371  0.00  0.00    +0.346 C 
ENDROOT
BRANCH   3  14
ATOM     12  O   UNL     1     -34.835  24.658   6.035  0.00  0.00    -0.421 OA
ATOM     13  O   UNL     1     -36.163  22.832   5.738  0.00  0.00    -0.244 OA
ATOM     14  C   UNL     1     -35.327  23.861   3.764  0.00  0.00    +0.113 A 
ATOM     15  C   UNL     1     -33.900  25.815   4.110  0.00  0.00    +0.065 A 
ATOM     16  C   UNL     1     -34.577  24.850   3.240  0.00  0.00    +0.142 A 
ATOM     17  C   UNL     1     -34.051  25.689   5.487  0.00  0.00    +0.151 A 
ATOM     18  C   UNL     1     -33.104  26.864   3.630  0.00  0.00    -0.016 C 
ATOM     19  C   UNL     1     -35.486  23.725   5.239  0.00  0.00    +0.349 A 
ATOM     20  C   UNL     1     -33.441  26.566   6.386  0.00  0.00    +0.038 C 
ATOM     21  C   UNL     1     -32.486  27.751   4.517  0.00  0.00    -0.004 C 
ATOM     22  C   UNL     1     -32.851  27.123   2.178  0.00  0.00    +0.031 C 
ATOM     23  C   UNL     1     -32.654  27.603   5.893  0.00  0.00    +0.003 C 
BRANCH  16  24
ATOM     24  O   UNL     1     -34.379  25.050   1.889  0.00  0.00    -0.505 OA
ATOM     25  H   UNL     1     -34.849  24.532   1.265  0.00  0.00    +0.292 HD
ENDBRANCH  16  24
ENDBRANCH   3  14
BRANCH   4  26
ATOM     26  O   UNL     1     -37.986  24.242   2.789  0.00  0.00    -0.503 OA
ATOM     27  H   UNL     1     -38.664  24.205   3.435  0.00  0.00    +0.292 HD
ENDBRANCH   4  26
BRANCH   8  28
ATOM     28  O   UNL     1     -35.265  19.642   1.382  0.00  0.00    -0.505 OA
ATOM     29  H   UNL     1     -35.698  18.939   0.940  0.00  0.00    +0.292 HD
ENDBRANCH   8  28
TORSDOF 4
ENDMDL
MODEL 6
REMARK VINA RESULT:      -6.4      5.200      7.887
REMARK  Name = 54714258
REMARK  4 active torsions:
REMARK  status: ('A' for Active; 'I' for Inactive)
REMARK    1  A    between atoms: C_3  and  C_14
REMARK    2  A    between atoms: C_4  and  O_26
REMARK    3  A    between atoms: C_8  and  O_28
REMARK    4  A    between atoms: C_16  and  O_24
REMARK                            x       y       z     vdW  Elec       q    Type
REMARK                         _______ _______ _______ _____ _____    ______ ____
ROOT
ATOM      1  O   UNL     1     -36.463  22.634   4.489  0.00  0.00    -0.418 OA
ATOM      2  O   UNL     1     -35.188  21.180   5.714  0.00  0.00    -0.244 OA
ATOM      3  C   UNL     1     -38.021  25.455   2.723  0.00  0.00    +0.049 C 
ATOM      4  C   UNL     1     -37.789  24.171   3.210  0.00  0.00    +0.169 C 
ATOM      5  C   UNL     1     -36.671  23.944   4.011  0.00  0.00    +0.185 C 
ATOM      6  C   UNL     1     -35.783  24.966   4.336  0.00  0.00    +0.072 C 
ATOM      7  C   UNL     1     -37.140  26.492   3.037  0.00  0.00    +0.040 C 
ATOM      8  C   UNL     1     -36.022  26.250   3.842  0.00  0.00    +0.137 C 
ATOM      9  C   UNL     1     -34.638  24.658   5.176  0.00  0.00    +0.013 C 
ATOM     10  C   UNL     1     -34.449  23.415   5.625  0.00  0.00    +0.082 C 
ATOM     11  C   UNL     1     -35.375  22.317   5.295  0.00  0.00    +0.346 C 
ENDROOT
BRANCH   3  14
ATOM     12  O   UNL     1     -40.170  25.817  -0.379  0.00  0.00    -0.421 OA
ATOM     13  O   UNL     1     -38.017  25.127  -0.102  0.00  0.00    -0.244 OA
ATOM     14  C   UNL     1     -39.189  25.746   1.872  0.00  0.00    +0.113 A 
ATOM     15  C   UNL     1     -41.499  26.478   1.549  0.00  0.00    +0.065 A 
ATOM     16  C   UNL     1     -40.345  26.193   2.404  0.00  0.00    +0.142 A 
ATOM     17  C   UNL     1     -41.376  26.281   0.177  0.00  0.00    +0.151 A 
ATOM     18  C   UNL     1     -42.728  26.940   2.038  0.00  0.00    -0.016 C 
ATOM     19  C   UNL     1     -39.059  25.534   0.404  0.00  0.00    +0.349 A 
ATOM     20  C   UNL     1     -42.427  26.529  -0.707  0.00  0.00    +0.038 C 
ATOM     21  C   UNL     1     -43.792  27.193   1.165  0.00  0.00    -0.004 C 
ATOM     22  C   UNL     1     -43.008  27.197   3.485  0.00  0.00    +0.031 C 
ATOM     23  C   UNL     1     -43.641  26.988  -0.206  0.00  0.00    +0.003 C 
BRANCH  16  24
ATOM     24  O   UNL     1     -40.551  26.419   3.750  0.00  0.00    -0.505 OA
ATOM     25  H   UNL     1     -39.838  26.334   4.354  0.00  0.00    +0.292 HD
ENDBRANCH  16  24
ENDBRANCH   3  14
BRANCH   4  26
ATOM     26  O   UNL     1     -38.636  23.145   2.917  0.00  0.00    -0.503 OA
ATOM     27  H   UNL     1     -38.752  22.444   3.527  0.00  0.00    +0.292 HD
ENDBRANCH   4  26
BRANCH   8  28
ATOM     28  O   UNL     1     -35.187  27.290   4.125  0.00  0.00    -0.505 OA
ATOM     29  H   UNL     1     -35.229  28.076   3.616  0.00  0.00    +0.292 HD
ENDBRANCH   8  28
TORSDOF 4
ENDMDL
MODEL 7
REMARK VINA RESULT:      -6.4      3.781      5.835
REMARK  Name = 54714258
REMARK  4 active torsions:
REMARK  status: ('A' for Active; 'I' for Inactive)
REMARK    1  A    between atoms: C_3  and  C_14
REMARK    2  A    between atoms: C_4  and  O_26
REMARK    3  A    between atoms: C_8  and  O_28
REMARK    4  A    between atoms: C_16  and  O_24
REMARK                            x       y       z     vdW  Elec       q    Type
REMARK                         _______ _______ _______ _____ _____    ______ ____
ROOT
ATOM      1  O   UNL     1     -39.113  24.206   1.999  0.00  0.00    -0.418 OA
ATOM      2  O   UNL     1     -41.148  23.625   1.125  0.00  0.00    -0.244 OA
ATOM      3  C   UNL     1     -35.738  24.427   3.434  0.00  0.00    +0.049 C 
ATOM      4  C   UNL     1     -36.977  24.797   2.917  0.00  0.00    +0.169 C 
ATOM      5  C   UNL     1     -37.867  23.801   2.519  0.00  0.00    +0.185 C 
ATOM      6  C   UNL     1     -37.549  22.449   2.625  0.00  0.00    +0.072 C 
ATOM      7  C   UNL     1     -35.402  23.076   3.547  0.00  0.00    +0.040 C 
ATOM      8  C   UNL     1     -36.304  22.088   3.144  0.00  0.00    +0.137 C 
ATOM      9  C   UNL     1     -38.525  21.464   2.191  0.00  0.00    +0.013 C 
ATOM     10  C   UNL     1     -39.703  21.856   1.701  0.00  0.00    +0.082 C 
ATOM     11  C   UNL     1     -40.062  23.281   1.578  0.00  0.00    +0.346 C 
ENDROOT
BRANCH   3  14
ATOM     12  O   UNL     1     -33.975  26.967   5.628  0.00  0.00    -0.421 OA
ATOM     13  O   UNL     1     -35.798  25.653   6.000  0.00  0.00    -0.244 OA
ATOM     14  C   UNL     1     -34.762  25.443   3.870  0.00  0.00    +0.113 A 
ATOM     15  C   UNL     1     -32.804  26.859   3.499  0.00  0.00    +0.065 A 
ATOM     16  C   UNL     1     -33.768  25.850   3.054  0.00  0.00    +0.142 A 
ATOM     17  C   UNL     1     -32.938  27.389   4.778  0.00  0.00    +0.151 A 
ATOM     18  C   UNL     1     -31.749  27.323   2.702  0.00  0.00    -0.016 C 
ATOM     19  C   UNL     1     -34.903  26.010   5.240  0.00  0.00    +0.349 A 
ATOM     20  C   UNL     1     -32.062  28.355   5.278  0.00  0.00    +0.038 C 
ATOM     21  C   UNL     1     -30.862  28.290   3.189  0.00  0.00    -0.004 C 
ATOM     22  C   UNL     1     -31.480  26.845   1.310  0.00  0.00    +0.031 C 
ATOM     23  C   UNL     1     -31.019  28.805   4.474  0.00  0.00    +0.003 C 
BRANCH  16  24
ATOM     24  O   UNL     1     -33.567  25.380   1.772  0.00  0.00    -0.505 OA
ATOM     25  H   UNL     1     -33.351  25.978   1.083  0.00  0.00    +0.292 HD
ENDBRANCH  16  24
ENDBRANCH   3  14
BRANCH   4  26
ATOM     26  O   UNL     1     -37.326  26.108   2.798  0.00  0.00    -0.503 OA
ATOM     27  H   UNL     1     -37.956  26.370   2.156  0.00  0.00    +0.292 HD
ENDBRANCH   4  26
BRANCH   8  28
ATOM     28  O   UNL     1     -35.936  20.781   3.271  0.00  0.00    -0.505 OA
ATOM     29  H   UNL     1     -36.522  20.101   3.004  0.00  0.00    +0.292 HD
ENDBRANCH   8  28
TORSDOF 4
ENDMDL
MODEL 8
REMARK VINA RESULT:      -6.4      3.483      4.556
REMARK  Name = 54714258
REMARK  4 active torsions:
REMARK  status: ('A' for Active; 'I' for Inactive)
REMARK    1  A    between atoms: C_3  and  C_14
REMARK    2  A    between atoms: C_4  and  O_26
REMARK    3  A    between atoms: C_8  and  O_28
REMARK    4  A    between atoms: C_16  and  O_24
REMARK                            x       y       z     vdW  Elec       q    Type
REMARK                         _______ _______ _______ _____ _____    ______ ____
ROOT
ATOM      1  O   UNL     1     -41.795  20.739  -0.216  0.00  0.00    -0.418 OA
ATOM      2  O   UNL     1     -43.836  20.289  -1.151  0.00  0.00    -0.244 OA
ATOM      3  C   UNL     1     -38.318  21.599   0.607  0.00  0.00    +0.049 C 
ATOM      4  C   UNL     1     -39.649  21.213   0.747  0.00  0.00    +0.169 C 
ATOM      5  C   UNL     1     -40.452  21.132  -0.389  0.00  0.00    +0.185 C 
ATOM      6  C   UNL     1     -39.958  21.426  -1.657  0.00  0.00    +0.072 C 
ATOM      7  C   UNL     1     -37.806  21.899  -0.657  0.00  0.00    +0.040 C 
ATOM      8  C   UNL     1     -38.623  21.813  -1.789  0.00  0.00    +0.137 C 
ATOM      9  C   UNL     1     -40.851  21.320  -2.799  0.00  0.00    +0.013 C 
ATOM     10  C   UNL     1     -42.121  20.946  -2.626  0.00  0.00    +0.082 C 
ATOM     11  C   UNL     1     -42.667  20.630  -1.293  0.00  0.00    +0.346 C 
ENDROOT
BRANCH   3  14
ATOM     12  O   UNL     1     -35.766  20.632   3.238  0.00  0.00    -0.421 OA
ATOM     13  O   UNL     1     -36.631  19.479   1.474  0.00  0.00    -0.244 OA
ATOM     14  C   UNL     1     -37.428  21.699   1.779  0.00  0.00    +0.113 A 
ATOM     15  C   UNL     1     -36.480  22.915   3.675  0.00  0.00    +0.065 A 
ATOM     16  C   UNL     1     -37.369  22.827   2.514  0.00  0.00    +0.142 A 
ATOM     17  C   UNL     1     -35.702  21.810   4.003  0.00  0.00    +0.151 A 
ATOM     18  C   UNL     1     -36.369  24.059   4.478  0.00  0.00    -0.016 C 
ATOM     19  C   UNL     1     -36.594  20.516   2.129  0.00  0.00    +0.349 A 
ATOM     20  C   UNL     1     -34.831  21.811   5.093  0.00  0.00    +0.038 C 
ATOM     21  C   UNL     1     -35.499  24.076   5.574  0.00  0.00    -0.004 C 
ATOM     22  C   UNL     1     -37.140  25.320   4.248  0.00  0.00    +0.031 C 
ATOM     23  C   UNL     1     -34.732  22.953   5.882  0.00  0.00    +0.003 C 
BRANCH  16  24
ATOM     24  O   UNL     1     -38.108  23.965   2.262  0.00  0.00    -0.505 OA
ATOM     25  H   UNL     1     -38.931  23.901   1.819  0.00  0.00    +0.292 HD
ENDBRANCH  16  24
ENDBRANCH   3  14
BRANCH   4  26
ATOM     26  O   UNL     1     -40.170  20.915   1.971  0.00  0.00    -0.503 OA
ATOM     27  H   UNL     1     -39.922  20.122   2.405  0.00  0.00    +0.292 HD
ENDBRANCH   4  26
BRANCH   8  28
ATOM     28  O   UNL     1     -38.083  22.114  -3.004  0.00  0.00    -0.505 OA
ATOM     29  H   UNL     1     -38.258  22.944  -3.402  0.00  0.00    +0.292 HD
ENDBRANCH   8  28
TORSDOF 4
ENDMDL
MODEL 9
REMARK VINA RESULT:      -6.3      3.170      5.846
REMARK  Name = 54714258
REMARK  4 active torsions:
REMARK  status: ('A' for Active; 'I' for Inactive)
REMARK    1  A    between atoms: C_3  and  C_14
REMARK    2  A    between atoms: C_4  and  O_26
REMARK    3  A    between atoms: C_8  and  O_28
REMARK    4  A    between atoms: C_16  and  O_24
REMARK                            x       y       z     vdW  Elec       q    Type
REMARK                         _______ _______ _______ _____ _____    ______ ____
ROOT
ATOM      1  O   UNL     1     -34.385  22.148   0.771  0.00  0.00    -0.418 OA
ATOM      2  O   UNL     1     -34.116  20.098  -0.212  0.00  0.00    -0.244 OA
ATOM      3  C   UNL     1     -35.091  25.062   2.895  0.00  0.00    +0.049 C 
ATOM      4  C   UNL     1     -34.675  24.289   1.814  0.00  0.00    +0.169 C 
ATOM      5  C   UNL     1     -34.815  22.904   1.881  0.00  0.00    +0.185 C 
ATOM      6  C   UNL     1     -35.360  22.276   2.997  0.00  0.00    +0.072 C 
ATOM      7  C   UNL     1     -35.638  24.449   4.024  0.00  0.00    +0.040 C 
ATOM      8  C   UNL     1     -35.773  23.058   4.077  0.00  0.00    +0.137 C 
ATOM      9  C   UNL     1     -35.477  20.827   2.999  0.00  0.00    +0.013 C 
ATOM     10  C   UNL     1     -35.068  20.119   1.943  0.00  0.00    +0.082 C 
ATOM     11  C   UNL     1     -34.488  20.762   0.749  0.00  0.00    +0.346 C 
ENDROOT
BRANCH   3  14
ATOM     12  O   UNL     1     -35.921  28.702   2.237  0.00  0.00    -0.421 OA
ATOM     13  O   UNL     1     -37.053  26.784   1.764  0.00  0.00    -0.244 OA
ATOM     14  C   UNL     1     -34.964  26.531   2.874  0.00  0.00    +0.113 A 
ATOM     15  C   UNL     1     -33.773  28.606   3.375  0.00  0.00    +0.065 A 
ATOM     16  C   UNL     1     -33.887  27.146   3.402  0.00  0.00    +0.142 A 
ATOM     17  C   UNL     1     -34.798  29.343   2.791  0.00  0.00    +0.151 A 
ATOM     18  C   UNL     1     -32.682  29.305   3.909  0.00  0.00    -0.016 C 
ATOM     19  C   UNL     1     -36.062  27.321   2.250  0.00  0.00    +0.349 A 
ATOM     20  C   UNL     1     -34.767  30.737   2.723  0.00  0.00    +0.038 C 
ATOM     21  C   UNL     1     -32.636  30.703   3.849  0.00  0.00    -0.004 C 
ATOM     22  C   UNL     1     -31.510  28.650   4.567  0.00  0.00    +0.031 C 
ATOM     23  C   UNL     1     -33.676  31.417   3.257  0.00  0.00    +0.003 C 
BRANCH  16  24
ATOM     24  O   UNL     1     -32.826  26.492   3.995  0.00  0.00    -0.505 OA
ATOM     25  H   UNL     1     -32.970  25.951   4.747  0.00  0.00    +0.292 HD
ENDBRANCH  16  24
ENDBRANCH   3  14
BRANCH   4  26
ATOM     26  O   UNL     1     -34.139  24.867   0.702  0.00  0.00    -0.503 OA
ATOM     27  H   UNL     1     -34.615  24.861  -0.105  0.00  0.00    +0.292 HD
ENDBRANCH   4  26
BRANCH   8  28
ATOM     28  O   UNL     1     -36.312  22.500   5.198  0.00  0.00    -0.505 OA
ATOM     29  H   UNL     1     -36.409  21.570   5.259  0.00  0.00    +0.292 HD
ENDBRANCH   8  28
TORSDOF 4
ENDMDL
