MODEL 1
REMARK VINA RESULT:      -5.7      0.000      0.000
REMARK  Name = 57179268
REMARK  4 active torsions:
REMARK  status: ('A' for Active; 'I' for Inactive)
REMARK    1  A    between atoms: C_2  and  O_16
REMARK    2  A    between atoms: C_3  and  C_18
REMARK    3  A    between atoms: C_4  and  N_8
REMARK    4  A    between atoms: C_18  and  N_19
REMARK                            x       y       z     vdW  Elec       q    Type
REMARK                         _______ _______ _______ _____ _____    ______ ____
ROOT
ATOM      1  O   UNL     1     -37.128  24.616   4.980  0.00  0.00    -0.339 OA
ATOM      2  C   UNL     1     -35.186  25.672   4.116  0.00  0.00    +0.140 C 
ATOM      3  C   UNL     1     -35.735  24.844   5.271  0.00  0.00    +0.122 C 
ATOM      4  C   UNL     1     -37.395  25.011   3.627  0.00  0.00    +0.201 C 
ATOM      5  C   UNL     1     -36.052  25.245   2.954  0.00  0.00    +0.083 C 
ENDROOT
BRANCH   4   8
ATOM      6  O   UNL     1     -40.214  25.111   3.228  0.00  0.00    -0.252 OA
ATOM      7  O   UNL     1     -40.231  21.022   1.123  0.00  0.00    -0.270 OA
ATOM      8  N   UNL     1     -38.176  23.997   2.980  0.00  0.00    -0.219 N 
ATOM      9  N   UNL     1     -40.207  23.071   2.180  0.00  0.00    -0.236 N 
ATOM     10  C   UNL     1     -37.529  22.865   2.502  0.00  0.00    +0.071 C 
ATOM     11  C   UNL     1     -39.573  24.135   2.829  0.00  0.00    +0.315 C 
ATOM     12  C   UNL     1     -38.138  21.847   1.882  0.00  0.00    +0.047 C 
ATOM     13  C   UNL     1     -39.610  21.921   1.684  0.00  0.00    +0.250 C 
ATOM     14  C   UNL     1     -37.420  20.639   1.373  0.00  0.00    +0.037 C 
ATOM     15  H   UNL     1     -41.181  23.146   2.062  0.00  0.00    +0.159 HD
ENDBRANCH   4   8
BRANCH   2  16
ATOM     16  O   UNL     1     -35.418  27.056   4.367  0.00  0.00    -0.382 OA
ATOM     17  H   UNL     1     -36.342  27.270   4.163  0.00  0.00    +0.210 HD
ENDBRANCH   2  16
BRANCH   3  18
ATOM     18  C   UNL     1     -35.056  23.488   5.403  0.00  0.00    -0.053 C 
BRANCH  18  19
ATOM     19  N   UNL     1     -36.007  22.458   5.805  0.00  0.00    +0.382 N 
ATOM     20  H   UNL     1     -35.787  21.586   5.324  0.00  0.00    -0.089 HD
ATOM     21  H   UNL     1     -36.952  22.753   5.559  0.00  0.00    -0.089 HD
ATOM     22  H   UNL     1     -35.948  22.315   6.813  0.00  0.00    -0.089 HD
ENDBRANCH  18  19
ENDBRANCH   3  18
TORSDOF 4
ENDMDL
MODEL 2
REMARK VINA RESULT:      -5.6      2.148      2.619
REMARK  Name = 57179268
REMARK  4 active torsions:
REMARK  status: ('A' for Active; 'I' for Inactive)
REMARK    1  A    between atoms: C_2  and  O_16
REMARK    2  A    between atoms: C_3  and  C_18
REMARK    3  A    between atoms: C_4  and  N_8
REMARK    4  A    between atoms: C_18  and  N_19
REMARK                            x       y       z     vdW  Elec       q    Type
REMARK                         _______ _______ _______ _____ _____    ______ ____
ROOT
ATOM      1  O   UNL     1     -36.879  23.311   4.398  0.00  0.00    -0.339 OA
ATOM      2  C   UNL     1     -35.077  24.855   4.334  0.00  0.00    +0.140 C 
ATOM      3  C   UNL     1     -35.937  23.994   5.250  0.00  0.00    +0.122 C 
ATOM      4  C   UNL     1     -36.485  23.487   3.030  0.00  0.00    +0.201 C 
ATOM      5  C   UNL     1     -35.086  24.079   3.038  0.00  0.00    +0.083 C 
ENDROOT
BRANCH   4   8
ATOM      6  O   UNL     1     -38.845  22.360   1.899  0.00  0.00    -0.252 OA
ATOM      7  O   UNL     1     -36.574  18.635   0.448  0.00  0.00    -0.270 OA
ATOM      8  N   UNL     1     -36.558  22.228   2.348  0.00  0.00    -0.219 N 
ATOM      9  N   UNL     1     -37.700  20.508   1.181  0.00  0.00    -0.236 N 
ATOM     10  C   UNL     1     -35.395  21.477   2.216  0.00  0.00    +0.071 C 
ATOM     11  C   UNL     1     -37.776  21.750   1.820  0.00  0.00    +0.315 C 
ATOM     12  C   UNL     1     -35.325  20.289   1.605  0.00  0.00    +0.047 C 
ATOM     13  C   UNL     1     -36.569  19.721   1.022  0.00  0.00    +0.250 C 
ATOM     14  C   UNL     1     -34.063  19.500   1.473  0.00  0.00    +0.037 C 
ATOM     15  H   UNL     1     -38.537  20.155   0.804  0.00  0.00    +0.159 HD
ENDBRANCH   4   8
BRANCH   2  16
ATOM     16  O   UNL     1     -35.717  26.109   4.115  0.00  0.00    -0.382 OA
ATOM     17  H   UNL     1     -36.679  25.981   4.095  0.00  0.00    +0.210 HD
ENDBRANCH   2  16
BRANCH   3  18
ATOM     18  C   UNL     1     -35.135  22.940   6.000  0.00  0.00    -0.053 C 
BRANCH  18  19
ATOM     19  N   UNL     1     -35.938  21.750   6.259  0.00  0.00    +0.382 N 
ATOM     20  H   UNL     1     -36.917  22.015   6.356  0.00  0.00    -0.089 HD
ATOM     21  H   UNL     1     -35.619  21.305   7.120  0.00  0.00    -0.089 HD
ATOM     22  H   UNL     1     -35.837  21.096   5.482  0.00  0.00    -0.089 HD
ENDBRANCH  18  19
ENDBRANCH   3  18
TORSDOF 4
ENDMDL
MODEL 3
REMARK VINA RESULT:      -5.3      1.646      2.312
REMARK  Name = 57179268
REMARK  4 active torsions:
REMARK  status: ('A' for Active; 'I' for Inactive)
REMARK    1  A    between atoms: C_2  and  O_16
REMARK    2  A    between atoms: C_3  and  C_18
REMARK    3  A    between atoms: C_4  and  N_8
REMARK    4  A    between atoms: C_18  and  N_19
REMARK                            x       y       z     vdW  Elec       q    Type
REMARK                         _______ _______ _______ _____ _____    ______ ____
ROOT
ATOM      1  O   UNL     1     -36.481  24.048   5.017  0.00  0.00    -0.339 OA
ATOM      2  C   UNL     1     -34.229  24.384   4.348  0.00  0.00    +0.140 C 
ATOM      3  C   UNL     1     -35.126  23.945   5.498  0.00  0.00    +0.122 C 
ATOM      4  C   UNL     1     -36.460  24.259   3.598  0.00  0.00    +0.201 C 
ATOM      5  C   UNL     1     -35.037  24.008   3.128  0.00  0.00    +0.083 C 
ENDROOT
BRANCH   4   8
ATOM      6  O   UNL     1     -36.148  21.451   3.232  0.00  0.00    -0.252 OA
ATOM      7  O   UNL     1     -40.245  21.094   1.175  0.00  0.00    -0.270 OA
ATOM      8  N   UNL     1     -37.418  23.394   2.974  0.00  0.00    -0.219 N 
ATOM      9  N   UNL     1     -38.194  21.288   2.208  0.00  0.00    -0.236 N 
ATOM     10  C   UNL     1     -38.601  23.947   2.500  0.00  0.00    +0.071 C 
ATOM     11  C   UNL     1     -37.174  22.011   2.836  0.00  0.00    +0.315 C 
ATOM     12  C   UNL     1     -39.575  23.253   1.899  0.00  0.00    +0.047 C 
ATOM     13  C   UNL     1     -39.391  21.789   1.719  0.00  0.00    +0.250 C 
ATOM     14  C   UNL     1     -40.842  23.869   1.399  0.00  0.00    +0.037 C 
ATOM     15  H   UNL     1     -38.046  20.321   2.102  0.00  0.00    +0.159 HD
ENDBRANCH   4   8
BRANCH   2  16
ATOM     16  O   UNL     1     -34.079  25.801   4.371  0.00  0.00    -0.382 OA
ATOM     17  H   UNL     1     -33.139  26.025   4.462  0.00  0.00    +0.210 HD
ENDBRANCH   2  16
BRANCH   3  18
ATOM     18  C   UNL     1     -34.888  22.501   5.919  0.00  0.00    -0.053 C 
BRANCH  18  19
ATOM     19  N   UNL     1     -36.132  21.856   6.323  0.00  0.00    +0.382 N 
ATOM     20  H   UNL     1     -36.210  21.873   7.339  0.00  0.00    -0.089 HD
ATOM     21  H   UNL     1     -36.136  20.890   5.997  0.00  0.00    -0.089 HD
ATOM     22  H   UNL     1     -36.922  22.355   5.913  0.00  0.00    -0.089 HD
ENDBRANCH  18  19
ENDBRANCH   3  18
TORSDOF 4
ENDMDL
MODEL 4
REMARK VINA RESULT:      -5.3      2.659      5.705
REMARK  Name = 57179268
REMARK  4 active torsions:
REMARK  status: ('A' for Active; 'I' for Inactive)
REMARK    1  A    between atoms: C_2  and  O_16
REMARK    2  A    between atoms: C_3  and  C_18
REMARK    3  A    between atoms: C_4  and  N_8
REMARK    4  A    between atoms: C_18  and  N_19
REMARK                            x       y       z     vdW  Elec       q    Type
REMARK                         _______ _______ _______ _____ _____    ______ ____
ROOT
ATOM      1  O   UNL     1     -36.519  20.086   2.603  0.00  0.00    -0.339 OA
ATOM      2  C   UNL     1     -35.149  19.851   0.679  0.00  0.00    +0.140 C 
ATOM      3  C   UNL     1     -36.556  19.653   1.228  0.00  0.00    +0.122 C 
ATOM      4  C   UNL     1     -35.282  20.770   2.845  0.00  0.00    +0.201 C 
ATOM      5  C   UNL     1     -34.630  21.013   1.494  0.00  0.00    +0.083 C 
ENDROOT
BRANCH   4   8
ATOM      6  O   UNL     1     -35.206  21.044   5.680  0.00  0.00    -0.252 OA
ATOM      7  O   UNL     1     -36.307  25.503   5.448  0.00  0.00    -0.270 OA
ATOM      8  N   UNL     1     -35.541  21.982   3.568  0.00  0.00    -0.219 N 
ATOM      9  N   UNL     1     -35.756  23.267   5.549  0.00  0.00    -0.236 N 
ATOM     10  C   UNL     1     -35.858  23.128   2.848  0.00  0.00    +0.071 C 
ATOM     11  C   UNL     1     -35.481  22.020   4.977  0.00  0.00    +0.315 C 
ATOM     12  C   UNL     1     -36.121  24.319   3.398  0.00  0.00    +0.047 C 
ATOM     13  C   UNL     1     -36.076  24.438   4.880  0.00  0.00    +0.250 C 
ATOM     14  C   UNL     1     -36.457  25.540   2.605  0.00  0.00    +0.037 C 
ATOM     15  H   UNL     1     -35.719  23.318   6.531  0.00  0.00    +0.159 HD
ENDBRANCH   4   8
BRANCH   2  16
ATOM     16  O   UNL     1     -34.355  18.704   0.971  0.00  0.00    -0.382 OA
ATOM     17  H   UNL     1     -33.421  18.906   0.797  0.00  0.00    +0.210 HD
ENDBRANCH   2  16
BRANCH   3  18
ATOM     18  C   UNL     1     -37.600  20.489   0.502  0.00  0.00    -0.053 C 
BRANCH  18  19
ATOM     19  N   UNL     1     -38.667  20.902   1.405  0.00  0.00    +0.382 N 
ATOM     20  H   UNL     1     -38.810  21.909   1.325  0.00  0.00    -0.089 HD
ATOM     21  H   UNL     1     -38.411  20.671   2.364  0.00  0.00    -0.089 HD
ATOM     22  H   UNL     1     -39.529  20.416   1.158  0.00  0.00    -0.089 HD
ENDBRANCH  18  19
ENDBRANCH   3  18
TORSDOF 4
ENDMDL
MODEL 5
REMARK VINA RESULT:      -5.3      2.342      3.267
REMARK  Name = 57179268
REMARK  4 active torsions:
REMARK  status: ('A' for Active; 'I' for Inactive)
REMARK    1  A    between atoms: C_2  and  O_16
REMARK    2  A    between atoms: C_3  and  C_18
REMARK    3  A    between atoms: C_4  and  N_8
REMARK    4  A    between atoms: C_18  and  N_19
REMARK                            x       y       z     vdW  Elec       q    Type
REMARK                         _______ _______ _______ _____ _____    ______ ____
ROOT
ATOM      1  O   UNL     1     -35.124  24.297   2.367  0.00  0.00    -0.339 OA
ATOM      2  C   UNL     1     -34.710  25.150   4.543  0.00  0.00    +0.140 C 
ATOM      3  C   UNL     1     -34.759  25.505   3.063  0.00  0.00    +0.122 C 
ATOM      4  C   UNL     1     -35.553  23.317   3.323  0.00  0.00    +0.201 C 
ATOM      5  C   UNL     1     -35.721  24.032   4.654  0.00  0.00    +0.083 C 
ENDROOT
BRANCH   4   8
ATOM      6  O   UNL     1     -35.882  20.538   2.792  0.00  0.00    -0.252 OA
ATOM      7  O   UNL     1     -40.272  21.122   1.556  0.00  0.00    -0.270 OA
ATOM      8  N   UNL     1     -36.762  22.700   2.863  0.00  0.00    -0.219 N 
ATOM      9  N   UNL     1     -38.070  20.844   2.178  0.00  0.00    -0.236 N 
ATOM     10  C   UNL     1     -37.877  23.501   2.650  0.00  0.00    +0.071 C 
ATOM     11  C   UNL     1     -36.829  21.310   2.625  0.00  0.00    +0.315 C 
ATOM     12  C   UNL     1     -39.063  23.053   2.222  0.00  0.00    +0.047 C 
ATOM     13  C   UNL     1     -39.211  21.598   1.951  0.00  0.00    +0.250 C 
ATOM     14  C   UNL     1     -40.250  23.934   2.002  0.00  0.00    +0.037 C 
ATOM     15  H   UNL     1     -38.141  19.877   2.007  0.00  0.00    +0.159 HD
ENDBRANCH   4   8
BRANCH   2  16
ATOM     16  O   UNL     1     -33.424  24.629   4.868  0.00  0.00    -0.382 OA
ATOM     17  H   UNL     1     -32.980  24.336   4.057  0.00  0.00    +0.210 HD
ENDBRANCH   2  16
BRANCH   3  18
ATOM     18  C   UNL     1     -35.804  26.564   2.741  0.00  0.00    -0.053 C 
BRANCH  18  19
ATOM     19  N   UNL     1     -35.551  27.798   3.476  0.00  0.00    +0.382 N 
ATOM     20  H   UNL     1     -34.657  27.727   3.962  0.00  0.00    -0.089 HD
ATOM     21  H   UNL     1     -36.296  27.949   4.156  0.00  0.00    -0.089 HD
ATOM     22  H   UNL     1     -35.522  28.582   2.824  0.00  0.00    -0.089 HD
ENDBRANCH  18  19
ENDBRANCH   3  18
TORSDOF 4
ENDMDL
MODEL 6
REMARK VINA RESULT:      -5.2      2.692      5.357
REMARK  Name = 57179268
REMARK  4 active torsions:
REMARK  status: ('A' for Active; 'I' for Inactive)
REMARK    1  A    between atoms: C_2  and  O_16
REMARK    2  A    between atoms: C_3  and  C_18
REMARK    3  A    between atoms: C_4  and  N_8
REMARK    4  A    between atoms: C_18  and  N_19
REMARK                            x       y       z     vdW  Elec       q    Type
REMARK                         _______ _______ _______ _____ _____    ______ ____
ROOT
ATOM      1  O   UNL     1     -36.424  22.474   1.390  0.00  0.00    -0.339 OA
ATOM      2  C   UNL     1     -35.633  20.481   2.407  0.00  0.00    +0.140 C 
ATOM      3  C   UNL     1     -35.755  21.233   1.088  0.00  0.00    +0.122 C 
ATOM      4  C   UNL     1     -36.476  22.644   2.813  0.00  0.00    +0.201 C 
ATOM      5  C   UNL     1     -35.562  21.595   3.425  0.00  0.00    +0.083 C 
ENDROOT
BRANCH   4   8
ATOM      6  O   UNL     1     -38.181  24.597   3.996  0.00  0.00    -0.252 OA
ATOM      7  O   UNL     1     -34.832  27.748   4.026  0.00  0.00    -0.270 OA
ATOM      8  N   UNL     1     -36.093  23.985   3.147  0.00  0.00    -0.219 N 
ATOM      9  N   UNL     1     -36.501  26.158   4.005  0.00  0.00    -0.236 N 
ATOM     10  C   UNL     1     -34.790  24.388   2.881  0.00  0.00    +0.071 C 
ATOM     11  C   UNL     1     -37.010  24.884   3.732  0.00  0.00    +0.315 C 
ATOM     12  C   UNL     1     -34.305  25.608   3.142  0.00  0.00    +0.047 C 
ATOM     13  C   UNL     1     -35.213  26.611   3.760  0.00  0.00    +0.250 C 
ATOM     14  C   UNL     1     -32.899  26.019   2.850  0.00  0.00    +0.037 C 
ATOM     15  H   UNL     1     -37.123  26.802   4.414  0.00  0.00    +0.159 HD
ENDBRANCH   4   8
BRANCH   2  16
ATOM     16  O   UNL     1     -36.822  19.730   2.642  0.00  0.00    -0.382 OA
ATOM     17  H   UNL     1     -36.658  19.077   3.342  0.00  0.00    +0.210 HD
ENDBRANCH   2  16
BRANCH   3  18
ATOM     18  C   UNL     1     -34.406  21.567   0.469  0.00  0.00    -0.053 C 
BRANCH  18  19
ATOM     19  N   UNL     1     -33.457  20.475   0.649  0.00  0.00    +0.382 N 
ATOM     20  H   UNL     1     -32.545  20.753   0.287  0.00  0.00    -0.089 HD
ATOM     21  H   UNL     1     -33.785  19.652   0.145  0.00  0.00    -0.089 HD
ATOM     22  H   UNL     1     -33.375  20.255   1.642  0.00  0.00    -0.089 HD
ENDBRANCH  18  19
ENDBRANCH   3  18
TORSDOF 4
ENDMDL
MODEL 7
REMARK VINA RESULT:      -5.2      2.295      5.744
REMARK  Name = 57179268
REMARK  4 active torsions:
REMARK  status: ('A' for Active; 'I' for Inactive)
REMARK    1  A    between atoms: C_2  and  O_16
REMARK    2  A    between atoms: C_3  and  C_18
REMARK    3  A    between atoms: C_4  and  N_8
REMARK    4  A    between atoms: C_18  and  N_19
REMARK                            x       y       z     vdW  Elec       q    Type
REMARK                         _______ _______ _______ _____ _____    ______ ____
ROOT
ATOM      1  O   UNL     1     -37.346  22.381   3.013  0.00  0.00    -0.339 OA
ATOM      2  C   UNL     1     -36.488  20.657   1.626  0.00  0.00    +0.140 C 
ATOM      3  C   UNL     1     -37.587  21.703   1.764  0.00  0.00    +0.122 C 
ATOM      4  C   UNL     1     -36.051  22.009   3.506  0.00  0.00    +0.201 C 
ATOM      5  C   UNL     1     -35.337  21.276   2.383  0.00  0.00    +0.083 C 
ENDROOT
BRANCH   4   8
ATOM      6  O   UNL     1     -35.814  22.875   6.210  0.00  0.00    -0.252 OA
ATOM      7  O   UNL     1     -33.330  26.549   4.994  0.00  0.00    -0.270 OA
ATOM      8  N   UNL     1     -35.353  23.184   3.942  0.00  0.00    -0.219 N 
ATOM      9  N   UNL     1     -34.576  24.703   5.589  0.00  0.00    -0.236 N 
ATOM     10  C   UNL     1     -34.734  23.980   2.986  0.00  0.00    +0.071 C 
ATOM     11  C   UNL     1     -35.290  23.533   5.308  0.00  0.00    +0.315 C 
ATOM     12  C   UNL     1     -34.052  25.100   3.258  0.00  0.00    +0.047 C 
ATOM     13  C   UNL     1     -33.942  25.532   4.676  0.00  0.00    +0.250 C 
ATOM     14  C   UNL     1     -33.392  25.940   2.213  0.00  0.00    +0.037 C 
ATOM     15  H   UNL     1     -34.518  24.966   6.536  0.00  0.00    +0.159 HD
ENDBRANCH   4   8
BRANCH   2  16
ATOM     16  O   UNL     1     -36.878  19.461   2.297  0.00  0.00    -0.382 OA
ATOM     17  H   UNL     1     -36.786  19.584   3.255  0.00  0.00    +0.210 HD
ENDBRANCH   2  16
BRANCH   3  18
ATOM     18  C   UNL     1     -37.558  22.744   0.654  0.00  0.00    -0.053 C 
BRANCH  18  19
ATOM     19  N   UNL     1     -37.942  24.059   1.152  0.00  0.00    +0.382 N 
ATOM     20  H   UNL     1     -37.114  24.551   1.486  0.00  0.00    -0.089 HD
ATOM     21  H   UNL     1     -38.606  23.952   1.919  0.00  0.00    -0.089 HD
ATOM     22  H   UNL     1     -38.376  24.594   0.400  0.00  0.00    -0.089 HD
ENDBRANCH  18  19
ENDBRANCH   3  18
TORSDOF 4
ENDMDL
MODEL 8
REMARK VINA RESULT:      -5.2      3.465      6.944
REMARK  Name = 57179268
REMARK  4 active torsions:
REMARK  status: ('A' for Active; 'I' for Inactive)
REMARK    1  A    between atoms: C_2  and  O_16
REMARK    2  A    between atoms: C_3  and  C_18
REMARK    3  A    between atoms: C_4  and  N_8
REMARK    4  A    between atoms: C_18  and  N_19
REMARK                            x       y       z     vdW  Elec       q    Type
REMARK                         _______ _______ _______ _____ _____    ______ ____
ROOT
ATOM      1  O   UNL     1     -35.929  25.947   5.485  0.00  0.00    -0.339 OA
ATOM      2  C   UNL     1     -35.737  23.690   4.777  0.00  0.00    +0.140 C 
ATOM      3  C   UNL     1     -36.659  24.902   4.813  0.00  0.00    +0.122 C 
ATOM      4  C   UNL     1     -34.558  25.548   5.621  0.00  0.00    +0.201 C 
ATOM      5  C   UNL     1     -34.362  24.314   4.756  0.00  0.00    +0.083 C 
ENDROOT
BRANCH   4   8
ATOM      6  O   UNL     1     -32.867  27.003   7.393  0.00  0.00    -0.252 OA
ATOM      7  O   UNL     1     -31.352  29.708   3.997  0.00  0.00    -0.270 OA
ATOM      8  N   UNL     1     -33.705  26.638   5.244  0.00  0.00    -0.219 N 
ATOM      9  N   UNL     1     -32.120  28.345   5.690  0.00  0.00    -0.236 N 
ATOM     10  C   UNL     1     -33.685  27.035   3.913  0.00  0.00    +0.071 C 
ATOM     11  C   UNL     1     -32.901  27.301   6.196  0.00  0.00    +0.315 C 
ATOM     12  C   UNL     1     -32.938  28.035   3.431  0.00  0.00    +0.047 C 
ATOM     13  C   UNL     1     -32.063  28.780   4.374  0.00  0.00    +0.250 C 
ATOM     14  C   UNL     1     -32.930  28.444   1.993  0.00  0.00    +0.037 C 
ATOM     15  H   UNL     1     -31.550  28.821   6.335  0.00  0.00    +0.159 HD
ENDBRANCH   4   8
BRANCH   2  16
ATOM     16  O   UNL     1     -35.877  22.946   5.985  0.00  0.00    -0.382 OA
ATOM     17  H   UNL     1     -35.037  22.504   6.190  0.00  0.00    +0.210 HD
ENDBRANCH   2  16
BRANCH   3  18
ATOM     18  C   UNL     1     -37.029  25.408   3.426  0.00  0.00    -0.053 C 
BRANCH  18  19
ATOM     19  N   UNL     1     -38.252  26.200   3.460  0.00  0.00    +0.382 N 
ATOM     20  H   UNL     1     -38.156  27.002   2.839  0.00  0.00    -0.089 HD
ATOM     21  H   UNL     1     -38.421  26.525   4.412  0.00  0.00    -0.089 HD
ATOM     22  H   UNL     1     -39.038  25.626   3.154  0.00  0.00    -0.089 HD
ENDBRANCH  18  19
ENDBRANCH   3  18
TORSDOF 4
ENDMDL
MODEL 9
REMARK VINA RESULT:      -5.2      1.957      5.052
REMARK  Name = 57179268
REMARK  4 active torsions:
REMARK  status: ('A' for Active; 'I' for Inactive)
REMARK    1  A    between atoms: C_2  and  O_16
REMARK    2  A    between atoms: C_3  and  C_18
REMARK    3  A    between atoms: C_4  and  N_8
REMARK    4  A    between atoms: C_18  and  N_19
REMARK                            x       y       z     vdW  Elec       q    Type
REMARK                         _______ _______ _______ _____ _____    ______ ____
ROOT
ATOM      1  O   UNL     1     -37.295  22.889   1.065  0.00  0.00    -0.339 OA
ATOM      2  C   UNL     1     -39.175  21.462   1.314  0.00  0.00    +0.140 C 
ATOM      3  C   UNL     1     -37.726  21.531   0.850  0.00  0.00    +0.122 C 
ATOM      4  C   UNL     1     -38.275  23.571   1.859  0.00  0.00    +0.201 C 
ATOM      5  C   UNL     1     -39.233  22.519   2.393  0.00  0.00    +0.083 C 
ENDROOT
BRANCH   4   8
ATOM      6  O   UNL     1     -38.657  26.341   2.409  0.00  0.00    -0.252 OA
ATOM      7  O   UNL     1     -35.658  26.236   5.893  0.00  0.00    -0.270 OA
ATOM      8  N   UNL     1     -37.617  24.308   2.899  0.00  0.00    -0.219 N 
ATOM      9  N   UNL     1     -37.159  26.274   4.144  0.00  0.00    -0.236 N 
ATOM     10  C   UNL     1     -36.715  23.639   3.717  0.00  0.00    +0.071 C 
ATOM     11  C   UNL     1     -37.871  25.683   3.095  0.00  0.00    +0.315 C 
ATOM     12  C   UNL     1     -36.035  24.207   4.720  0.00  0.00    +0.047 C 
ATOM     13  C   UNL     1     -36.250  25.654   4.988  0.00  0.00    +0.250 C 
ATOM     14  C   UNL     1     -35.070  23.467   5.589  0.00  0.00    +0.037 C 
ATOM     15  H   UNL     1     -37.321  27.232   4.300  0.00  0.00    +0.159 HD
ENDBRANCH   4   8
BRANCH   2  16
ATOM     16  O   UNL     1     -40.038  21.855   0.250  0.00  0.00    -0.382 OA
ATOM     17  H   UNL     1     -40.934  21.996   0.597  0.00  0.00    +0.210 HD
ENDBRANCH   2  16
BRANCH   3  18
ATOM     18  C   UNL     1     -36.804  20.616   1.644  0.00  0.00    -0.053 C 
BRANCH  18  19
ATOM     19  N   UNL     1     -36.978  19.222   1.254  0.00  0.00    +0.382 N 
ATOM     20  H   UNL     1     -37.373  19.178   0.315  0.00  0.00    -0.089 HD
ATOM     21  H   UNL     1     -37.609  18.761   1.909  0.00  0.00    -0.089 HD
ATOM     22  H   UNL     1     -36.074  18.750   1.265  0.00  0.00    -0.089 HD
ENDBRANCH  18  19
ENDBRANCH   3  18
TORSDOF 4
ENDMDL
