MODEL 1
REMARK VINA RESULT:      -5.7      0.000      0.000
REMARK  Name = 5064
REMARK  6 active torsions:
REMARK  status: ('A' for Active; 'I' for Inactive)
REMARK    1  A    between atoms: C3*_2  and  O3*_18
REMARK    2  A    between atoms: C2*_3  and  O2*_16
REMARK    3  A    between atoms: C4*_4  and  C5*_20
REMARK    4  A    between atoms: C1*_5  and  N_6
REMARK    5  A    between atoms: C_10  and  C_13
REMARK    6  A    between atoms: C5*_20  and  O5*_21
REMARK                            x       y       z     vdW  Elec       q    Type
REMARK                         _______ _______ _______ _____ _____    ______ ____
ROOT
ATOM      1  O4* UNL     1     -34.506  24.327   5.575  0.00  0.00    -0.332 OA
ATOM      2  C3* UNL     1     -35.706  26.256   4.920  0.00  0.00    +0.171 C 
ATOM      3  C2* UNL     1     -36.400  25.053   4.317  0.00  0.00    +0.188 C 
ATOM      4  C4* UNL     1     -34.318  25.701   5.196  0.00  0.00    +0.175 C 
ATOM      5  C1* UNL     1     -35.816  23.912   5.143  0.00  0.00    +0.240 C 
ENDROOT
BRANCH   5   6
ATOM      6  N   UNL     1     -35.704  22.654   4.407  0.00  0.00    -0.172 N 
ATOM      7  N   UNL     1     -36.202  22.534   3.167  0.00  0.00    -0.120 NA
ATOM      8  N   UNL     1     -35.225  20.590   3.873  0.00  0.00    -0.191 NA
ATOM      9  C   UNL     1     -35.125  21.495   4.820  0.00  0.00    +0.250 C 
ATOM     10  C   UNL     1     -35.887  21.267   2.889  0.00  0.00    +0.104 C 
BRANCH  10  13
ATOM     11  O   UNL     1     -35.940  21.203   0.536  0.00  0.00    -0.259 OA
ATOM     12  N   UNL     1     -36.887  19.430   1.640  0.00  0.00    -0.317 N 
ATOM     13  C   UNL     1     -36.227  20.668   1.634  0.00  0.00    +0.307 C 
ATOM     14  H   UNL     1     -37.132  18.999   0.789  0.00  0.00    +0.146 HD
ATOM     15  H   UNL     1     -37.107  18.994   2.495  0.00  0.00    +0.146 HD
ENDBRANCH  10  13
ENDBRANCH   5   6
BRANCH   3  16
ATOM     16  O2* UNL     1     -37.808  25.133   4.451  0.00  0.00    -0.378 OA
ATOM     17  H2* UNL     1     -38.099  24.537   5.159  0.00  0.00    +0.211 HD
ENDBRANCH   3  16
BRANCH   2  18
ATOM     18  O3* UNL     1     -35.674  27.335   4.006  0.00  0.00    -0.379 OA
ATOM     19  H3* UNL     1     -36.112  28.106   4.399  0.00  0.00    +0.211 HD
ENDBRANCH   2  18
BRANCH   4  20
ATOM     20  C5* UNL     1     -33.583  26.437   6.303  0.00  0.00    +0.169 C 
BRANCH  20  21
ATOM     21  O5* UNL     1     -33.061  27.647   5.780  0.00  0.00    -0.379 OA
ATOM     22  H5* UNL     1     -32.126  27.729   6.028  0.00  0.00    +0.211 HD
ENDBRANCH  20  21
ENDBRANCH   4  20
TORSDOF 6
ENDMDL
MODEL 2
REMARK VINA RESULT:      -5.5      3.459      6.191
REMARK  Name = 5064
REMARK  6 active torsions:
REMARK  status: ('A' for Active; 'I' for Inactive)
REMARK    1  A    between atoms: C3*_2  and  O3*_18
REMARK    2  A    between atoms: C2*_3  and  O2*_16
REMARK    3  A    between atoms: C4*_4  and  C5*_20
REMARK    4  A    between atoms: C1*_5  and  N_6
REMARK    5  A    between atoms: C_10  and  C_13
REMARK    6  A    between atoms: C5*_20  and  O5*_21
REMARK                            x       y       z     vdW  Elec       q    Type
REMARK                         _______ _______ _______ _____ _____    ______ ____
ROOT
ATOM      1  O4* UNL     1     -34.460  24.064   5.440  0.00  0.00    -0.332 OA
ATOM      2  C3* UNL     1     -35.750  22.714   3.989  0.00  0.00    +0.171 C 
ATOM      3  C2* UNL     1     -35.300  23.932   3.210  0.00  0.00    +0.188 C 
ATOM      4  C4* UNL     1     -35.610  23.200   5.422  0.00  0.00    +0.175 C 
ATOM      5  C1* UNL     1     -34.170  24.461   4.087  0.00  0.00    +0.240 C 
ENDROOT
BRANCH   5   6
ATOM      6  N   UNL     1     -34.018  25.914   4.033  0.00  0.00    -0.172 N 
ATOM      7  N   UNL     1     -32.850  26.496   4.347  0.00  0.00    -0.120 NA
ATOM      8  N   UNL     1     -34.432  28.042   3.761  0.00  0.00    -0.191 NA
ATOM      9  C   UNL     1     -34.952  26.839   3.686  0.00  0.00    +0.250 C 
ATOM     10  C   UNL     1     -33.154  27.783   4.166  0.00  0.00    +0.104 C 
BRANCH  10  13
ATOM     11  O   UNL     1     -31.043  28.787   3.879  0.00  0.00    -0.259 OA
ATOM     12  N   UNL     1     -32.554  29.913   5.185  0.00  0.00    -0.317 N 
ATOM     13  C   UNL     1     -32.190  28.819   4.387  0.00  0.00    +0.307 C 
ATOM     14  H   UNL     1     -31.908  30.638   5.352  0.00  0.00    +0.146 HD
ATOM     15  H   UNL     1     -33.455  29.957   5.579  0.00  0.00    +0.146 HD
ENDBRANCH  10  13
ENDBRANCH   5   6
BRANCH   3  16
ATOM     16  O2* UNL     1     -34.844  23.591   1.912  0.00  0.00    -0.378 OA
ATOM     17  H2* UNL     1     -34.065  23.017   1.985  0.00  0.00    +0.211 HD
ENDBRANCH   3  16
BRANCH   2  18
ATOM     18  O3* UNL     1     -37.086  22.374   3.672  0.00  0.00    -0.379 OA
ATOM     19  H3* UNL     1     -37.099  21.823   2.874  0.00  0.00    +0.211 HD
ENDBRANCH   2  18
BRANCH   4  20
ATOM     20  C5* UNL     1     -35.415  22.076   6.424  0.00  0.00    +0.169 C 
BRANCH  20  21
ATOM     21  O5* UNL     1     -35.389  20.841   5.727  0.00  0.00    -0.379 OA
ATOM     22  H5* UNL     1     -34.490  20.477   5.748  0.00  0.00    +0.211 HD
ENDBRANCH  20  21
ENDBRANCH   4  20
TORSDOF 6
ENDMDL
MODEL 3
REMARK VINA RESULT:      -5.5      2.785      6.227
REMARK  Name = 5064
REMARK  6 active torsions:
REMARK  status: ('A' for Active; 'I' for Inactive)
REMARK    1  A    between atoms: C3*_2  and  O3*_18
REMARK    2  A    between atoms: C2*_3  and  O2*_16
REMARK    3  A    between atoms: C4*_4  and  C5*_20
REMARK    4  A    between atoms: C1*_5  and  N_6
REMARK    5  A    between atoms: C_10  and  C_13
REMARK    6  A    between atoms: C5*_20  and  O5*_21
REMARK                            x       y       z     vdW  Elec       q    Type
REMARK                         _______ _______ _______ _____ _____    ______ ____
ROOT
ATOM      1  O4* UNL     1     -36.600  23.971   3.486  0.00  0.00    -0.332 OA
ATOM      2  C3* UNL     1     -36.057  21.828   4.327  0.00  0.00    +0.171 C 
ATOM      3  C2* UNL     1     -35.305  22.852   5.150  0.00  0.00    +0.188 C 
ATOM      4  C4* UNL     1     -36.362  22.617   3.064  0.00  0.00    +0.175 C 
ATOM      5  C1* UNL     1     -36.054  24.136   4.809  0.00  0.00    +0.240 C 
ENDROOT
BRANCH   5   6
ATOM      6  N   UNL     1     -35.212  25.331   4.837  0.00  0.00    -0.172 N 
ATOM      7  N   UNL     1     -34.220  25.453   5.731  0.00  0.00    -0.120 NA
ATOM      8  N   UNL     1     -34.355  27.285   4.368  0.00  0.00    -0.191 NA
ATOM      9  C   UNL     1     -35.286  26.423   4.031  0.00  0.00    +0.250 C 
ATOM     10  C   UNL     1     -33.733  26.652   5.406  0.00  0.00    +0.104 C 
BRANCH  10  13
ATOM     11  O   UNL     1     -31.649  27.744   5.513  0.00  0.00    -0.259 OA
ATOM     12  N   UNL     1     -32.651  27.230   7.511  0.00  0.00    -0.317 N 
ATOM     13  C   UNL     1     -32.626  27.229   6.108  0.00  0.00    +0.307 C 
ATOM     14  H   UNL     1     -31.901  27.620   8.016  0.00  0.00    +0.146 HD
ATOM     15  H   UNL     1     -33.417  26.840   7.990  0.00  0.00    +0.146 HD
ENDBRANCH  10  13
ENDBRANCH   5   6
BRANCH   3  16
ATOM     16  O2* UNL     1     -35.363  22.561   6.536  0.00  0.00    -0.378 OA
ATOM     17  H2* UNL     1     -36.284  22.607   6.837  0.00  0.00    +0.211 HD
ENDBRANCH   3  16
BRANCH   2  18
ATOM     18  O3* UNL     1     -35.251  20.696   4.064  0.00  0.00    -0.379 OA
ATOM     19  H3* UNL     1     -34.687  20.514   4.832  0.00  0.00    +0.211 HD
ENDBRANCH   2  18
BRANCH   4  20
ATOM     20  C5* UNL     1     -37.573  22.101   2.308  0.00  0.00    +0.169 C 
BRANCH  20  21
ATOM     21  O5* UNL     1     -37.568  20.684   2.347  0.00  0.00    -0.379 OA
ATOM     22  H5* UNL     1     -38.406  20.348   1.989  0.00  0.00    +0.211 HD
ENDBRANCH  20  21
ENDBRANCH   4  20
TORSDOF 6
ENDMDL
MODEL 4
REMARK VINA RESULT:      -5.5      3.430      5.786
REMARK  Name = 5064
REMARK  6 active torsions:
REMARK  status: ('A' for Active; 'I' for Inactive)
REMARK    1  A    between atoms: C3*_2  and  O3*_18
REMARK    2  A    between atoms: C2*_3  and  O2*_16
REMARK    3  A    between atoms: C4*_4  and  C5*_20
REMARK    4  A    between atoms: C1*_5  and  N_6
REMARK    5  A    between atoms: C_10  and  C_13
REMARK    6  A    between atoms: C5*_20  and  O5*_21
REMARK                            x       y       z     vdW  Elec       q    Type
REMARK                         _______ _______ _______ _____ _____    ______ ____
ROOT
ATOM      1  O4* UNL     1     -34.481  24.100   5.347  0.00  0.00    -0.332 OA
ATOM      2  C3* UNL     1     -35.738  22.671   3.944  0.00  0.00    +0.171 C 
ATOM      3  C2* UNL     1     -35.364  23.898   3.139  0.00  0.00    +0.188 C 
ATOM      4  C4* UNL     1     -35.589  23.183   5.367  0.00  0.00    +0.175 C 
ATOM      5  C1* UNL     1     -34.241  24.492   3.982  0.00  0.00    +0.240 C 
ENDROOT
BRANCH   5   6
ATOM      6  N   UNL     1     -34.159  25.950   3.906  0.00  0.00    -0.172 N 
ATOM      7  N   UNL     1     -34.847  26.630   2.977  0.00  0.00    -0.120 NA
ATOM      8  N   UNL     1     -33.626  28.028   4.314  0.00  0.00    -0.191 NA
ATOM      9  C   UNL     1     -33.436  26.786   4.697  0.00  0.00    +0.250 C 
ATOM     10  C   UNL     1     -34.489  27.883   3.267  0.00  0.00    +0.104 C 
BRANCH  10  13
ATOM     11  O   UNL     1     -35.121  28.961   1.270  0.00  0.00    -0.259 OA
ATOM     12  N   UNL     1     -35.354  30.160   3.212  0.00  0.00    -0.317 N 
ATOM     13  C   UNL     1     -34.988  28.998   2.518  0.00  0.00    +0.307 C 
ATOM     14  H   UNL     1     -35.699  30.940   2.718  0.00  0.00    +0.146 HD
ATOM     15  H   UNL     1     -35.266  30.197   4.192  0.00  0.00    +0.146 HD
ENDBRANCH  10  13
ENDBRANCH   5   6
BRANCH   3  16
ATOM     16  O2* UNL     1     -34.922  23.560   1.835  0.00  0.00    -0.378 OA
ATOM     17  H2* UNL     1     -34.283  24.223   1.530  0.00  0.00    +0.211 HD
ENDBRANCH   3  16
BRANCH   2  18
ATOM     18  O3* UNL     1     -37.063  22.263   3.662  0.00  0.00    -0.379 OA
ATOM     19  H3* UNL     1     -37.220  22.308   2.706  0.00  0.00    +0.211 HD
ENDBRANCH   2  18
BRANCH   4  20
ATOM     20  C5* UNL     1     -35.318  22.083   6.378  0.00  0.00    +0.169 C 
BRANCH  20  21
ATOM     21  O5* UNL     1     -35.363  20.830   5.715  0.00  0.00    -0.379 OA
ATOM     22  H5* UNL     1     -36.285  20.608   5.507  0.00  0.00    +0.211 HD
ENDBRANCH  20  21
ENDBRANCH   4  20
TORSDOF 6
ENDMDL
MODEL 5
REMARK VINA RESULT:      -5.5      3.170      4.387
REMARK  Name = 5064
REMARK  6 active torsions:
REMARK  status: ('A' for Active; 'I' for Inactive)
REMARK    1  A    between atoms: C3*_2  and  O3*_18
REMARK    2  A    between atoms: C2*_3  and  O2*_16
REMARK    3  A    between atoms: C4*_4  and  C5*_20
REMARK    4  A    between atoms: C1*_5  and  N_6
REMARK    5  A    between atoms: C_10  and  C_13
REMARK    6  A    between atoms: C5*_20  and  O5*_21
REMARK                            x       y       z     vdW  Elec       q    Type
REMARK                         _______ _______ _______ _____ _____    ______ ____
ROOT
ATOM      1  O4* UNL     1     -36.734  23.652   4.825  0.00  0.00    -0.332 OA
ATOM      2  C3* UNL     1     -34.706  24.853   5.011  0.00  0.00    +0.171 C 
ATOM      3  C2* UNL     1     -35.664  25.688   4.189  0.00  0.00    +0.188 C 
ATOM      4  C4* UNL     1     -35.308  23.465   4.866  0.00  0.00    +0.175 C 
ATOM      5  C1* UNL     1     -37.002  25.031   4.509  0.00  0.00    +0.240 C 
ENDROOT
BRANCH   5   6
ATOM      6  N   UNL     1     -37.965  25.096   3.411  0.00  0.00    -0.172 N 
ATOM      7  N   UNL     1     -38.810  24.082   3.176  0.00  0.00    -0.120 NA
ATOM      8  N   UNL     1     -39.110  25.791   1.685  0.00  0.00    -0.191 NA
ATOM      9  C   UNL     1     -38.148  26.107   2.521  0.00  0.00    +0.250 C 
ATOM     10  C   UNL     1     -39.481  24.552   2.122  0.00  0.00    +0.104 C 
BRANCH  10  13
ATOM     11  O   UNL     1     -40.432  22.556   1.309  0.00  0.00    -0.259 OA
ATOM     12  N   UNL     1     -41.691  24.461   1.101  0.00  0.00    -0.317 N 
ATOM     13  C   UNL     1     -40.523  23.794   1.497  0.00  0.00    +0.307 C 
ATOM     14  H   UNL     1     -42.421  23.961   0.668  0.00  0.00    +0.146 HD
ATOM     15  H   UNL     1     -41.780  25.430   1.253  0.00  0.00    +0.146 HD
ENDBRANCH  10  13
ENDBRANCH   5   6
BRANCH   3  16
ATOM     16  O2* UNL     1     -35.641  27.052   4.575  0.00  0.00    -0.378 OA
ATOM     17  H2* UNL     1     -34.899  27.498   4.136  0.00  0.00    +0.211 HD
ENDBRANCH   3  16
BRANCH   2  18
ATOM     18  O3* UNL     1     -33.394  24.919   4.486  0.00  0.00    -0.379 OA
ATOM     19  H3* UNL     1     -33.423  24.791   3.525  0.00  0.00    +0.211 HD
ENDBRANCH   2  18
BRANCH   4  20
ATOM     20  C5* UNL     1     -34.952  22.530   6.007  0.00  0.00    +0.169 C 
BRANCH  20  21
ATOM     21  O5* UNL     1     -36.119  21.833   6.409  0.00  0.00    -0.379 OA
ATOM     22  H5* UNL     1     -36.905  22.316   6.105  0.00  0.00    +0.211 HD
ENDBRANCH  20  21
ENDBRANCH   4  20
TORSDOF 6
ENDMDL
MODEL 6
REMARK VINA RESULT:      -5.4      3.861      6.637
REMARK  Name = 5064
REMARK  6 active torsions:
REMARK  status: ('A' for Active; 'I' for Inactive)
REMARK    1  A    between atoms: C3*_2  and  O3*_18
REMARK    2  A    between atoms: C2*_3  and  O2*_16
REMARK    3  A    between atoms: C4*_4  and  C5*_20
REMARK    4  A    between atoms: C1*_5  and  N_6
REMARK    5  A    between atoms: C_10  and  C_13
REMARK    6  A    between atoms: C5*_20  and  O5*_21
REMARK                            x       y       z     vdW  Elec       q    Type
REMARK                         _______ _______ _______ _____ _____    ______ ____
ROOT
ATOM      1  O4* UNL     1     -34.151  24.876   5.119  0.00  0.00    -0.332 OA
ATOM      2  C3* UNL     1     -36.326  24.804   4.195  0.00  0.00    +0.171 C 
ATOM      3  C2* UNL     1     -35.682  26.104   3.761  0.00  0.00    +0.188 C 
ATOM      4  C4* UNL     1     -35.490  24.440   5.411  0.00  0.00    +0.175 C 
ATOM      5  C1* UNL     1     -34.208  25.828   4.040  0.00  0.00    +0.240 C 
ENDROOT
BRANCH   5   6
ATOM      6  N   UNL     1     -33.448  27.021   4.410  0.00  0.00    -0.172 N 
ATOM      7  N   UNL     1     -32.729  27.056   5.542  0.00  0.00    -0.120 NA
ATOM      8  N   UNL     1     -32.573  29.022   4.383  0.00  0.00    -0.191 NA
ATOM      9  C   UNL     1     -33.350  28.193   3.727  0.00  0.00    +0.250 C 
ATOM     10  C   UNL     1     -32.220  28.288   5.479  0.00  0.00    +0.104 C 
BRANCH  10  13
ATOM     11  O   UNL     1     -31.681  29.767   7.231  0.00  0.00    -0.259 OA
ATOM     12  N   UNL     1     -30.118  28.174   6.705  0.00  0.00    -0.317 N 
ATOM     13  C   UNL     1     -31.358  28.797   6.503  0.00  0.00    +0.307 C 
ATOM     14  H   UNL     1     -29.508  28.506   7.403  0.00  0.00    +0.146 HD
ATOM     15  H   UNL     1     -29.857  27.404   6.149  0.00  0.00    +0.146 HD
ENDBRANCH  10  13
ENDBRANCH   5   6
BRANCH   3  16
ATOM     16  O2* UNL     1     -35.916  26.378   2.391  0.00  0.00    -0.378 OA
ATOM     17  H2* UNL     1     -35.122  26.158   1.878  0.00  0.00    +0.211 HD
ENDBRANCH   3  16
BRANCH   2  18
ATOM     18  O3* UNL     1     -37.688  24.998   4.526  0.00  0.00    -0.379 OA
ATOM     19  H3* UNL     1     -37.831  25.924   4.778  0.00  0.00    +0.211 HD
ENDBRANCH   2  18
BRANCH   4  20
ATOM     20  C5* UNL     1     -35.484  22.953   5.717  0.00  0.00    +0.169 C 
BRANCH  20  21
ATOM     21  O5* UNL     1     -36.362  22.298   4.817  0.00  0.00    -0.379 OA
ATOM     22  H5* UNL     1     -36.109  22.513   3.904  0.00  0.00    +0.211 HD
ENDBRANCH  20  21
ENDBRANCH   4  20
TORSDOF 6
ENDMDL
MODEL 7
REMARK VINA RESULT:      -5.4      3.290      6.342
REMARK  Name = 5064
REMARK  6 active torsions:
REMARK  status: ('A' for Active; 'I' for Inactive)
REMARK    1  A    between atoms: C3*_2  and  O3*_18
REMARK    2  A    between atoms: C2*_3  and  O2*_16
REMARK    3  A    between atoms: C4*_4  and  C5*_20
REMARK    4  A    between atoms: C1*_5  and  N_6
REMARK    5  A    between atoms: C_10  and  C_13
REMARK    6  A    between atoms: C5*_20  and  O5*_21
REMARK                            x       y       z     vdW  Elec       q    Type
REMARK                         _______ _______ _______ _____ _____    ______ ____
ROOT
ATOM      1  O4* UNL     1     -34.645  24.137   3.008  0.00  0.00    -0.332 OA
ATOM      2  C3* UNL     1     -36.153  23.422   4.683  0.00  0.00    +0.171 C 
ATOM      3  C2* UNL     1     -35.636  24.789   5.079  0.00  0.00    +0.188 C 
ATOM      4  C4* UNL     1     -35.080  22.960   3.711  0.00  0.00    +0.175 C 
ATOM      5  C1* UNL     1     -35.053  25.293   3.764  0.00  0.00    +0.240 C 
ENDROOT
BRANCH   5   6
ATOM      6  N   UNL     1     -33.908  26.186   3.934  0.00  0.00    -0.172 N 
ATOM      7  N   UNL     1     -33.795  26.961   5.023  0.00  0.00    -0.120 NA
ATOM      8  N   UNL     1     -32.033  27.253   3.595  0.00  0.00    -0.191 NA
ATOM      9  C   UNL     1     -32.858  26.366   3.090  0.00  0.00    +0.250 C 
ATOM     10  C   UNL     1     -32.644  27.586   4.770  0.00  0.00    +0.104 C 
BRANCH  10  13
ATOM     11  O   UNL     1     -32.410  29.760   5.647  0.00  0.00    -0.259 OA
ATOM     12  N   UNL     1     -31.186  28.101   6.653  0.00  0.00    -0.317 N 
ATOM     13  C   UNL     1     -32.094  28.545   5.680  0.00  0.00    +0.307 C 
ATOM     14  H   UNL     1     -30.795  28.743   7.290  0.00  0.00    +0.146 HD
ATOM     15  H   UNL     1     -30.940  27.149   6.698  0.00  0.00    +0.146 HD
ENDBRANCH  10  13
ENDBRANCH   5   6
BRANCH   3  16
ATOM     16  O2* UNL     1     -36.675  25.630   5.551  0.00  0.00    -0.378 OA
ATOM     17  H2* UNL     1     -37.023  26.156   4.815  0.00  0.00    +0.211 HD
ENDBRANCH   3  16
BRANCH   2  18
ATOM     18  O3* UNL     1     -36.251  22.571   5.809  0.00  0.00    -0.379 OA
ATOM     19  H3* UNL     1     -37.134  22.171   5.836  0.00  0.00    +0.211 HD
ENDBRANCH   2  18
BRANCH   4  20
ATOM     20  C5* UNL     1     -35.573  21.927   2.714  0.00  0.00    +0.169 C 
BRANCH  20  21
ATOM     21  O5* UNL     1     -35.861  20.724   3.406  0.00  0.00    -0.379 OA
ATOM     22  H5* UNL     1     -36.707  20.814   3.874  0.00  0.00    +0.211 HD
ENDBRANCH  20  21
ENDBRANCH   4  20
TORSDOF 6
ENDMDL
MODEL 8
REMARK VINA RESULT:      -5.3      2.064      6.062
REMARK  Name = 5064
REMARK  6 active torsions:
REMARK  status: ('A' for Active; 'I' for Inactive)
REMARK    1  A    between atoms: C3*_2  and  O3*_18
REMARK    2  A    between atoms: C2*_3  and  O2*_16
REMARK    3  A    between atoms: C4*_4  and  C5*_20
REMARK    4  A    between atoms: C1*_5  and  N_6
REMARK    5  A    between atoms: C_10  and  C_13
REMARK    6  A    between atoms: C5*_20  and  O5*_21
REMARK                            x       y       z     vdW  Elec       q    Type
REMARK                         _______ _______ _______ _____ _____    ______ ____
ROOT
ATOM      1  O4* UNL     1     -34.783  22.425   1.440  0.00  0.00    -0.332 OA
ATOM      2  C3* UNL     1     -35.044  20.090   1.175  0.00  0.00    +0.171 C 
ATOM      3  C2* UNL     1     -35.616  20.469   2.525  0.00  0.00    +0.188 C 
ATOM      4  C4* UNL     1     -34.128  21.269   0.890  0.00  0.00    +0.175 C 
ATOM      5  C1* UNL     1     -35.778  21.978   2.380  0.00  0.00    +0.240 C 
ENDROOT
BRANCH   5   6
ATOM      6  N   UNL     1     -35.617  22.708   3.637  0.00  0.00    -0.172 N 
ATOM      7  N   UNL     1     -35.595  24.049   3.656  0.00  0.00    -0.120 NA
ATOM      8  N   UNL     1     -35.356  23.172   5.755  0.00  0.00    -0.191 NA
ATOM      9  C   UNL     1     -35.474  22.194   4.887  0.00  0.00    +0.250 C 
ATOM     10  C   UNL     1     -35.435  24.280   4.961  0.00  0.00    +0.104 C 
BRANCH  10  13
ATOM     11  O   UNL     1     -34.310  26.057   6.020  0.00  0.00    -0.259 OA
ATOM     12  N   UNL     1     -36.475  26.444   5.370  0.00  0.00    -0.317 N 
ATOM     13  C   UNL     1     -35.353  25.611   5.483  0.00  0.00    +0.307 C 
ATOM     14  H   UNL     1     -36.442  27.364   5.723  0.00  0.00    +0.146 HD
ATOM     15  H   UNL     1     -37.295  26.111   4.940  0.00  0.00    +0.146 HD
ENDBRANCH  10  13
ENDBRANCH   5   6
BRANCH   3  16
ATOM     16  O2* UNL     1     -36.855  19.827   2.772  0.00  0.00    -0.378 OA
ATOM     17  H2* UNL     1     -36.974  19.714   3.728  0.00  0.00    +0.211 HD
ENDBRANCH   3  16
BRANCH   2  18
ATOM     18  O3* UNL     1     -34.331  18.870   1.249  0.00  0.00    -0.379 OA
ATOM     19  H3* UNL     1     -33.418  19.010   0.955  0.00  0.00    +0.211 HD
ENDBRANCH   2  18
BRANCH   4  20
ATOM     20  C5* UNL     1     -33.870  21.489  -0.590  0.00  0.00    +0.169 C 
BRANCH  20  21
ATOM     21  O5* UNL     1     -34.467  20.430  -1.321  0.00  0.00    -0.379 OA
ATOM     22  H5* UNL     1     -35.366  20.276  -0.990  0.00  0.00    +0.211 HD
ENDBRANCH  20  21
ENDBRANCH   4  20
TORSDOF 6
ENDMDL
MODEL 9
REMARK VINA RESULT:      -5.2      2.967      5.860
REMARK  Name = 5064
REMARK  6 active torsions:
REMARK  status: ('A' for Active; 'I' for Inactive)
REMARK    1  A    between atoms: C3*_2  and  O3*_18
REMARK    2  A    between atoms: C2*_3  and  O2*_16
REMARK    3  A    between atoms: C4*_4  and  C5*_20
REMARK    4  A    between atoms: C1*_5  and  N_6
REMARK    5  A    between atoms: C_10  and  C_13
REMARK    6  A    between atoms: C5*_20  and  O5*_21
REMARK                            x       y       z     vdW  Elec       q    Type
REMARK                         _______ _______ _______ _____ _____    ______ ____
ROOT
ATOM      1  O4* UNL     1     -37.406  25.866   3.646  0.00  0.00    -0.332 OA
ATOM      2  C3* UNL     1     -38.055  23.728   2.873  0.00  0.00    +0.171 C 
ATOM      3  C2* UNL     1     -36.701  23.589   3.535  0.00  0.00    +0.188 C 
ATOM      4  C4* UNL     1     -38.092  25.215   2.562  0.00  0.00    +0.175 C 
ATOM      5  C1* UNL     1     -36.613  24.883   4.337  0.00  0.00    +0.240 C 
ENDROOT
BRANCH   5   6
ATOM      6  N   UNL     1     -35.249  25.386   4.491  0.00  0.00    -0.172 N 
ATOM      7  N   UNL     1     -34.967  26.350   5.380  0.00  0.00    -0.120 NA
ATOM      8  N   UNL     1     -33.099  25.681   4.241  0.00  0.00    -0.191 NA
ATOM      9  C   UNL     1     -34.135  24.994   3.818  0.00  0.00    +0.250 C 
ATOM     10  C   UNL     1     -33.654  26.493   5.189  0.00  0.00    +0.104 C 
BRANCH  10  13
ATOM     11  O   UNL     1     -32.523  28.542   5.454  0.00  0.00    -0.259 OA
ATOM     12  N   UNL     1     -32.545  27.131   7.262  0.00  0.00    -0.317 N 
ATOM     13  C   UNL     1     -32.885  27.441   5.938  0.00  0.00    +0.307 C 
ATOM     14  H   UNL     1     -32.016  27.767   7.797  0.00  0.00    +0.146 HD
ATOM     15  H   UNL     1     -32.833  26.276   7.657  0.00  0.00    +0.146 HD
ENDBRANCH  10  13
ENDBRANCH   5   6
BRANCH   3  16
ATOM     16  O2* UNL     1     -36.636  22.446   4.371  0.00  0.00    -0.378 OA
ATOM     17  H2* UNL     1     -37.505  22.292   4.773  0.00  0.00    +0.211 HD
ENDBRANCH   3  16
BRANCH   2  18
ATOM     18  O3* UNL     1     -38.132  22.939   1.701  0.00  0.00    -0.379 OA
ATOM     19  H3* UNL     1     -38.226  23.516   0.927  0.00  0.00    +0.211 HD
ENDBRANCH   2  18
BRANCH   4  20
ATOM     20  C5* UNL     1     -39.499  25.773   2.443  0.00  0.00    +0.169 C 
BRANCH  20  21
ATOM     21  O5* UNL     1     -39.768  26.579   3.578  0.00  0.00    -0.379 OA
ATOM     22  H5* UNL     1     -39.083  26.431   4.250  0.00  0.00    +0.211 HD
ENDBRANCH  20  21
ENDBRANCH   4  20
TORSDOF 6
ENDMDL
