MODEL 1
REMARK VINA RESULT:      -6.5      0.000      0.000
REMARK  Name = 55885
REMARK  10 active torsions:
REMARK  status: ('A' for Active; 'I' for Inactive)
REMARK    1  A    between atoms: C_1  and  N_2
REMARK    2  A    between atoms: C_1  and  C_16
REMARK    3  A    between atoms: N_2  and  C_5
REMARK    4  A    between atoms: C_5  and  C_8
REMARK    5  A    between atoms: C_8  and  N_10
REMARK    6  A    between atoms: C_16  and  O_17
REMARK    7  A    between atoms: C_16  and  C_19
REMARK    8  A    between atoms: C_19  and  O_20
REMARK    9  A    between atoms: O_20  and  C_22
REMARK   10  A    between atoms: C_22  and  C_24
REMARK                            x       y       z     vdW  Elec       q    Type
REMARK                         _______ _______ _______ _____ _____    ______ ____
ROOT
ATOM      1  C   UNL     1     -35.618  23.092   5.501  0.00  0.00    -0.048 C 
ENDROOT
BRANCH   1   2
ATOM      2  N   UNL     1     -36.443  23.806   4.543  0.00  0.00    +0.389 N 
ATOM      3  H   UNL     1     -36.464  23.288   3.664  0.00  0.00    -0.084 HD
ATOM      4  H   UNL     1     -37.387  23.894   4.920  0.00  0.00    -0.084 HD
BRANCH   2   5
ATOM      5  C   UNL     1     -35.899  25.150   4.301  0.00  0.00    -0.027 C 
ATOM      6  C   UNL     1     -35.913  25.910   5.635  0.00  0.00    -0.020 C 
ATOM      7  C   UNL     1     -34.458  25.011   3.791  0.00  0.00    -0.020 C 
BRANCH   5   8
ATOM      8  C   UNL     1     -36.801  25.834   3.256  0.00  0.00    +0.071 C 
BRANCH   8  10
ATOM      9  O   UNL     1     -39.237  25.469   1.727  0.00  0.00    -0.253 OA
ATOM     10  N   UNL     1     -38.153  26.035   3.707  0.00  0.00    -0.291 N 
ATOM     11  N   UNL     1     -40.450  26.099   3.571  0.00  0.00    -0.313 N 
ATOM     12  C   UNL     1     -39.270  25.836   2.900  0.00  0.00    +0.298 C 
ATOM     13  H   UNL     1     -38.295  26.332   4.634  0.00  0.00    +0.151 HD
ATOM     14  H   UNL     1     -41.314  25.994   3.110  0.00  0.00    +0.146 HD
ATOM     15  H   UNL     1     -40.428  26.391   4.512  0.00  0.00    +0.146 HD
ENDBRANCH   8  10
ENDBRANCH   5   8
ENDBRANCH   2   5
ENDBRANCH   1   2
BRANCH   1  16
ATOM     16  C   UNL     1     -35.104  21.763   4.938  0.00  0.00    +0.133 C 
BRANCH  16  17
ATOM     17  O   UNL     1     -35.521  20.715   5.818  0.00  0.00    -0.383 OA
ATOM     18  H   UNL     1     -34.774  20.444   6.374  0.00  0.00    +0.210 HD
ENDBRANCH  16  17
BRANCH  16  19
ATOM     19  C   UNL     1     -35.627  21.458   3.536  0.00  0.00    +0.235 C 
BRANCH  19  20
ATOM     20  O   UNL     1     -35.009  20.264   3.065  0.00  0.00    -0.443 OA
BRANCH  20  22
ATOM     21  O   UNL     1     -36.187  19.641   1.188  0.00  0.00    -0.245 OA
ATOM     22  C   UNL     1     -35.158  20.000   1.739  0.00  0.00    +0.343 C 
BRANCH  22  24
ATOM     23  F   UNL     1     -33.073  18.093   1.758  0.00  0.00    -0.204 F 
ATOM     24  C   UNL     1     -33.877  20.203   1.017  0.00  0.00    +0.103 C 
ATOM     25  C   UNL     1     -32.883  19.224   1.062  0.00  0.00    +0.146 C 
ATOM     26  C   UNL     1     -33.667  21.374   0.290  0.00  0.00    +0.009 C 
ATOM     27  C   UNL     1     -31.682  19.417   0.382  0.00  0.00    +0.030 C 
ATOM     28  C   UNL     1     -32.465  21.568  -0.391  0.00  0.00    +0.000 C 
ATOM     29  C   UNL     1     -31.473  20.590  -0.345  0.00  0.00    +0.002 C 
ENDBRANCH  22  24
ENDBRANCH  20  22
ENDBRANCH  19  20
ENDBRANCH  16  19
ENDBRANCH   1  16
TORSDOF 10
ENDMDL
MODEL 2
REMARK VINA RESULT:      -6.3      3.672      7.327
REMARK  Name = 55885
REMARK  10 active torsions:
REMARK  status: ('A' for Active; 'I' for Inactive)
REMARK    1  A    between atoms: C_1  and  N_2
REMARK    2  A    between atoms: C_1  and  C_16
REMARK    3  A    between atoms: N_2  and  C_5
REMARK    4  A    between atoms: C_5  and  C_8
REMARK    5  A    between atoms: C_8  and  N_10
REMARK    6  A    between atoms: C_16  and  O_17
REMARK    7  A    between atoms: C_16  and  C_19
REMARK    8  A    between atoms: C_19  and  O_20
REMARK    9  A    between atoms: O_20  and  C_22
REMARK   10  A    between atoms: C_22  and  C_24
REMARK                            x       y       z     vdW  Elec       q    Type
REMARK                         _______ _______ _______ _____ _____    ______ ____
ROOT
ATOM      1  C   UNL     1     -35.005  20.609   1.320  0.00  0.00    -0.048 C 
ENDROOT
BRANCH   1   2
ATOM      2  N   UNL     1     -34.248  19.464   1.793  0.00  0.00    +0.389 N 
ATOM      3  H   UNL     1     -33.757  19.717   2.652  0.00  0.00    -0.084 HD
ATOM      4  H   UNL     1     -34.891  18.692   1.971  0.00  0.00    -0.084 HD
BRANCH   2   5
ATOM      5  C   UNL     1     -33.268  19.044   0.781  0.00  0.00    -0.027 C 
ATOM      6  C   UNL     1     -32.582  20.306   0.240  0.00  0.00    -0.020 C 
ATOM      7  C   UNL     1     -32.231  18.131   1.452  0.00  0.00    -0.020 C 
BRANCH   5   8
ATOM      8  C   UNL     1     -34.035  18.302  -0.329  0.00  0.00    +0.071 C 
BRANCH   8  10
ATOM      9  O   UNL     1     -33.948  15.481  -0.990  0.00  0.00    -0.253 OA
ATOM     10  N   UNL     1     -34.899  17.263   0.165  0.00  0.00    -0.291 N 
ATOM     11  N   UNL     1     -35.736  15.131   0.407  0.00  0.00    -0.313 N 
ATOM     12  C   UNL     1     -34.785  15.926  -0.208  0.00  0.00    +0.298 C 
ATOM     13  H   UNL     1     -35.610  17.510   0.800  0.00  0.00    +0.151 HD
ATOM     14  H   UNL     1     -35.760  14.164   0.225  0.00  0.00    +0.146 HD
ATOM     15  H   UNL     1     -36.388  15.533   1.026  0.00  0.00    +0.146 HD
ENDBRANCH   8  10
ENDBRANCH   5   8
ENDBRANCH   2   5
ENDBRANCH   1   2
BRANCH   1  16
ATOM     16  C   UNL     1     -36.511  20.334   1.301  0.00  0.00    +0.133 C 
BRANCH  16  17
ATOM     17  O   UNL     1     -36.869  19.719   2.542  0.00  0.00    -0.383 OA
ATOM     18  H   UNL     1     -37.008  18.768   2.403  0.00  0.00    +0.210 HD
ENDBRANCH  16  17
BRANCH  16  19
ATOM     19  C   UNL     1     -37.353  21.596   1.124  0.00  0.00    +0.235 C 
BRANCH  19  20
ATOM     20  O   UNL     1     -36.747  22.660   1.852  0.00  0.00    -0.443 OA
BRANCH  20  22
ATOM     21  O   UNL     1     -38.684  23.071   3.026  0.00  0.00    -0.245 OA
ATOM     22  C   UNL     1     -37.474  23.165   2.884  0.00  0.00    +0.343 C 
BRANCH  22  24
ATOM     23  F   UNL     1     -35.432  21.852   4.329  0.00  0.00    -0.204 F 
ATOM     24  C   UNL     1     -36.594  23.868   3.850  0.00  0.00    +0.103 C 
ATOM     25  C   UNL     1     -35.601  23.166   4.535  0.00  0.00    +0.146 C 
ATOM     26  C   UNL     1     -36.760  25.235   4.074  0.00  0.00    +0.009 C 
ATOM     27  C   UNL     1     -34.775  23.831   5.441  0.00  0.00    +0.030 C 
ATOM     28  C   UNL     1     -35.934  25.900   4.980  0.00  0.00    +0.000 C 
ATOM     29  C   UNL     1     -34.942  25.198   5.664  0.00  0.00    +0.002 C 
ENDBRANCH  22  24
ENDBRANCH  20  22
ENDBRANCH  19  20
ENDBRANCH  16  19
ENDBRANCH   1  16
TORSDOF 10
ENDMDL
MODEL 3
REMARK VINA RESULT:      -6.3      1.444      1.793
REMARK  Name = 55885
REMARK  10 active torsions:
REMARK  status: ('A' for Active; 'I' for Inactive)
REMARK    1  A    between atoms: C_1  and  N_2
REMARK    2  A    between atoms: C_1  and  C_16
REMARK    3  A    between atoms: N_2  and  C_5
REMARK    4  A    between atoms: C_5  and  C_8
REMARK    5  A    between atoms: C_8  and  N_10
REMARK    6  A    between atoms: C_16  and  O_17
REMARK    7  A    between atoms: C_16  and  C_19
REMARK    8  A    between atoms: C_19  and  O_20
REMARK    9  A    between atoms: O_20  and  C_22
REMARK   10  A    between atoms: C_22  and  C_24
REMARK                            x       y       z     vdW  Elec       q    Type
REMARK                         _______ _______ _______ _____ _____    ______ ____
ROOT
ATOM      1  C   UNL     1     -34.857  23.567   4.707  0.00  0.00    -0.048 C 
ENDROOT
BRANCH   1   2
ATOM      2  N   UNL     1     -34.670  24.577   3.682  0.00  0.00    +0.389 N 
ATOM      3  H   UNL     1     -33.679  24.638   3.446  0.00  0.00    -0.084 HD
ATOM      4  H   UNL     1     -35.211  24.316   2.857  0.00  0.00    -0.084 HD
BRANCH   2   5
ATOM      5  C   UNL     1     -35.135  25.887   4.162  0.00  0.00    -0.027 C 
ATOM      6  C   UNL     1     -35.471  25.747   5.654  0.00  0.00    -0.020 C 
ATOM      7  C   UNL     1     -34.005  26.908   3.972  0.00  0.00    -0.020 C 
BRANCH   5   8
ATOM      8  C   UNL     1     -36.381  26.267   3.340  0.00  0.00    +0.071 C 
BRANCH   8  10
ATOM      9  O   UNL     1     -39.026  26.459   2.169  0.00  0.00    -0.253 OA
ATOM     10  N   UNL     1     -37.595  25.668   3.825  0.00  0.00    -0.291 N 
ATOM     11  N   UNL     1     -39.836  25.139   3.864  0.00  0.00    -0.313 N 
ATOM     12  C   UNL     1     -38.829  25.813   3.197  0.00  0.00    +0.298 C 
ATOM     13  H   UNL     1     -37.552  25.127   4.646  0.00  0.00    +0.151 HD
ATOM     14  H   UNL     1     -40.758  25.163   3.518  0.00  0.00    +0.146 HD
ATOM     15  H   UNL     1     -39.631  24.634   4.684  0.00  0.00    +0.146 HD
ENDBRANCH   8  10
ENDBRANCH   5   8
ENDBRANCH   2   5
ENDBRANCH   1   2
BRANCH   1  16
ATOM     16  C   UNL     1     -35.680  22.378   4.200  0.00  0.00    +0.133 C 
BRANCH  16  17
ATOM     17  O   UNL     1     -37.056  22.766   4.177  0.00  0.00    -0.383 OA
ATOM     18  H   UNL     1     -37.127  23.694   3.901  0.00  0.00    +0.210 HD
ENDBRANCH  16  17
BRANCH  16  19
ATOM     19  C   UNL     1     -35.281  21.920   2.799  0.00  0.00    +0.235 C 
BRANCH  19  20
ATOM     20  O   UNL     1     -35.112  20.506   2.808  0.00  0.00    -0.443 OA
BRANCH  20  22
ATOM     21  O   UNL     1     -36.110  19.605   0.940  0.00  0.00    -0.245 OA
ATOM     22  C   UNL     1     -35.119  19.897   1.592  0.00  0.00    +0.343 C 
BRANCH  22  24
ATOM     23  F   UNL     1     -33.656  21.685  -0.035  0.00  0.00    -0.204 F 
ATOM     24  C   UNL     1     -33.734  19.619   1.136  0.00  0.00    +0.103 C 
ATOM     25  C   UNL     1     -33.061  20.541   0.333  0.00  0.00    +0.146 C 
ATOM     26  C   UNL     1     -33.104  18.433   1.512  0.00  0.00    +0.009 C 
ATOM     27  C   UNL     1     -31.760  20.277  -0.092  0.00  0.00    +0.030 C 
ATOM     28  C   UNL     1     -31.802  18.168   1.087  0.00  0.00    +0.000 C 
ATOM     29  C   UNL     1     -31.130  19.090   0.285  0.00  0.00    +0.002 C 
ENDBRANCH  22  24
ENDBRANCH  20  22
ENDBRANCH  19  20
ENDBRANCH  16  19
ENDBRANCH   1  16
TORSDOF 10
ENDMDL
MODEL 4
REMARK VINA RESULT:      -6.2      2.084      3.783
REMARK  Name = 55885
REMARK  10 active torsions:
REMARK  status: ('A' for Active; 'I' for Inactive)
REMARK    1  A    between atoms: C_1  and  N_2
REMARK    2  A    between atoms: C_1  and  C_16
REMARK    3  A    between atoms: N_2  and  C_5
REMARK    4  A    between atoms: C_5  and  C_8
REMARK    5  A    between atoms: C_8  and  N_10
REMARK    6  A    between atoms: C_16  and  O_17
REMARK    7  A    between atoms: C_16  and  C_19
REMARK    8  A    between atoms: C_19  and  O_20
REMARK    9  A    between atoms: O_20  and  C_22
REMARK   10  A    between atoms: C_22  and  C_24
REMARK                            x       y       z     vdW  Elec       q    Type
REMARK                         _______ _______ _______ _____ _____    ______ ____
ROOT
ATOM      1  C   UNL     1     -38.361  22.163   1.344  0.00  0.00    -0.048 C 
ENDROOT
BRANCH   1   2
ATOM      2  N   UNL     1     -38.177  22.477   2.750  0.00  0.00    +0.389 N 
ATOM      3  H   UNL     1     -39.054  22.317   3.247  0.00  0.00    -0.084 HD
ATOM      4  H   UNL     1     -37.444  21.877   3.130  0.00  0.00    -0.084 HD
BRANCH   2   5
ATOM      5  C   UNL     1     -37.776  23.882   2.913  0.00  0.00    -0.027 C 
ATOM      6  C   UNL     1     -37.209  24.367   1.572  0.00  0.00    -0.020 C 
ATOM      7  C   UNL     1     -39.017  24.705   3.287  0.00  0.00    -0.020 C 
BRANCH   5   8
ATOM      8  C   UNL     1     -36.711  23.934   4.024  0.00  0.00    +0.071 C 
BRANCH   8  10
ATOM      9  O   UNL     1     -34.989  23.356   6.284  0.00  0.00    -0.253 OA
ATOM     10  N   UNL     1     -36.355  22.640   4.542  0.00  0.00    -0.291 N 
ATOM     11  N   UNL     1     -35.333  21.114   5.931  0.00  0.00    -0.313 N 
ATOM     12  C   UNL     1     -35.517  22.453   5.637  0.00  0.00    +0.298 C 
ATOM     13  H   UNL     1     -36.723  21.843   4.096  0.00  0.00    +0.151 HD
ATOM     14  H   UNL     1     -34.761  20.849   6.687  0.00  0.00    +0.146 HD
ATOM     15  H   UNL     1     -35.776  20.425   5.384  0.00  0.00    +0.146 HD
ENDBRANCH   8  10
ENDBRANCH   5   8
ENDBRANCH   2   5
ENDBRANCH   1   2
BRANCH   1  16
ATOM     16  C   UNL     1     -38.135  20.676   1.053  0.00  0.00    +0.133 C 
BRANCH  16  17
ATOM     17  O   UNL     1     -39.269  20.185   0.334  0.00  0.00    -0.383 OA
ATOM     18  H   UNL     1     -39.733  19.525   0.874  0.00  0.00    +0.210 HD
ENDBRANCH  16  17
BRANCH  16  19
ATOM     19  C   UNL     1     -36.881  20.407   0.224  0.00  0.00    +0.235 C 
BRANCH  19  20
ATOM     20  O   UNL     1     -36.052  19.488   0.929  0.00  0.00    -0.443 OA
BRANCH  20  22
ATOM     21  O   UNL     1     -35.264  20.372   2.903  0.00  0.00    -0.245 OA
ATOM     22  C   UNL     1     -35.107  20.037   1.739  0.00  0.00    +0.343 C 
BRANCH  22  24
ATOM     23  F   UNL     1     -33.116  18.033   1.725  0.00  0.00    -0.204 F 
ATOM     24  C   UNL     1     -33.820  20.188   1.015  0.00  0.00    +0.103 C 
ATOM     25  C   UNL     1     -32.874  19.162   1.044  0.00  0.00    +0.146 C 
ATOM     26  C   UNL     1     -33.556  21.358   0.304  0.00  0.00    +0.009 C 
ATOM     27  C   UNL     1     -31.666  19.307   0.363  0.00  0.00    +0.030 C 
ATOM     28  C   UNL     1     -32.348  21.504  -0.378  0.00  0.00    +0.000 C 
ATOM     29  C   UNL     1     -31.403  20.478  -0.349  0.00  0.00    +0.002 C 
ENDBRANCH  22  24
ENDBRANCH  20  22
ENDBRANCH  19  20
ENDBRANCH  16  19
ENDBRANCH   1  16
TORSDOF 10
ENDMDL
MODEL 5
REMARK VINA RESULT:      -6.2      3.742      7.409
REMARK  Name = 55885
REMARK  10 active torsions:
REMARK  status: ('A' for Active; 'I' for Inactive)
REMARK    1  A    between atoms: C_1  and  N_2
REMARK    2  A    between atoms: C_1  and  C_16
REMARK    3  A    between atoms: N_2  and  C_5
REMARK    4  A    between atoms: C_5  and  C_8
REMARK    5  A    between atoms: C_8  and  N_10
REMARK    6  A    between atoms: C_16  and  O_17
REMARK    7  A    between atoms: C_16  and  C_19
REMARK    8  A    between atoms: C_19  and  O_20
REMARK    9  A    between atoms: O_20  and  C_22
REMARK   10  A    between atoms: C_22  and  C_24
REMARK                            x       y       z     vdW  Elec       q    Type
REMARK                         _______ _______ _______ _____ _____    ______ ____
ROOT
ATOM      1  C   UNL     1     -34.854  20.836   1.482  0.00  0.00    -0.048 C 
ENDROOT
BRANCH   1   2
ATOM      2  N   UNL     1     -34.177  19.638   1.945  0.00  0.00    +0.389 N 
ATOM      3  H   UNL     1     -33.596  19.870   2.751  0.00  0.00    -0.084 HD
ATOM      4  H   UNL     1     -34.877  18.943   2.206  0.00  0.00    -0.084 HD
BRANCH   2   5
ATOM      5  C   UNL     1     -33.329  19.084   0.880  0.00  0.00    -0.027 C 
ATOM      6  C   UNL     1     -32.502  20.237   0.291  0.00  0.00    -0.020 C 
ATOM      7  C   UNL     1     -32.396  18.030   1.494  0.00  0.00    -0.020 C 
BRANCH   5   8
ATOM      8  C   UNL     1     -34.259  18.464  -0.179  0.00  0.00    +0.071 C 
BRANCH   8  10
ATOM      9  O   UNL     1     -34.235  15.723  -1.124  0.00  0.00    -0.253 OA
ATOM     10  N   UNL     1     -35.041  17.363   0.317  0.00  0.00    -0.291 N 
ATOM     11  N   UNL     1     -35.821  15.201   0.452  0.00  0.00    -0.313 N 
ATOM     12  C   UNL     1     -34.967  16.072  -0.199  0.00  0.00    +0.298 C 
ATOM     13  H   UNL     1     -35.664  17.532   1.060  0.00  0.00    +0.151 HD
ATOM     14  H   UNL     1     -35.861  14.255   0.180  0.00  0.00    +0.146 HD
ATOM     15  H   UNL     1     -36.389  15.525   1.188  0.00  0.00    +0.146 HD
ENDBRANCH   8  10
ENDBRANCH   5   8
ENDBRANCH   2   5
ENDBRANCH   1   2
BRANCH   1  16
ATOM     16  C   UNL     1     -36.334  20.850   1.876  0.00  0.00    +0.133 C 
BRANCH  16  17
ATOM     17  O   UNL     1     -36.692  19.535   2.312  0.00  0.00    -0.383 OA
ATOM     18  H   UNL     1     -36.249  18.878   1.752  0.00  0.00    +0.210 HD
ENDBRANCH  16  17
BRANCH  16  19
ATOM     19  C   UNL     1     -36.651  21.837   2.998  0.00  0.00    +0.235 C 
BRANCH  19  20
ATOM     20  O   UNL     1     -35.532  21.910   3.877  0.00  0.00    -0.443 OA
BRANCH  20  22
ATOM     21  O   UNL     1     -36.032  22.380   6.074  0.00  0.00    -0.245 OA
ATOM     22  C   UNL     1     -35.675  22.723   4.957  0.00  0.00    +0.343 C 
BRANCH  22  24
ATOM     23  F   UNL     1     -37.637  24.655   4.323  0.00  0.00    -0.204 F 
ATOM     24  C   UNL     1     -35.338  24.126   4.605  0.00  0.00    +0.103 C 
ATOM     25  C   UNL     1     -36.352  25.036   4.302  0.00  0.00    +0.146 C 
ATOM     26  C   UNL     1     -34.005  24.534   4.579  0.00  0.00    +0.009 C 
ATOM     27  C   UNL     1     -36.032  26.352   3.973  0.00  0.00    +0.030 C 
ATOM     28  C   UNL     1     -33.684  25.851   4.250  0.00  0.00    +0.000 C 
ATOM     29  C   UNL     1     -34.698  26.760   3.948  0.00  0.00    +0.002 C 
ENDBRANCH  22  24
ENDBRANCH  20  22
ENDBRANCH  19  20
ENDBRANCH  16  19
ENDBRANCH   1  16
TORSDOF 10
ENDMDL
MODEL 6
REMARK VINA RESULT:      -6.2      3.815      6.161
REMARK  Name = 55885
REMARK  10 active torsions:
REMARK  status: ('A' for Active; 'I' for Inactive)
REMARK    1  A    between atoms: C_1  and  N_2
REMARK    2  A    between atoms: C_1  and  C_16
REMARK    3  A    between atoms: N_2  and  C_5
REMARK    4  A    between atoms: C_5  and  C_8
REMARK    5  A    between atoms: C_8  and  N_10
REMARK    6  A    between atoms: C_16  and  O_17
REMARK    7  A    between atoms: C_16  and  C_19
REMARK    8  A    between atoms: C_19  and  O_20
REMARK    9  A    between atoms: O_20  and  C_22
REMARK   10  A    between atoms: C_22  and  C_24
REMARK                            x       y       z     vdW  Elec       q    Type
REMARK                         _______ _______ _______ _____ _____    ______ ____
ROOT
ATOM      1  C   UNL     1     -35.256  27.365   2.681  0.00  0.00    -0.048 C 
ENDROOT
BRANCH   1   2
ATOM      2  N   UNL     1     -35.111  27.296   4.124  0.00  0.00    +0.389 N 
ATOM      3  H   UNL     1     -35.207  28.233   4.517  0.00  0.00    -0.084 HD
ATOM      4  H   UNL     1     -35.835  26.683   4.500  0.00  0.00    -0.084 HD
BRANCH   2   5
ATOM      5  C   UNL     1     -33.793  26.752   4.481  0.00  0.00    -0.027 C 
ATOM      6  C   UNL     1     -33.867  26.256   5.932  0.00  0.00    -0.020 C 
ATOM      7  C   UNL     1     -33.475  25.580   3.541  0.00  0.00    -0.020 C 
BRANCH   5   8
ATOM      8  C   UNL     1     -32.766  27.890   4.329  0.00  0.00    +0.071 C 
BRANCH   8  10
ATOM      9  O   UNL     1     -30.385  27.893   5.984  0.00  0.00    -0.253 OA
ATOM     10  N   UNL     1     -32.547  28.633   5.541  0.00  0.00    -0.291 N 
ATOM     11  N   UNL     1     -31.411  29.381   7.399  0.00  0.00    -0.313 N 
ATOM     12  C   UNL     1     -31.366  28.574   6.277  0.00  0.00    +0.298 C 
ATOM     13  H   UNL     1     -33.271  29.213   5.869  0.00  0.00    +0.151 HD
ATOM     14  H   UNL     1     -30.635  29.429   8.003  0.00  0.00    +0.146 HD
ATOM     15  H   UNL     1     -32.219  29.910   7.594  0.00  0.00    +0.146 HD
ENDBRANCH   8  10
ENDBRANCH   5   8
ENDBRANCH   2   5
ENDBRANCH   1   2
BRANCH   1  16
ATOM     16  C   UNL     1     -36.713  27.198   2.240  0.00  0.00    +0.133 C 
BRANCH  16  17
ATOM     17  O   UNL     1     -37.003  28.204   1.266  0.00  0.00    -0.383 OA
ATOM     18  H   UNL     1     -37.038  29.072   1.697  0.00  0.00    +0.210 HD
ENDBRANCH  16  17
BRANCH  16  19
ATOM     19  C   UNL     1     -37.006  25.830   1.628  0.00  0.00    +0.235 C 
BRANCH  19  20
ATOM     20  O   UNL     1     -36.367  24.828   2.414  0.00  0.00    -0.443 OA
BRANCH  20  22
ATOM     21  O   UNL     1     -38.301  24.507   3.621  0.00  0.00    -0.245 OA
ATOM     22  C   UNL     1     -37.128  24.258   3.387  0.00  0.00    +0.343 C 
BRANCH  22  24
ATOM     23  F   UNL     1     -36.290  21.790   2.297  0.00  0.00    -0.204 F 
ATOM     24  C   UNL     1     -36.337  23.266   4.158  0.00  0.00    +0.103 C 
ATOM     25  C   UNL     1     -35.951  22.063   3.565  0.00  0.00    +0.146 C 
ATOM     26  C   UNL     1     -35.979  23.539   5.478  0.00  0.00    +0.009 C 
ATOM     27  C   UNL     1     -35.208  21.135   4.292  0.00  0.00    +0.030 C 
ATOM     28  C   UNL     1     -35.235  22.610   6.206  0.00  0.00    +0.000 C 
ATOM     29  C   UNL     1     -34.850  21.408   5.613  0.00  0.00    +0.002 C 
ENDBRANCH  22  24
ENDBRANCH  20  22
ENDBRANCH  19  20
ENDBRANCH  16  19
ENDBRANCH   1  16
TORSDOF 10
ENDMDL
MODEL 7
REMARK VINA RESULT:      -6.2      2.731      4.028
REMARK  Name = 55885
REMARK  10 active torsions:
REMARK  status: ('A' for Active; 'I' for Inactive)
REMARK    1  A    between atoms: C_1  and  N_2
REMARK    2  A    between atoms: C_1  and  C_16
REMARK    3  A    between atoms: N_2  and  C_5
REMARK    4  A    between atoms: C_5  and  C_8
REMARK    5  A    between atoms: C_8  and  N_10
REMARK    6  A    between atoms: C_16  and  O_17
REMARK    7  A    between atoms: C_16  and  C_19
REMARK    8  A    between atoms: C_19  and  O_20
REMARK    9  A    between atoms: O_20  and  C_22
REMARK   10  A    between atoms: C_22  and  C_24
REMARK                            x       y       z     vdW  Elec       q    Type
REMARK                         _______ _______ _______ _____ _____    ______ ____
ROOT
ATOM      1  C   UNL     1     -34.283  26.838   4.051  0.00  0.00    -0.048 C 
ENDROOT
BRANCH   1   2
ATOM      2  N   UNL     1     -35.558  27.435   3.698  0.00  0.00    +0.389 N 
ATOM      3  H   UNL     1     -36.314  26.832   4.027  0.00  0.00    -0.084 HD
ATOM      4  H   UNL     1     -35.627  28.353   4.136  0.00  0.00    -0.084 HD
BRANCH   2   5
ATOM      5  C   UNL     1     -35.664  27.592   2.240  0.00  0.00    -0.027 C 
ATOM      6  C   UNL     1     -35.577  29.091   1.922  0.00  0.00    -0.020 C 
ATOM      7  C   UNL     1     -34.495  26.846   1.580  0.00  0.00    -0.020 C 
BRANCH   5   8
ATOM      8  C   UNL     1     -37.021  27.005   1.807  0.00  0.00    +0.071 C 
BRANCH   8  10
ATOM      9  O   UNL     1     -39.021  24.917   1.595  0.00  0.00    -0.253 OA
ATOM     10  N   UNL     1     -37.745  26.378   2.881  0.00  0.00    -0.291 N 
ATOM     11  N   UNL     1     -39.244  24.943   3.880  0.00  0.00    -0.313 N 
ATOM     12  C   UNL     1     -38.693  25.377   2.687  0.00  0.00    +0.298 C 
ATOM     13  H   UNL     1     -37.561  26.672   3.801  0.00  0.00    +0.151 HD
ATOM     14  H   UNL     1     -39.928  24.236   3.878  0.00  0.00    +0.146 HD
ATOM     15  H   UNL     1     -38.951  25.342   4.731  0.00  0.00    +0.146 HD
ENDBRANCH   8  10
ENDBRANCH   5   8
ENDBRANCH   2   5
ENDBRANCH   1   2
BRANCH   1  16
ATOM     16  C   UNL     1     -34.380  25.979   5.315  0.00  0.00    +0.133 C 
BRANCH  16  17
ATOM     17  O   UNL     1     -33.676  26.647   6.364  0.00  0.00    -0.383 OA
ATOM     18  H   UNL     1     -33.015  26.047   6.744  0.00  0.00    +0.210 HD
ENDBRANCH  16  17
BRANCH  16  19
ATOM     19  C   UNL     1     -35.817  25.736   5.771  0.00  0.00    +0.235 C 
BRANCH  19  20
ATOM     20  O   UNL     1     -36.345  24.622   5.057  0.00  0.00    -0.443 OA
BRANCH  20  22
ATOM     21  O   UNL     1     -35.251  22.989   6.256  0.00  0.00    -0.245 OA
ATOM     22  C   UNL     1     -35.675  23.448   5.206  0.00  0.00    +0.343 C 
BRANCH  22  24
ATOM     23  F   UNL     1     -35.240  20.666   4.972  0.00  0.00    -0.204 F 
ATOM     24  C   UNL     1     -35.514  22.767   3.897  0.00  0.00    +0.103 C 
ATOM     25  C   UNL     1     -35.301  21.388   3.845  0.00  0.00    +0.146 C 
ATOM     26  C   UNL     1     -35.575  23.507   2.716  0.00  0.00    +0.009 C 
ATOM     27  C   UNL     1     -35.151  20.752   2.613  0.00  0.00    +0.030 C 
ATOM     28  C   UNL     1     -35.425  22.870   1.484  0.00  0.00    +0.000 C 
ATOM     29  C   UNL     1     -35.213  21.493   1.433  0.00  0.00    +0.002 C 
ENDBRANCH  22  24
ENDBRANCH  20  22
ENDBRANCH  19  20
ENDBRANCH  16  19
ENDBRANCH   1  16
TORSDOF 10
ENDMDL
MODEL 8
REMARK VINA RESULT:      -6.1      4.204      6.004
REMARK  Name = 55885
REMARK  10 active torsions:
REMARK  status: ('A' for Active; 'I' for Inactive)
REMARK    1  A    between atoms: C_1  and  N_2
REMARK    2  A    between atoms: C_1  and  C_16
REMARK    3  A    between atoms: N_2  and  C_5
REMARK    4  A    between atoms: C_5  and  C_8
REMARK    5  A    between atoms: C_8  and  N_10
REMARK    6  A    between atoms: C_16  and  O_17
REMARK    7  A    between atoms: C_16  and  C_19
REMARK    8  A    between atoms: C_19  and  O_20
REMARK    9  A    between atoms: O_20  and  C_22
REMARK   10  A    between atoms: C_22  and  C_24
REMARK                            x       y       z     vdW  Elec       q    Type
REMARK                         _______ _______ _______ _____ _____    ______ ____
ROOT
ATOM      1  C   UNL     1     -32.341  28.127   4.162  0.00  0.00    -0.048 C 
ENDROOT
BRANCH   1   2
ATOM      2  N   UNL     1     -33.667  28.652   3.889  0.00  0.00    +0.389 N 
ATOM      3  H   UNL     1     -34.284  27.884   3.621  0.00  0.00    -0.084 HD
ATOM      4  H   UNL     1     -34.022  29.109   4.730  0.00  0.00    -0.084 HD
BRANCH   2   5
ATOM      5  C   UNL     1     -33.614  29.635   2.798  0.00  0.00    -0.027 C 
ATOM      6  C   UNL     1     -33.453  31.027   3.426  0.00  0.00    -0.020 C 
ATOM      7  C   UNL     1     -32.402  29.317   1.910  0.00  0.00    -0.020 C 
BRANCH   5   8
ATOM      8  C   UNL     1     -34.933  29.525   2.010  0.00  0.00    +0.071 C 
BRANCH   8  10
ATOM      9  O   UNL     1     -35.975  27.145   0.724  0.00  0.00    -0.253 OA
ATOM     10  N   UNL     1     -35.854  28.567   2.561  0.00  0.00    -0.291 N 
ATOM     11  N   UNL     1     -37.183  26.688   2.621  0.00  0.00    -0.313 N 
ATOM     12  C   UNL     1     -36.305  27.446   1.869  0.00  0.00    +0.298 C 
ATOM     13  H   UNL     1     -36.185  28.713   3.477  0.00  0.00    +0.151 HD
ATOM     14  H   UNL     1     -37.573  25.867   2.244  0.00  0.00    +0.146 HD
ATOM     15  H   UNL     1     -37.419  26.969   3.535  0.00  0.00    +0.146 HD
ENDBRANCH   8  10
ENDBRANCH   5   8
ENDBRANCH   2   5
ENDBRANCH   1   2
BRANCH   1  16
ATOM     16  C   UNL     1     -32.083  27.970   5.663  0.00  0.00    +0.133 C 
BRANCH  16  17
ATOM     17  O   UNL     1     -32.242  29.250   6.281  0.00  0.00    -0.383 OA
ATOM     18  H   UNL     1     -33.183  29.412   6.452  0.00  0.00    +0.210 HD
ENDBRANCH  16  17
BRANCH  16  19
ATOM     19  C   UNL     1     -33.032  26.983   6.340  0.00  0.00    +0.235 C 
BRANCH  19  20
ATOM     20  O   UNL     1     -33.356  25.949   5.415  0.00  0.00    -0.443 OA
BRANCH  20  22
ATOM     21  O   UNL     1     -35.554  26.594   5.191  0.00  0.00    -0.245 OA
ATOM     22  C   UNL     1     -34.682  25.739   5.197  0.00  0.00    +0.343 C 
BRANCH  22  24
ATOM     23  F   UNL     1     -34.746  24.600   2.612  0.00  0.00    -0.204 F 
ATOM     24  C   UNL     1     -34.953  24.299   4.960  0.00  0.00    +0.103 C 
ATOM     25  C   UNL     1     -34.971  23.793   3.659  0.00  0.00    +0.146 C 
ATOM     26  C   UNL     1     -35.189  23.449   6.040  0.00  0.00    +0.009 C 
ATOM     27  C   UNL     1     -35.225  22.440   3.440  0.00  0.00    +0.030 C 
ATOM     28  C   UNL     1     -35.444  22.095   5.822  0.00  0.00    +0.000 C 
ATOM     29  C   UNL     1     -35.462  21.591   4.522  0.00  0.00    +0.002 C 
ENDBRANCH  22  24
ENDBRANCH  20  22
ENDBRANCH  19  20
ENDBRANCH  16  19
ENDBRANCH   1  16
TORSDOF 10
ENDMDL
MODEL 9
REMARK VINA RESULT:      -6.1      3.987      7.180
REMARK  Name = 55885
REMARK  10 active torsions:
REMARK  status: ('A' for Active; 'I' for Inactive)
REMARK    1  A    between atoms: C_1  and  N_2
REMARK    2  A    between atoms: C_1  and  C_16
REMARK    3  A    between atoms: N_2  and  C_5
REMARK    4  A    between atoms: C_5  and  C_8
REMARK    5  A    between atoms: C_8  and  N_10
REMARK    6  A    between atoms: C_16  and  O_17
REMARK    7  A    between atoms: C_16  and  C_19
REMARK    8  A    between atoms: C_19  and  O_20
REMARK    9  A    between atoms: O_20  and  C_22
REMARK   10  A    between atoms: C_22  and  C_24
REMARK                            x       y       z     vdW  Elec       q    Type
REMARK                         _______ _______ _______ _____ _____    ______ ____
ROOT
ATOM      1  C   UNL     1     -36.422  25.366   2.567  0.00  0.00    -0.048 C 
ENDROOT
BRANCH   1   2
ATOM      2  N   UNL     1     -35.490  24.270   2.761  0.00  0.00    +0.389 N 
ATOM      3  H   UNL     1     -34.572  24.543   2.410  0.00  0.00    -0.084 HD
ATOM      4  H   UNL     1     -35.435  24.054   3.757  0.00  0.00    -0.084 HD
BRANCH   2   5
ATOM      5  C   UNL     1     -35.949  23.074   2.039  0.00  0.00    -0.027 C 
ATOM      6  C   UNL     1     -36.917  23.532   0.939  0.00  0.00    -0.020 C 
ATOM      7  C   UNL     1     -34.729  22.385   1.409  0.00  0.00    -0.020 C 
BRANCH   5   8
ATOM      8  C   UNL     1     -36.650  22.157   3.058  0.00  0.00    +0.071 C 
BRANCH   8  10
ATOM      9  O   UNL     1     -34.956  20.659   4.872  0.00  0.00    -0.253 OA
ATOM     10  N   UNL     1     -36.341  22.475   4.426  0.00  0.00    -0.291 N 
ATOM     11  N   UNL     1     -35.379  22.219   6.503  0.00  0.00    -0.313 N 
ATOM     12  C   UNL     1     -35.513  21.695   5.230  0.00  0.00    +0.298 C 
ATOM     13  H   UNL     1     -36.737  23.287   4.816  0.00  0.00    +0.151 HD
ATOM     14  H   UNL     1     -34.817  21.759   7.168  0.00  0.00    +0.146 HD
ATOM     15  H   UNL     1     -35.845  23.052   6.744  0.00  0.00    +0.146 HD
ENDBRANCH   8  10
ENDBRANCH   5   8
ENDBRANCH   2   5
ENDBRANCH   1   2
BRANCH   1  16
ATOM     16  C   UNL     1     -36.976  25.891   3.894  0.00  0.00    +0.133 C 
BRANCH  16  17
ATOM     17  O   UNL     1     -38.045  25.033   4.303  0.00  0.00    -0.383 OA
ATOM     18  H   UNL     1     -38.089  25.010   5.272  0.00  0.00    +0.210 HD
ENDBRANCH  16  17
BRANCH  16  19
ATOM     19  C   UNL     1     -35.934  25.935   5.010  0.00  0.00    +0.235 C 
BRANCH  19  20
ATOM     20  O   UNL     1     -34.983  26.952   4.711  0.00  0.00    -0.443 OA
BRANCH  20  22
ATOM     21  O   UNL     1     -33.239  25.456   4.574  0.00  0.00    -0.245 OA
ATOM     22  C   UNL     1     -33.676  26.580   4.768  0.00  0.00    +0.343 C 
BRANCH  22  24
ATOM     23  F   UNL     1     -33.004  28.582   2.891  0.00  0.00    -0.204 F 
ATOM     24  C   UNL     1     -32.814  27.741   5.105  0.00  0.00    +0.103 C 
ATOM     25  C   UNL     1     -32.517  28.699   4.135  0.00  0.00    +0.146 C 
ATOM     26  C   UNL     1     -32.302  27.874   6.395  0.00  0.00    +0.009 C 
ATOM     27  C   UNL     1     -31.708  29.789   4.456  0.00  0.00    +0.030 C 
ATOM     28  C   UNL     1     -31.492  28.964   6.716  0.00  0.00    +0.000 C 
ATOM     29  C   UNL     1     -31.196  29.921   5.746  0.00  0.00    +0.002 C 
ENDBRANCH  22  24
ENDBRANCH  20  22
ENDBRANCH  19  20
ENDBRANCH  16  19
ENDBRANCH   1  16
TORSDOF 10
ENDMDL
