MODEL 1
REMARK VINA RESULT:      -5.2      0.000      0.000
REMARK  Name = 192243
REMARK  9 active torsions:
REMARK  status: ('A' for Active; 'I' for Inactive)
REMARK    1  A    between atoms: C_2  and  O_10
REMARK    2  A    between atoms: C_2  and  C_19
REMARK    3  A    between atoms: C_3  and  O_6
REMARK    4  A    between atoms: C_4  and  O_8
REMARK    5  A    between atoms: C_5  and  C_22
REMARK    6  A    between atoms: O_10  and  C_11
REMARK    7  A    between atoms: C_16  and  O_17
REMARK    8  A    between atoms: C_19  and  O_20
REMARK    9  A    between atoms: C_22  and  O_23
REMARK                            x       y       z     vdW  Elec       q    Type
REMARK                         _______ _______ _______ _____ _____    ______ ____
ROOT
ATOM      1  O   UNL     1     -33.069  25.636   3.609  0.00  0.00    -0.319 OA
ATOM      2  C   UNL     1     -34.149  26.367   4.212  0.00  0.00    +0.283 C 
ATOM      3  C   UNL     1     -34.270  27.659   3.400  0.00  0.00    +0.207 C 
ATOM      4  C   UNL     1     -33.892  27.201   2.003  0.00  0.00    +0.173 C 
ATOM      5  C   UNL     1     -32.886  26.079   2.252  0.00  0.00    +0.177 C 
ENDROOT
BRANCH   3   6
ATOM      6  O   UNL     1     -33.327  28.639   3.817  0.00  0.00    -0.377 OA
ATOM      7  H   UNL     1     -33.184  29.275   3.100  0.00  0.00    +0.211 HD
ENDBRANCH   3   6
BRANCH   4   8
ATOM      8  O   UNL     1     -35.051  26.667   1.367  0.00  0.00    -0.379 OA
ATOM      9  H   UNL     1     -34.781  26.084   0.640  0.00  0.00    +0.211 HD
ENDBRANCH   4   8
BRANCH   2  10
ATOM     10  O   UNL     1     -35.372  25.639   4.071  0.00  0.00    -0.453 OA
BRANCH  10  11
ATOM     11  C   UNL     1     -35.354  24.335   4.481  0.00  0.00    +0.141 C 
ATOM     12  C   UNL     1     -35.291  24.037   5.839  0.00  0.00    +0.040 C 
ATOM     13  C   UNL     1     -35.401  23.313   3.537  0.00  0.00    +0.040 C 
ATOM     14  C   UNL     1     -35.273  22.707   6.257  0.00  0.00    +0.040 C 
ATOM     15  C   UNL     1     -35.383  21.982   3.954  0.00  0.00    +0.040 C 
ATOM     16  C   UNL     1     -35.319  21.679   5.315  0.00  0.00    +0.134 C 
BRANCH  16  17
ATOM     17  O   UNL     1     -35.304  20.380   5.722  0.00  0.00    -0.506 OA
ATOM     18  H   UNL     1     -35.633  20.151   6.569  0.00  0.00    +0.292 HD
ENDBRANCH  16  17
ENDBRANCH  10  11
ENDBRANCH   2  10
BRANCH   2  19
ATOM     19  C   UNL     1     -33.848  26.565   5.691  0.00  0.00    +0.210 C 
BRANCH  19  20
ATOM     20  O   UNL     1     -32.486  26.934   5.832  0.00  0.00    -0.377 OA
ATOM     21  H   UNL     1     -32.146  26.599   6.676  0.00  0.00    +0.211 HD
ENDBRANCH  19  20
ENDBRANCH   2  19
BRANCH   5  22
ATOM     22  C   UNL     1     -31.440  26.530   2.103  0.00  0.00    +0.169 C 
BRANCH  22  23
ATOM     23  O   UNL     1     -30.958  26.935   3.372  0.00  0.00    -0.379 OA
ATOM     24  H   UNL     1     -31.563  27.591   3.753  0.00  0.00    +0.211 HD
ENDBRANCH  22  23
ENDBRANCH   5  22
TORSDOF 9
ENDMDL
MODEL 2
REMARK VINA RESULT:      -5.1      2.470      3.750
REMARK  Name = 192243
REMARK  9 active torsions:
REMARK  status: ('A' for Active; 'I' for Inactive)
REMARK    1  A    between atoms: C_2  and  O_10
REMARK    2  A    between atoms: C_2  and  C_19
REMARK    3  A    between atoms: C_3  and  O_6
REMARK    4  A    between atoms: C_4  and  O_8
REMARK    5  A    between atoms: C_5  and  C_22
REMARK    6  A    between atoms: O_10  and  C_11
REMARK    7  A    between atoms: C_16  and  O_17
REMARK    8  A    between atoms: C_19  and  O_20
REMARK    9  A    between atoms: C_22  and  O_23
REMARK                            x       y       z     vdW  Elec       q    Type
REMARK                         _______ _______ _______ _____ _____    ______ ____
ROOT
ATOM      1  O   UNL     1     -35.678  24.614   2.823  0.00  0.00    -0.319 OA
ATOM      2  C   UNL     1     -35.760  24.391   4.241  0.00  0.00    +0.283 C 
ATOM      3  C   UNL     1     -36.552  25.577   4.795  0.00  0.00    +0.207 C 
ATOM      4  C   UNL     1     -37.525  25.873   3.668  0.00  0.00    +0.173 C 
ATOM      5  C   UNL     1     -36.748  25.485   2.411  0.00  0.00    +0.177 C 
ENDROOT
BRANCH   3   6
ATOM      6  O   UNL     1     -35.731  26.722   4.987  0.00  0.00    -0.377 OA
ATOM      7  H   UNL     1     -35.829  27.320   4.231  0.00  0.00    +0.211 HD
ENDBRANCH   3   6
BRANCH   4   8
ATOM      8  O   UNL     1     -38.660  25.022   3.806  0.00  0.00    -0.379 OA
ATOM      9  H   UNL     1     -38.547  24.456   4.585  0.00  0.00    +0.211 HD
ENDBRANCH   4   8
BRANCH   2  10
ATOM     10  O   UNL     1     -36.502  23.198   4.506  0.00  0.00    -0.453 OA
BRANCH  10  11
ATOM     11  C   UNL     1     -36.402  22.199   3.579  0.00  0.00    +0.141 C 
ATOM     12  C   UNL     1     -35.275  21.381   3.563  0.00  0.00    +0.040 C 
ATOM     13  C   UNL     1     -37.426  22.004   2.658  0.00  0.00    +0.040 C 
ATOM     14  C   UNL     1     -35.173  20.361   2.617  0.00  0.00    +0.040 C 
ATOM     15  C   UNL     1     -37.324  20.985   1.711  0.00  0.00    +0.040 C 
ATOM     16  C   UNL     1     -36.196  20.163   1.692  0.00  0.00    +0.134 C 
BRANCH  16  17
ATOM     17  O   UNL     1     -36.098  19.167   0.769  0.00  0.00    -0.506 OA
ATOM     18  H   UNL     1     -36.693  18.443   0.797  0.00  0.00    +0.292 HD
ENDBRANCH  16  17
ENDBRANCH  10  11
ENDBRANCH   2  10
BRANCH   2  19
ATOM     19  C   UNL     1     -34.352  24.243   4.799  0.00  0.00    +0.210 C 
BRANCH  19  20
ATOM     20  O   UNL     1     -33.494  25.137   4.111  0.00  0.00    -0.377 OA
ATOM     21  H   UNL     1     -32.959  25.631   4.752  0.00  0.00    +0.211 HD
ENDBRANCH  19  20
ENDBRANCH   2  19
BRANCH   5  22
ATOM     22  C   UNL     1     -36.125  26.679   1.703  0.00  0.00    +0.169 C 
BRANCH  22  23
ATOM     23  O   UNL     1     -36.707  27.865   2.212  0.00  0.00    -0.379 OA
ATOM     24  H   UNL     1     -36.973  27.724   3.134  0.00  0.00    +0.211 HD
ENDBRANCH  22  23
ENDBRANCH   5  22
TORSDOF 9
ENDMDL
MODEL 3
REMARK VINA RESULT:      -5.1      2.335      3.791
REMARK  Name = 192243
REMARK  9 active torsions:
REMARK  status: ('A' for Active; 'I' for Inactive)
REMARK    1  A    between atoms: C_2  and  O_10
REMARK    2  A    between atoms: C_2  and  C_19
REMARK    3  A    between atoms: C_3  and  O_6
REMARK    4  A    between atoms: C_4  and  O_8
REMARK    5  A    between atoms: C_5  and  C_22
REMARK    6  A    between atoms: O_10  and  C_11
REMARK    7  A    between atoms: C_16  and  O_17
REMARK    8  A    between atoms: C_19  and  O_20
REMARK    9  A    between atoms: C_22  and  O_23
REMARK                            x       y       z     vdW  Elec       q    Type
REMARK                         _______ _______ _______ _____ _____    ______ ____
ROOT
ATOM      1  O   UNL     1     -36.183  25.100   3.659  0.00  0.00    -0.319 OA
ATOM      2  C   UNL     1     -36.261  25.726   2.367  0.00  0.00    +0.283 C 
ATOM      3  C   UNL     1     -35.227  26.854   2.398  0.00  0.00    +0.207 C 
ATOM      4  C   UNL     1     -34.135  26.270   3.276  0.00  0.00    +0.173 C 
ATOM      5  C   UNL     1     -34.897  25.370   4.247  0.00  0.00    +0.177 C 
ENDROOT
BRANCH   3   6
ATOM      6  O   UNL     1     -35.733  28.021   3.033  0.00  0.00    -0.377 OA
ATOM      7  H   UNL     1     -35.162  28.776   2.824  0.00  0.00    +0.211 HD
ENDBRANCH   3   6
BRANCH   4   8
ATOM      8  O   UNL     1     -33.274  25.472   2.467  0.00  0.00    -0.379 OA
ATOM      9  H   UNL     1     -32.917  24.743   2.996  0.00  0.00    +0.211 HD
ENDBRANCH   4   8
BRANCH   2  10
ATOM     10  O   UNL     1     -35.876  24.797   1.350  0.00  0.00    -0.453 OA
BRANCH  10  11
ATOM     11  C   UNL     1     -36.118  23.477   1.606  0.00  0.00    +0.141 C 
ATOM     12  C   UNL     1     -35.056  22.617   1.870  0.00  0.00    +0.040 C 
ATOM     13  C   UNL     1     -37.426  23.001   1.603  0.00  0.00    +0.040 C 
ATOM     14  C   UNL     1     -35.303  21.270   2.132  0.00  0.00    +0.040 C 
ATOM     15  C   UNL     1     -37.674  21.653   1.865  0.00  0.00    +0.040 C 
ATOM     16  C   UNL     1     -36.611  20.788   2.129  0.00  0.00    +0.134 C 
BRANCH  16  17
ATOM     17  O   UNL     1     -36.854  19.473   2.387  0.00  0.00    -0.506 OA
ATOM     18  H   UNL     1     -36.161  18.920   2.689  0.00  0.00    +0.292 HD
ENDBRANCH  16  17
ENDBRANCH  10  11
ENDBRANCH   2  10
BRANCH   2  19
ATOM     19  C   UNL     1     -37.695  26.176   2.122  0.00  0.00    +0.210 C 
BRANCH  19  20
ATOM     20  O   UNL     1     -38.313  26.422   3.373  0.00  0.00    -0.377 OA
ATOM     21  H   UNL     1     -38.696  27.313   3.375  0.00  0.00    +0.211 HD
ENDBRANCH  19  20
ENDBRANCH   2  19
BRANCH   5  22
ATOM     22  C   UNL     1     -35.137  26.023   5.601  0.00  0.00    +0.169 C 
BRANCH  22  23
ATOM     23  O   UNL     1     -36.431  26.599   5.605  0.00  0.00    -0.379 OA
ATOM     24  H   UNL     1     -37.096  25.898   5.689  0.00  0.00    +0.211 HD
ENDBRANCH  22  23
ENDBRANCH   5  22
TORSDOF 9
ENDMDL
MODEL 4
REMARK VINA RESULT:      -5.0      1.942      3.160
REMARK  Name = 192243
REMARK  9 active torsions:
REMARK  status: ('A' for Active; 'I' for Inactive)
REMARK    1  A    between atoms: C_2  and  O_10
REMARK    2  A    between atoms: C_2  and  C_19
REMARK    3  A    between atoms: C_3  and  O_6
REMARK    4  A    between atoms: C_4  and  O_8
REMARK    5  A    between atoms: C_5  and  C_22
REMARK    6  A    between atoms: O_10  and  C_11
REMARK    7  A    between atoms: C_16  and  O_17
REMARK    8  A    between atoms: C_19  and  O_20
REMARK    9  A    between atoms: C_22  and  O_23
REMARK                            x       y       z     vdW  Elec       q    Type
REMARK                         _______ _______ _______ _____ _____    ______ ____
ROOT
ATOM      1  O   UNL     1     -33.039  28.177   4.928  0.00  0.00    -0.319 OA
ATOM      2  C   UNL     1     -33.137  27.530   3.648  0.00  0.00    +0.283 C 
ATOM      3  C   UNL     1     -32.107  28.229   2.758  0.00  0.00    +0.207 C 
ATOM      4  C   UNL     1     -31.001  28.564   3.743  0.00  0.00    +0.173 C 
ATOM      5  C   UNL     1     -31.747  28.798   5.055  0.00  0.00    +0.177 C 
ENDROOT
BRANCH   3   6
ATOM      6  O   UNL     1     -32.608  29.446   2.221  0.00  0.00    -0.377 OA
ATOM      7  H   UNL     1     -33.313  29.786   2.793  0.00  0.00    +0.211 HD
ENDBRANCH   3   6
BRANCH   4   8
ATOM      8  O   UNL     1     -30.148  27.430   3.877  0.00  0.00    -0.379 OA
ATOM      9  H   UNL     1     -30.209  27.085   4.782  0.00  0.00    +0.211 HD
ENDBRANCH   4   8
BRANCH   2  10
ATOM     10  O   UNL     1     -32.762  26.155   3.765  0.00  0.00    -0.453 OA
BRANCH  10  11
ATOM     11  C   UNL     1     -33.783  25.250   3.851  0.00  0.00    +0.141 C 
ATOM     12  C   UNL     1     -34.328  24.937   5.093  0.00  0.00    +0.040 C 
ATOM     13  C   UNL     1     -34.273  24.649   2.695  0.00  0.00    +0.040 C 
ATOM     14  C   UNL     1     -35.369  24.015   5.181  0.00  0.00    +0.040 C 
ATOM     15  C   UNL     1     -35.315  23.726   2.782  0.00  0.00    +0.040 C 
ATOM     16  C   UNL     1     -35.863  23.409   4.026  0.00  0.00    +0.134 C 
BRANCH  16  17
ATOM     17  O   UNL     1     -36.882  22.510   4.110  0.00  0.00    -0.506 OA
ATOM     18  H   UNL     1     -37.580  22.533   3.485  0.00  0.00    +0.292 HD
ENDBRANCH  16  17
ENDBRANCH  10  11
ENDBRANCH   2  10
BRANCH   2  19
ATOM     19  C   UNL     1     -34.575  27.620   3.157  0.00  0.00    +0.210 C 
BRANCH  19  20
ATOM     20  O   UNL     1     -35.100  28.886   3.519  0.00  0.00    -0.377 OA
ATOM     21  H   UNL     1     -34.790  29.123   4.408  0.00  0.00    +0.211 HD
ENDBRANCH  19  20
ENDBRANCH   2  19
BRANCH   5  22
ATOM     22  C   UNL     1     -31.971  30.272   5.360  0.00  0.00    +0.169 C 
BRANCH  22  23
ATOM     23  O   UNL     1     -33.241  30.651   4.861  0.00  0.00    -0.379 OA
ATOM     24  H   UNL     1     -33.549  29.987   4.225  0.00  0.00    +0.211 HD
ENDBRANCH  22  23
ENDBRANCH   5  22
TORSDOF 9
ENDMDL
MODEL 5
REMARK VINA RESULT:      -5.0      3.663      6.656
REMARK  Name = 192243
REMARK  9 active torsions:
REMARK  status: ('A' for Active; 'I' for Inactive)
REMARK    1  A    between atoms: C_2  and  O_10
REMARK    2  A    between atoms: C_2  and  C_19
REMARK    3  A    between atoms: C_3  and  O_6
REMARK    4  A    between atoms: C_4  and  O_8
REMARK    5  A    between atoms: C_5  and  C_22
REMARK    6  A    between atoms: O_10  and  C_11
REMARK    7  A    between atoms: C_16  and  O_17
REMARK    8  A    between atoms: C_19  and  O_20
REMARK    9  A    between atoms: C_22  and  O_23
REMARK                            x       y       z     vdW  Elec       q    Type
REMARK                         _______ _______ _______ _____ _____    ______ ____
ROOT
ATOM      1  O   UNL     1     -36.973  21.338   0.348  0.00  0.00    -0.319 OA
ATOM      2  C   UNL     1     -36.666  21.718   1.699  0.00  0.00    +0.283 C 
ATOM      3  C   UNL     1     -35.949  20.512   2.310  0.00  0.00    +0.207 C 
ATOM      4  C   UNL     1     -35.186  19.953   1.122  0.00  0.00    +0.173 C 
ATOM      5  C   UNL     1     -36.082  20.287  -0.070  0.00  0.00    +0.177 C 
ENDROOT
BRANCH   3   6
ATOM      6  O   UNL     1     -36.864  19.521   2.759  0.00  0.00    -0.377 OA
ATOM      7  H   UNL     1     -37.483  19.916   3.391  0.00  0.00    +0.211 HD
ENDBRANCH   3   6
BRANCH   4   8
ATOM      8  O   UNL     1     -33.951  20.653   0.999  0.00  0.00    -0.379 OA
ATOM      9  H   UNL     1     -33.318  20.310   1.648  0.00  0.00    +0.211 HD
ENDBRANCH   4   8
BRANCH   2  10
ATOM     10  O   UNL     1     -35.759  22.824   1.703  0.00  0.00    -0.453 OA
BRANCH  10  11
ATOM     11  C   UNL     1     -35.945  23.761   2.679  0.00  0.00    +0.141 C 
ATOM     12  C   UNL     1     -36.624  24.941   2.386  0.00  0.00    +0.040 C 
ATOM     13  C   UNL     1     -35.455  23.531   3.962  0.00  0.00    +0.040 C 
ATOM     14  C   UNL     1     -36.814  25.897   3.382  0.00  0.00    +0.040 C 
ATOM     15  C   UNL     1     -35.645  24.488   4.959  0.00  0.00    +0.040 C 
ATOM     16  C   UNL     1     -36.325  25.672   4.668  0.00  0.00    +0.134 C 
BRANCH  16  17
ATOM     17  O   UNL     1     -36.511  26.604   5.643  0.00  0.00    -0.506 OA
ATOM     18  H   UNL     1     -37.191  26.488   6.277  0.00  0.00    +0.292 HD
ENDBRANCH  16  17
ENDBRANCH  10  11
ENDBRANCH   2  10
BRANCH   2  19
ATOM     19  C   UNL     1     -37.955  22.122   2.403  0.00  0.00    +0.210 C 
BRANCH  19  20
ATOM     20  O   UNL     1     -38.942  21.138   2.144  0.00  0.00    -0.377 OA
ATOM     21  H   UNL     1     -39.275  20.784   2.983  0.00  0.00    +0.211 HD
ENDBRANCH  19  20
ENDBRANCH   2  19
BRANCH   5  22
ATOM     22  C   UNL     1     -36.935  19.111  -0.523  0.00  0.00    +0.169 C 
BRANCH  22  23
ATOM     23  O   UNL     1     -38.221  19.230   0.060  0.00  0.00    -0.379 OA
ATOM     24  H   UNL     1     -38.142  19.656   0.929  0.00  0.00    +0.211 HD
ENDBRANCH  22  23
ENDBRANCH   5  22
TORSDOF 9
ENDMDL
MODEL 6
REMARK VINA RESULT:      -5.0      3.379      5.948
REMARK  Name = 192243
REMARK  9 active torsions:
REMARK  status: ('A' for Active; 'I' for Inactive)
REMARK    1  A    between atoms: C_2  and  O_10
REMARK    2  A    between atoms: C_2  and  C_19
REMARK    3  A    between atoms: C_3  and  O_6
REMARK    4  A    between atoms: C_4  and  O_8
REMARK    5  A    between atoms: C_5  and  C_22
REMARK    6  A    between atoms: O_10  and  C_11
REMARK    7  A    between atoms: C_16  and  O_17
REMARK    8  A    between atoms: C_19  and  O_20
REMARK    9  A    between atoms: C_22  and  O_23
REMARK                            x       y       z     vdW  Elec       q    Type
REMARK                         _______ _______ _______ _____ _____    ______ ____
ROOT
ATOM      1  O   UNL     1     -37.328  23.698   1.512  0.00  0.00    -0.319 OA
ATOM      2  C   UNL     1     -38.088  23.619   2.729  0.00  0.00    +0.283 C 
ATOM      3  C   UNL     1     -39.123  22.517   2.493  0.00  0.00    +0.207 C 
ATOM      4  C   UNL     1     -38.368  21.548   1.600  0.00  0.00    +0.173 C 
ATOM      5  C   UNL     1     -37.435  22.452   0.797  0.00  0.00    +0.177 C 
ENDROOT
BRANCH   3   6
ATOM      6  O   UNL     1     -40.254  22.995   1.775  0.00  0.00    -0.377 OA
ATOM      7  H   UNL     1     -40.698  23.683   2.293  0.00  0.00    +0.211 HD
ENDBRANCH   3   6
BRANCH   4   8
ATOM      8  O   UNL     1     -37.594  20.677   2.421  0.00  0.00    -0.379 OA
ATOM      9  H   UNL     1     -37.209  19.975   1.874  0.00  0.00    +0.211 HD
ENDBRANCH   4   8
BRANCH   2  10
ATOM     10  O   UNL     1     -37.244  23.211   3.809  0.00  0.00    -0.453 OA
BRANCH  10  11
ATOM     11  C   UNL     1     -36.217  24.055   4.131  0.00  0.00    +0.141 C 
ATOM     12  C   UNL     1     -35.045  24.036   3.381  0.00  0.00    +0.040 C 
ATOM     13  C   UNL     1     -36.351  24.928   5.207  0.00  0.00    +0.040 C 
ATOM     14  C   UNL     1     -33.998  24.896   3.710  0.00  0.00    +0.040 C 
ATOM     15  C   UNL     1     -35.305  25.788   5.536  0.00  0.00    +0.040 C 
ATOM     16  C   UNL     1     -34.127  25.772   4.787  0.00  0.00    +0.134 C 
BRANCH  16  17
ATOM     17  O   UNL     1     -33.107  26.614   5.107  0.00  0.00    -0.506 OA
ATOM     18  H   UNL     1     -32.915  27.348   4.557  0.00  0.00    +0.292 HD
ENDBRANCH  16  17
ENDBRANCH  10  11
ENDBRANCH   2  10
BRANCH   2  19
ATOM     19  C   UNL     1     -38.672  24.991   3.036  0.00  0.00    +0.210 C 
BRANCH  19  20
ATOM     20  O   UNL     1     -39.735  24.837   3.961  0.00  0.00    -0.377 OA
ATOM     21  H   UNL     1     -40.565  25.130   3.552  0.00  0.00    +0.211 HD
ENDBRANCH  19  20
ENDBRANCH   2  19
BRANCH   5  22
ATOM     22  C   UNL     1     -37.960  22.764  -0.597  0.00  0.00    +0.169 C 
BRANCH  22  23
ATOM     23  O   UNL     1     -38.569  24.043  -0.578  0.00  0.00    -0.379 OA
ATOM     24  H   UNL     1     -37.889  24.726  -0.689  0.00  0.00    +0.211 HD
ENDBRANCH  22  23
ENDBRANCH   5  22
TORSDOF 9
ENDMDL
MODEL 7
REMARK VINA RESULT:      -4.9      2.852      5.497
REMARK  Name = 192243
REMARK  9 active torsions:
REMARK  status: ('A' for Active; 'I' for Inactive)
REMARK    1  A    between atoms: C_2  and  O_10
REMARK    2  A    between atoms: C_2  and  C_19
REMARK    3  A    between atoms: C_3  and  O_6
REMARK    4  A    between atoms: C_4  and  O_8
REMARK    5  A    between atoms: C_5  and  C_22
REMARK    6  A    between atoms: O_10  and  C_11
REMARK    7  A    between atoms: C_16  and  O_17
REMARK    8  A    between atoms: C_19  and  O_20
REMARK    9  A    between atoms: C_22  and  O_23
REMARK                            x       y       z     vdW  Elec       q    Type
REMARK                         _______ _______ _______ _____ _____    ______ ____
ROOT
ATOM      1  O   UNL     1     -35.793  23.147   1.880  0.00  0.00    -0.319 OA
ATOM      2  C   UNL     1     -37.118  22.950   2.401  0.00  0.00    +0.283 C 
ATOM      3  C   UNL     1     -37.530  21.546   1.951  0.00  0.00    +0.207 C 
ATOM      4  C   UNL     1     -36.210  20.796   1.981  0.00  0.00    +0.173 C 
ATOM      5  C   UNL     1     -35.179  21.868   1.634  0.00  0.00    +0.177 C 
ENDROOT
BRANCH   3   6
ATOM      6  O   UNL     1     -38.016  21.538   0.615  0.00  0.00    -0.377 OA
ATOM      7  H   UNL     1     -37.334  21.886   0.021  0.00  0.00    +0.211 HD
ENDBRANCH   3   6
BRANCH   4   8
ATOM      8  O   UNL     1     -35.980  20.327   3.308  0.00  0.00    -0.379 OA
ATOM      9  H   UNL     1     -35.057  20.496   3.555  0.00  0.00    +0.211 HD
ENDBRANCH   4   8
BRANCH   2  10
ATOM     10  O   UNL     1     -37.089  22.967   3.831  0.00  0.00    -0.453 OA
BRANCH  10  11
ATOM     11  C   UNL     1     -36.264  23.889   4.412  0.00  0.00    +0.141 C 
ATOM     12  C   UNL     1     -36.721  25.185   4.633  0.00  0.00    +0.040 C 
ATOM     13  C   UNL     1     -34.971  23.526   4.780  0.00  0.00    +0.040 C 
ATOM     14  C   UNL     1     -35.879  26.125   5.226  0.00  0.00    +0.040 C 
ATOM     15  C   UNL     1     -34.129  24.465   5.373  0.00  0.00    +0.040 C 
ATOM     16  C   UNL     1     -34.584  25.766   5.596  0.00  0.00    +0.134 C 
BRANCH  16  17
ATOM     17  O   UNL     1     -33.762  26.682   6.177  0.00  0.00    -0.506 OA
ATOM     18  H   UNL     1     -32.834  26.550   6.171  0.00  0.00    +0.292 HD
ENDBRANCH  16  17
ENDBRANCH  10  11
ENDBRANCH   2  10
BRANCH   2  19
ATOM     19  C   UNL     1     -38.017  24.073   1.902  0.00  0.00    +0.210 C 
BRANCH  19  20
ATOM     20  O   UNL     1     -37.569  24.477   0.619  0.00  0.00    -0.377 OA
ATOM     21  H   UNL     1     -36.965  25.230   0.710  0.00  0.00    +0.211 HD
ENDBRANCH  19  20
ENDBRANCH   2  19
BRANCH   5  22
ATOM     22  C   UNL     1     -34.751  21.834   0.174  0.00  0.00    +0.169 C 
BRANCH  22  23
ATOM     23  O   UNL     1     -35.468  22.829  -0.533  0.00  0.00    -0.379 OA
ATOM     24  H   UNL     1     -34.882  23.580  -0.718  0.00  0.00    +0.211 HD
ENDBRANCH  22  23
ENDBRANCH   5  22
TORSDOF 9
ENDMDL
MODEL 8
REMARK VINA RESULT:      -4.9      2.923      6.144
REMARK  Name = 192243
REMARK  9 active torsions:
REMARK  status: ('A' for Active; 'I' for Inactive)
REMARK    1  A    between atoms: C_2  and  O_10
REMARK    2  A    between atoms: C_2  and  C_19
REMARK    3  A    between atoms: C_3  and  O_6
REMARK    4  A    between atoms: C_4  and  O_8
REMARK    5  A    between atoms: C_5  and  C_22
REMARK    6  A    between atoms: O_10  and  C_11
REMARK    7  A    between atoms: C_16  and  O_17
REMARK    8  A    between atoms: C_19  and  O_20
REMARK    9  A    between atoms: C_22  and  O_23
REMARK                            x       y       z     vdW  Elec       q    Type
REMARK                         _______ _______ _______ _____ _____    ______ ____
ROOT
ATOM      1  O   UNL     1     -37.119  22.832   2.966  0.00  0.00    -0.319 OA
ATOM      2  C   UNL     1     -35.862  22.134   2.944  0.00  0.00    +0.283 C 
ATOM      3  C   UNL     1     -36.074  20.941   2.010  0.00  0.00    +0.207 C 
ATOM      4  C   UNL     1     -37.042  21.500   0.983  0.00  0.00    +0.173 C 
ATOM      5  C   UNL     1     -37.868  22.509   1.780  0.00  0.00    +0.177 C 
ENDROOT
BRANCH   3   6
ATOM      6  O   UNL     1     -36.706  19.853   2.672  0.00  0.00    -0.377 OA
ATOM      7  H   UNL     1     -36.046  19.175   2.881  0.00  0.00    +0.211 HD
ENDBRANCH   3   6
BRANCH   4   8
ATOM      8  O   UNL     1     -36.300  22.185  -0.023  0.00  0.00    -0.379 OA
ATOM      9  H   UNL     1     -36.635  21.937  -0.898  0.00  0.00    +0.211 HD
ENDBRANCH   4   8
BRANCH   2  10
ATOM     10  O   UNL     1     -34.849  22.969   2.376  0.00  0.00    -0.453 OA
BRANCH  10  11
ATOM     11  C   UNL     1     -34.907  24.297   2.693  0.00  0.00    +0.141 C 
ATOM     12  C   UNL     1     -34.325  24.754   3.872  0.00  0.00    +0.040 C 
ATOM     13  C   UNL     1     -35.545  25.186   1.833  0.00  0.00    +0.040 C 
ATOM     14  C   UNL     1     -34.384  26.109   4.195  0.00  0.00    +0.040 C 
ATOM     15  C   UNL     1     -35.604  26.542   2.155  0.00  0.00    +0.040 C 
ATOM     16  C   UNL     1     -35.023  27.003   3.337  0.00  0.00    +0.134 C 
BRANCH  16  17
ATOM     17  O   UNL     1     -35.078  28.327   3.650  0.00  0.00    -0.506 OA
ATOM     18  H   UNL     1     -35.664  28.626   4.318  0.00  0.00    +0.292 HD
ENDBRANCH  16  17
ENDBRANCH  10  11
ENDBRANCH   2  10
BRANCH   2  19
ATOM     19  C   UNL     1     -35.474  21.771   4.371  0.00  0.00    +0.210 C 
BRANCH  19  20
ATOM     20  O   UNL     1     -36.387  22.389   5.262  0.00  0.00    -0.377 OA
ATOM     21  H   UNL     1     -37.246  21.943   5.205  0.00  0.00    +0.211 HD
ENDBRANCH  19  20
ENDBRANCH   2  19
BRANCH   5  22
ATOM     22  C   UNL     1     -39.217  21.959   2.221  0.00  0.00    +0.169 C 
BRANCH  22  23
ATOM     23  O   UNL     1     -39.488  20.777   1.490  0.00  0.00    -0.379 OA
ATOM     24  H   UNL     1     -40.233  20.933   0.888  0.00  0.00    +0.211 HD
ENDBRANCH  22  23
ENDBRANCH   5  22
TORSDOF 9
ENDMDL
MODEL 9
REMARK VINA RESULT:      -4.9      1.337      1.770
REMARK  Name = 192243
REMARK  9 active torsions:
REMARK  status: ('A' for Active; 'I' for Inactive)
REMARK    1  A    between atoms: C_2  and  O_10
REMARK    2  A    between atoms: C_2  and  C_19
REMARK    3  A    between atoms: C_3  and  O_6
REMARK    4  A    between atoms: C_4  and  O_8
REMARK    5  A    between atoms: C_5  and  C_22
REMARK    6  A    between atoms: O_10  and  C_11
REMARK    7  A    between atoms: C_16  and  O_17
REMARK    8  A    between atoms: C_19  and  O_20
REMARK    9  A    between atoms: C_22  and  O_23
REMARK                            x       y       z     vdW  Elec       q    Type
REMARK                         _______ _______ _______ _____ _____    ______ ____
ROOT
ATOM      1  O   UNL     1     -34.524  25.885   2.064  0.00  0.00    -0.319 OA
ATOM      2  C   UNL     1     -34.774  26.493   3.342  0.00  0.00    +0.283 C 
ATOM      3  C   UNL     1     -35.165  27.941   3.036  0.00  0.00    +0.207 C 
ATOM      4  C   UNL     1     -35.902  27.806   1.716  0.00  0.00    +0.173 C 
ATOM      5  C   UNL     1     -35.212  26.624   1.038  0.00  0.00    +0.177 C 
ENDROOT
BRANCH   3   6
ATOM      6  O   UNL     1     -34.026  28.766   2.827  0.00  0.00    -0.377 OA
ATOM      7  H   UNL     1     -34.177  29.633   3.233  0.00  0.00    +0.211 HD
ENDBRANCH   3   6
BRANCH   4   8
ATOM      8  O   UNL     1     -37.262  27.472   1.982  0.00  0.00    -0.379 OA
ATOM      9  H   UNL     1     -37.809  28.271   1.924  0.00  0.00    +0.211 HD
ENDBRANCH   4   8
BRANCH   2  10
ATOM     10  O   UNL     1     -35.887  25.857   3.977  0.00  0.00    -0.453 OA
BRANCH  10  11
ATOM     11  C   UNL     1     -35.711  24.557   4.357  0.00  0.00    +0.141 C 
ATOM     12  C   UNL     1     -35.435  24.257   5.688  0.00  0.00    +0.040 C 
ATOM     13  C   UNL     1     -35.807  23.540   3.412  0.00  0.00    +0.040 C 
ATOM     14  C   UNL     1     -35.255  22.930   6.077  0.00  0.00    +0.040 C 
ATOM     15  C   UNL     1     -35.627  22.213   3.799  0.00  0.00    +0.040 C 
ATOM     16  C   UNL     1     -35.350  21.908   5.133  0.00  0.00    +0.134 C 
BRANCH  16  17
ATOM     17  O   UNL     1     -35.177  20.612   5.512  0.00  0.00    -0.506 OA
ATOM     18  H   UNL     1     -35.863  20.160   5.962  0.00  0.00    +0.292 HD
ENDBRANCH  16  17
ENDBRANCH  10  11
ENDBRANCH   2  10
BRANCH   2  19
ATOM     19  C   UNL     1     -33.538  26.334   4.216  0.00  0.00    +0.210 C 
BRANCH  19  20
ATOM     20  O   UNL     1     -32.395  26.271   3.380  0.00  0.00    -0.377 OA
ATOM     21  H   UNL     1     -32.122  27.170   3.138  0.00  0.00    +0.211 HD
ENDBRANCH  19  20
ENDBRANCH   2  19
BRANCH   5  22
ATOM     22  C   UNL     1     -34.179  27.049   0.004  0.00  0.00    +0.169 C 
BRANCH  22  23
ATOM     23  O   UNL     1     -32.891  26.975   0.591  0.00  0.00    -0.379 OA
ATOM     24  H   UNL     1     -32.383  26.266   0.165  0.00  0.00    +0.211 HD
ENDBRANCH  22  23
ENDBRANCH   5  22
TORSDOF 9
ENDMDL
