MODEL 1
REMARK VINA RESULT:      -7.6      0.000      0.000
REMARK  Name = 54686193
REMARK  8 active torsions:
REMARK  status: ('A' for Active; 'I' for Inactive)
REMARK    1  A    between atoms: C_4  and  O_36
REMARK    2  A    between atoms: C_7  and  N_32
REMARK    3  A    between atoms: C_11  and  O_38
REMARK    4  A    between atoms: C_13  and  C_24
REMARK    5  A    between atoms: C_14  and  O_40
REMARK    6  A    between atoms: C_18  and  O_42
REMARK    7  A    between atoms: C_25  and  C_27
REMARK    8  A    between atoms: C_27  and  N_28
REMARK                            x       y       z     vdW  Elec       q    Type
REMARK                         _______ _______ _______ _____ _____    ______ ____
ROOT
ATOM      1  O   UNL     1     -34.918  24.411   5.039  0.00  0.00    -0.288 OA
ATOM      2  O   UNL     1     -38.100  27.650   0.328  0.00  0.00    -0.293 OA
ATOM      3  C   UNL     1     -35.156  26.441   2.057  0.00  0.00    +0.031 C 
ATOM      4  C   UNL     1     -35.812  25.954   3.373  0.00  0.00    +0.192 C 
ATOM      5  C   UNL     1     -34.941  25.299   1.023  0.00  0.00    +0.028 C 
ATOM      6  C   UNL     1     -34.144  24.142   1.640  0.00  0.00    -0.016 C 
ATOM      7  C   UNL     1     -35.969  27.573   1.407  0.00  0.00    +0.009 C 
ATOM      8  C   UNL     1     -34.922  23.621   2.809  0.00  0.00    +0.067 C 
ATOM      9  C   UNL     1     -35.173  24.644   3.860  0.00  0.00    +0.206 C 
ATOM     10  C   UNL     1     -33.761  23.066   0.609  0.00  0.00    -0.004 C 
ATOM     11  C   UNL     1     -37.315  25.764   3.264  0.00  0.00    +0.149 C 
ATOM     12  C   UNL     1     -37.426  27.185   1.251  0.00  0.00    +0.161 C 
ATOM     13  C   UNL     1     -38.062  26.282   2.265  0.00  0.00    +0.118 C 
ATOM     14  C   UNL     1     -35.477  22.400   2.890  0.00  0.00    +0.139 C 
ATOM     15  C   UNL     1     -34.613  21.822   0.621  0.00  0.00    +0.006 C 
ATOM     16  C   UNL     1     -35.394  21.479   1.740  0.00  0.00    +0.067 C 
ATOM     17  C   UNL     1     -34.551  20.953  -0.482  0.00  0.00    +0.000 C 
ATOM     18  C   UNL     1     -36.109  20.269   1.720  0.00  0.00    +0.136 C 
ATOM     19  C   UNL     1     -35.270  19.759  -0.486  0.00  0.00    +0.003 C 
ATOM     20  C   UNL     1     -36.047  19.418   0.615  0.00  0.00    +0.037 C 
ENDROOT
BRANCH  13  24
ATOM     21  O   UNL     1     -40.297  26.478   2.968  0.00  0.00    -0.270 OA
ATOM     22  O   UNL     1     -42.121  25.026   1.387  0.00  0.00    -0.277 OA
ATOM     23  N   UNL     1     -39.810  25.153   1.102  0.00  0.00    -0.253 N 
ATOM     24  C   UNL     1     -39.505  25.994   2.165  0.00  0.00    +0.257 C 
ATOM     25  C   UNL     1     -41.100  24.720   0.777  0.00  0.00    +0.207 C 
ATOM     26  H   UNL     1     -39.066  24.840   0.537  0.00  0.00    +0.158 HD
BRANCH  25  27
ATOM     27  C   UNL     1     -41.080  23.812  -0.435  0.00  0.00    +0.010 C 
BRANCH  27  28
ATOM     28  N   UNL     1     -41.388  22.450  -0.021  0.00  0.00    +0.390 N 
ATOM     29  C   UNL     1     -40.160  21.717   0.296  0.00  0.00    -0.100 C 
ATOM     30  C   UNL     1     -42.140  21.749  -1.064  0.00  0.00    -0.100 C 
ATOM     31  H   UNL     1     -41.963  22.498   0.818  0.00  0.00    -0.079 HD
ENDBRANCH  27  28
ENDBRANCH  25  27
ENDBRANCH  13  24
BRANCH   7  32
ATOM     32  N   UNL     1     -35.951  28.822   2.165  0.00  0.00    +0.390 N 
ATOM     33  C   UNL     1     -36.482  29.916   1.355  0.00  0.00    -0.100 C 
ATOM     34  C   UNL     1     -34.593  29.127   2.612  0.00  0.00    -0.100 C 
ATOM     35  H   UNL     1     -36.545  28.713   2.988  0.00  0.00    -0.079 HD
ENDBRANCH   7  32
BRANCH   4  36
ATOM     36  O   UNL     1     -35.592  26.910   4.411  0.00  0.00    -0.373 OA
ATOM     37  H   UNL     1     -36.444  27.185   4.783  0.00  0.00    +0.211 HD
ENDBRANCH   4  36
BRANCH  11  38
ATOM     38  O   UNL     1     -37.841  25.020   4.307  0.00  0.00    -0.507 OA
ATOM     39  H   UNL     1     -37.271  24.652   4.954  0.00  0.00    +0.292 HD
ENDBRANCH  11  38
BRANCH  14  40
ATOM     40  O   UNL     1     -36.224  21.955   3.960  0.00  0.00    -0.505 OA
ATOM     41  H   UNL     1     -37.050  22.353   4.153  0.00  0.00    +0.292 HD
ENDBRANCH  14  40
BRANCH  18  42
ATOM     42  O   UNL     1     -36.871  19.848   2.773  0.00  0.00    -0.505 OA
ATOM     43  H   UNL     1     -37.272  20.475   3.342  0.00  0.00    +0.292 HD
ENDBRANCH  18  42
TORSDOF 8
ENDMDL
MODEL 2
REMARK VINA RESULT:      -7.1      1.843      2.606
REMARK  Name = 54686193
REMARK  8 active torsions:
REMARK  status: ('A' for Active; 'I' for Inactive)
REMARK    1  A    between atoms: C_4  and  O_36
REMARK    2  A    between atoms: C_7  and  N_32
REMARK    3  A    between atoms: C_11  and  O_38
REMARK    4  A    between atoms: C_13  and  C_24
REMARK    5  A    between atoms: C_14  and  O_40
REMARK    6  A    between atoms: C_18  and  O_42
REMARK    7  A    between atoms: C_25  and  C_27
REMARK    8  A    between atoms: C_27  and  N_28
REMARK                            x       y       z     vdW  Elec       q    Type
REMARK                         _______ _______ _______ _____ _____    ______ ____
ROOT
ATOM      1  O   UNL     1     -35.153  24.450   5.055  0.00  0.00    -0.288 OA
ATOM      2  O   UNL     1     -38.083  27.565   0.103  0.00  0.00    -0.293 OA
ATOM      3  C   UNL     1     -35.235  26.432   2.031  0.00  0.00    +0.031 C 
ATOM      4  C   UNL     1     -35.965  25.953   3.312  0.00  0.00    +0.192 C 
ATOM      5  C   UNL     1     -34.937  25.279   1.032  0.00  0.00    +0.028 C 
ATOM      6  C   UNL     1     -34.162  24.144   1.715  0.00  0.00    -0.016 C 
ATOM      7  C   UNL     1     -36.023  27.540   1.315  0.00  0.00    +0.009 C 
ATOM      8  C   UNL     1     -35.004  23.627   2.841  0.00  0.00    +0.067 C 
ATOM      9  C   UNL     1     -35.337  24.661   3.859  0.00  0.00    +0.206 C 
ATOM     10  C   UNL     1     -33.697  23.060   0.727  0.00  0.00    -0.004 C 
ATOM     11  C   UNL     1     -37.455  25.736   3.111  0.00  0.00    +0.149 C 
ATOM     12  C   UNL     1     -37.462  27.126   1.073  0.00  0.00    +0.161 C 
ATOM     13  C   UNL     1     -38.145  26.226   2.059  0.00  0.00    +0.118 C 
ATOM     14  C   UNL     1     -35.543  22.399   2.906  0.00  0.00    +0.139 C 
ATOM     15  C   UNL     1     -34.528  21.802   0.705  0.00  0.00    +0.006 C 
ATOM     16  C   UNL     1     -35.373  21.463   1.779  0.00  0.00    +0.067 C 
ATOM     17  C   UNL     1     -34.384  20.918  -0.378  0.00  0.00    +0.000 C 
ATOM     18  C   UNL     1     -36.066  20.240   1.732  0.00  0.00    +0.136 C 
ATOM     19  C   UNL     1     -35.081  19.713  -0.408  0.00  0.00    +0.003 C 
ATOM     20  C   UNL     1     -35.921  19.374   0.646  0.00  0.00    +0.037 C 
ENDROOT
BRANCH  13  24
ATOM     21  O   UNL     1     -39.939  25.167   0.969  0.00  0.00    -0.270 OA
ATOM     22  O   UNL     1     -42.457  25.741   2.096  0.00  0.00    -0.277 OA
ATOM     23  N   UNL     1     -40.386  26.542   2.809  0.00  0.00    -0.253 N 
ATOM     24  C   UNL     1     -39.574  25.913   1.873  0.00  0.00    +0.257 C 
ATOM     25  C   UNL     1     -41.777  26.418   2.864  0.00  0.00    +0.207 C 
ATOM     26  H   UNL     1     -39.950  27.115   3.481  0.00  0.00    +0.158 HD
BRANCH  25  27
ATOM     27  C   UNL     1     -42.353  27.236   4.002  0.00  0.00    +0.010 C 
BRANCH  27  28
ATOM     28  N   UNL     1     -43.723  27.609   3.683  0.00  0.00    +0.390 N 
ATOM     29  C   UNL     1     -43.895  29.062   3.762  0.00  0.00    -0.100 C 
ATOM     30  C   UNL     1     -44.666  26.939   4.581  0.00  0.00    -0.100 C 
ATOM     31  H   UNL     1     -43.916  27.311   2.727  0.00  0.00    -0.079 HD
ENDBRANCH  27  28
ENDBRANCH  25  27
ENDBRANCH  13  24
BRANCH   7  32
ATOM     32  N   UNL     1     -36.073  28.800   2.052  0.00  0.00    +0.390 N 
ATOM     33  C   UNL     1     -36.592  29.868   1.201  0.00  0.00    -0.100 C 
ATOM     34  C   UNL     1     -34.747  29.147   2.559  0.00  0.00    -0.100 C 
ATOM     35  H   UNL     1     -36.703  28.688   2.848  0.00  0.00    -0.079 HD
ENDBRANCH   7  32
BRANCH   4  36
ATOM     36  O   UNL     1     -35.826  26.928   4.346  0.00  0.00    -0.373 OA
ATOM     37  H   UNL     1     -36.213  26.585   5.166  0.00  0.00    +0.211 HD
ENDBRANCH   4  36
BRANCH  11  38
ATOM     38  O   UNL     1     -38.033  24.999   4.131  0.00  0.00    -0.507 OA
ATOM     39  H   UNL     1     -37.816  25.183   5.024  0.00  0.00    +0.292 HD
ENDBRANCH  11  38
BRANCH  14  40
ATOM     40  O   UNL     1     -36.349  21.956   3.934  0.00  0.00    -0.505 OA
ATOM     41  H   UNL     1     -37.195  22.338   4.064  0.00  0.00    +0.292 HD
ENDBRANCH  14  40
BRANCH  18  42
ATOM     42  O   UNL     1     -36.886  19.821   2.742  0.00  0.00    -0.505 OA
ATOM     43  H   UNL     1     -37.657  20.311   2.953  0.00  0.00    +0.292 HD
ENDBRANCH  18  42
TORSDOF 8
ENDMDL
MODEL 3
REMARK VINA RESULT:      -6.7      4.917      8.983
REMARK  Name = 54686193
REMARK  8 active torsions:
REMARK  status: ('A' for Active; 'I' for Inactive)
REMARK    1  A    between atoms: C_4  and  O_36
REMARK    2  A    between atoms: C_7  and  N_32
REMARK    3  A    between atoms: C_11  and  O_38
REMARK    4  A    between atoms: C_13  and  C_24
REMARK    5  A    between atoms: C_14  and  O_40
REMARK    6  A    between atoms: C_18  and  O_42
REMARK    7  A    between atoms: C_25  and  C_27
REMARK    8  A    between atoms: C_27  and  N_28
REMARK                            x       y       z     vdW  Elec       q    Type
REMARK                         _______ _______ _______ _____ _____    ______ ____
ROOT
ATOM      1  O   UNL     1     -37.010  19.688   0.340  0.00  0.00    -0.288 OA
ATOM      2  O   UNL     1     -30.696  20.613  -1.108  0.00  0.00    -0.293 OA
ATOM      3  C   UNL     1     -34.222  21.439  -1.156  0.00  0.00    +0.031 C 
ATOM      4  C   UNL     1     -34.806  20.107  -0.622  0.00  0.00    +0.192 C 
ATOM      5  C   UNL     1     -34.049  22.517  -0.049  0.00  0.00    +0.028 C 
ATOM      6  C   UNL     1     -35.368  22.755   0.698  0.00  0.00    -0.016 C 
ATOM      7  C   UNL     1     -32.878  21.219  -1.871  0.00  0.00    +0.009 C 
ATOM      8  C   UNL     1     -35.782  21.458   1.322  0.00  0.00    +0.067 C 
ATOM      9  C   UNL     1     -35.981  20.360   0.336  0.00  0.00    +0.206 C 
ATOM     10  C   UNL     1     -35.289  23.932   1.687  0.00  0.00    -0.004 C 
ATOM     11  C   UNL     1     -33.776  19.234   0.073  0.00  0.00    +0.149 C 
ATOM     12  C   UNL     1     -31.912  20.440  -1.000  0.00  0.00    +0.161 C 
ATOM     13  C   UNL     1     -32.443  19.408  -0.051  0.00  0.00    +0.118 C 
ATOM     14  C   UNL     1     -35.852  21.218   2.641  0.00  0.00    +0.139 C 
ATOM     15  C   UNL     1     -35.119  23.552   3.136  0.00  0.00    +0.006 C 
ATOM     16  C   UNL     1     -35.441  22.262   3.599  0.00  0.00    +0.067 C 
ATOM     17  C   UNL     1     -34.709  24.540   4.047  0.00  0.00    +0.000 C 
ATOM     18  C   UNL     1     -35.332  21.991   4.973  0.00  0.00    +0.136 C 
ATOM     19  C   UNL     1     -34.602  24.252   5.406  0.00  0.00    +0.003 C 
ATOM     20  C   UNL     1     -34.914  22.979   5.868  0.00  0.00    +0.037 C 
ENDROOT
BRANCH  13  24
ATOM     21  O   UNL     1     -31.858  17.970   1.715  0.00  0.00    -0.270 OA
ATOM     22  O   UNL     1     -29.151  17.190   1.701  0.00  0.00    -0.277 OA
ATOM     23  N   UNL     1     -30.213  18.597   0.174  0.00  0.00    -0.253 N 
ATOM     24  C   UNL     1     -31.492  18.581   0.715  0.00  0.00    +0.257 C 
ATOM     25  C   UNL     1     -29.120  17.900   0.699  0.00  0.00    +0.207 C 
ATOM     26  H   UNL     1     -30.066  19.136  -0.637  0.00  0.00    +0.158 HD
BRANCH  25  27
ATOM     27  C   UNL     1     -27.874  18.136  -0.130  0.00  0.00    +0.010 C 
BRANCH  27  28
ATOM     28  N   UNL     1     -27.945  19.455  -0.742  0.00  0.00    +0.390 N 
ATOM     29  C   UNL     1     -27.545  19.393  -2.150  0.00  0.00    -0.100 C 
ATOM     30  C   UNL     1     -27.102  20.409  -0.019  0.00  0.00    -0.100 C 
ATOM     31  H   UNL     1     -28.912  19.773  -0.693  0.00  0.00    -0.079 HD
ENDBRANCH  27  28
ENDBRANCH  25  27
ENDBRANCH  13  24
BRANCH   7  32
ATOM     32  N   UNL     1     -32.992  20.482  -3.127  0.00  0.00    +0.390 N 
ATOM     33  C   UNL     1     -31.668  20.235  -3.694  0.00  0.00    -0.100 C 
ATOM     34  C   UNL     1     -33.827  21.217  -4.076  0.00  0.00    -0.100 C 
ATOM     35  H   UNL     1     -33.435  19.582  -2.938  0.00  0.00    -0.079 HD
ENDBRANCH   7  32
BRANCH   4  36
ATOM     36  O   UNL     1     -35.336  19.339  -1.703  0.00  0.00    -0.373 OA
ATOM     37  H   UNL     1     -34.821  19.514  -2.506  0.00  0.00    +0.211 HD
ENDBRANCH   4  36
BRANCH  11  38
ATOM     38  O   UNL     1     -34.350  18.228   0.834  0.00  0.00    -0.507 OA
ATOM     39  H   UNL     1     -35.060  18.425   1.413  0.00  0.00    +0.292 HD
ENDBRANCH  11  38
BRANCH  14  40
ATOM     40  O   UNL     1     -36.197  20.003   3.194  0.00  0.00    -0.505 OA
ATOM     41  H   UNL     1     -35.571  19.305   3.221  0.00  0.00    +0.292 HD
ENDBRANCH  14  40
BRANCH  18  42
ATOM     42  O   UNL     1     -35.649  20.775   5.511  0.00  0.00    -0.505 OA
ATOM     43  H   UNL     1     -36.233  20.201   5.057  0.00  0.00    +0.292 HD
ENDBRANCH  18  42
TORSDOF 8
ENDMDL
MODEL 4
REMARK VINA RESULT:      -6.6      3.050      6.359
REMARK  Name = 54686193
REMARK  8 active torsions:
REMARK  status: ('A' for Active; 'I' for Inactive)
REMARK    1  A    between atoms: C_4  and  O_36
REMARK    2  A    between atoms: C_7  and  N_32
REMARK    3  A    between atoms: C_11  and  O_38
REMARK    4  A    between atoms: C_13  and  C_24
REMARK    5  A    between atoms: C_14  and  O_40
REMARK    6  A    between atoms: C_18  and  O_42
REMARK    7  A    between atoms: C_25  and  C_27
REMARK    8  A    between atoms: C_27  and  N_28
REMARK                            x       y       z     vdW  Elec       q    Type
REMARK                         _______ _______ _______ _____ _____    ______ ____
ROOT
ATOM      1  O   UNL     1     -35.247  26.580   5.189  0.00  0.00    -0.288 OA
ATOM      2  O   UNL     1     -37.547  22.286   0.820  0.00  0.00    -0.293 OA
ATOM      3  C   UNL     1     -37.259  25.548   2.367  0.00  0.00    +0.031 C 
ATOM      4  C   UNL     1     -36.510  25.153   3.664  0.00  0.00    +0.192 C 
ATOM      5  C   UNL     1     -36.310  26.064   1.248  0.00  0.00    +0.028 C 
ATOM      6  C   UNL     1     -35.439  27.222   1.756  0.00  0.00    -0.016 C 
ATOM      7  C   UNL     1     -38.102  24.382   1.825  0.00  0.00    +0.009 C 
ATOM      8  C   UNL     1     -34.627  26.714   2.908  0.00  0.00    +0.067 C 
ATOM      9  C   UNL     1     -35.452  26.203   4.038  0.00  0.00    +0.206 C 
ATOM     10  C   UNL     1     -34.606  27.876   0.640  0.00  0.00    -0.004 C 
ATOM     11  C   UNL     1     -35.851  23.787   3.588  0.00  0.00    +0.149 C 
ATOM     12  C   UNL     1     -37.273  23.120   1.685  0.00  0.00    +0.161 C 
ATOM     13  C   UNL     1     -36.156  22.862   2.652  0.00  0.00    +0.118 C 
ATOM     14  C   UNL     1     -33.291  26.585   2.920  0.00  0.00    +0.139 C 
ATOM     15  C   UNL     1     -33.155  27.470   0.589  0.00  0.00    +0.006 C 
ATOM     16  C   UNL     1     -32.514  26.899   1.705  0.00  0.00    +0.067 C 
ATOM     17  C   UNL     1     -32.418  27.750  -0.574  0.00  0.00    +0.000 C 
ATOM     18  C   UNL     1     -31.141  26.611   1.620  0.00  0.00    +0.136 C 
ATOM     19  C   UNL     1     -31.058  27.453  -0.641  0.00  0.00    +0.003 C 
ATOM     20  C   UNL     1     -30.421  26.885   0.456  0.00  0.00    +0.037 C 
ENDROOT
BRANCH  13  24
ATOM     21  O   UNL     1     -35.467  20.782   3.503  0.00  0.00    -0.270 OA
ATOM     22  O   UNL     1     -33.783  19.340   1.764  0.00  0.00    -0.277 OA
ATOM     23  N   UNL     1     -34.725  21.439   1.383  0.00  0.00    -0.253 N 
ATOM     24  C   UNL     1     -35.422  21.585   2.576  0.00  0.00    +0.257 C 
ATOM     25  C   UNL     1     -33.948  20.325   1.050  0.00  0.00    +0.207 C 
ATOM     26  H   UNL     1     -34.783  22.170   0.727  0.00  0.00    +0.158 HD
BRANCH  25  27
ATOM     27  C   UNL     1     -33.323  20.488  -0.321  0.00  0.00    +0.010 C 
BRANCH  27  28
ATOM     28  N   UNL     1     -31.966  20.995  -0.174  0.00  0.00    +0.390 N 
ATOM     29  C   UNL     1     -31.719  22.090  -1.115  0.00  0.00    -0.100 C 
ATOM     30  C   UNL     1     -30.987  19.924  -0.377  0.00  0.00    -0.100 C 
ATOM     31  H   UNL     1     -31.865  21.354   0.775  0.00  0.00    -0.079 HD
ENDBRANCH  27  28
ENDBRANCH  25  27
ENDBRANCH  13  24
BRANCH   7  32
ATOM     32  N   UNL     1     -39.244  24.038   2.669  0.00  0.00    +0.390 N 
ATOM     33  C   UNL     1     -39.985  22.919   2.090  0.00  0.00    -0.100 C 
ATOM     34  C   UNL     1     -40.117  25.197   2.842  0.00  0.00    -0.100 C 
ATOM     35  H   UNL     1     -38.898  23.755   3.586  0.00  0.00    -0.079 HD
ENDBRANCH   7  32
BRANCH   4  36
ATOM     36  O   UNL     1     -37.425  25.108   4.760  0.00  0.00    -0.373 OA
ATOM     37  H   UNL     1     -37.724  24.195   4.894  0.00  0.00    +0.211 HD
ENDBRANCH   4  36
BRANCH  11  38
ATOM     38  O   UNL     1     -34.918  23.583   4.592  0.00  0.00    -0.507 OA
ATOM     39  H   UNL     1     -34.187  23.014   4.444  0.00  0.00    +0.292 HD
ENDBRANCH  11  38
BRANCH  14  40
ATOM     40  O   UNL     1     -32.567  26.077   3.977  0.00  0.00    -0.505 OA
ATOM     41  H   UNL     1     -32.048  26.650   4.508  0.00  0.00    +0.292 HD
ENDBRANCH  14  40
BRANCH  18  42
ATOM     42  O   UNL     1     -30.436  26.081   2.664  0.00  0.00    -0.505 OA
ATOM     43  H   UNL     1     -30.779  25.349   3.138  0.00  0.00    +0.292 HD
ENDBRANCH  18  42
TORSDOF 8
ENDMDL
MODEL 5
REMARK VINA RESULT:      -6.4      3.728      7.721
REMARK  Name = 54686193
REMARK  8 active torsions:
REMARK  status: ('A' for Active; 'I' for Inactive)
REMARK    1  A    between atoms: C_4  and  O_36
REMARK    2  A    between atoms: C_7  and  N_32
REMARK    3  A    between atoms: C_11  and  O_38
REMARK    4  A    between atoms: C_13  and  C_24
REMARK    5  A    between atoms: C_14  and  O_40
REMARK    6  A    between atoms: C_18  and  O_42
REMARK    7  A    between atoms: C_25  and  C_27
REMARK    8  A    between atoms: C_27  and  N_28
REMARK                            x       y       z     vdW  Elec       q    Type
REMARK                         _______ _______ _______ _____ _____    ______ ____
ROOT
ATOM      1  O   UNL     1     -39.037  21.630   2.619  0.00  0.00    -0.288 OA
ATOM      2  O   UNL     1     -34.533  20.123  -1.882  0.00  0.00    -0.293 OA
ATOM      3  C   UNL     1     -37.380  21.944  -0.580  0.00  0.00    +0.031 C 
ATOM      4  C   UNL     1     -37.708  21.063   0.652  0.00  0.00    +0.192 C 
ATOM      5  C   UNL     1     -36.507  23.182  -0.230  0.00  0.00    +0.028 C 
ATOM      6  C   UNL     1     -37.156  24.014   0.885  0.00  0.00    -0.016 C 
ATOM      7  C   UNL     1     -36.692  21.129  -1.688  0.00  0.00    +0.009 C 
ATOM      8  C   UNL     1     -37.290  23.137   2.092  0.00  0.00    +0.067 C 
ATOM      9  C   UNL     1     -38.119  21.924   1.857  0.00  0.00    +0.206 C 
ATOM     10  C   UNL     1     -36.416  25.338   1.148  0.00  0.00    -0.004 C 
ATOM     11  C   UNL     1     -36.566  20.148   1.059  0.00  0.00    +0.149 C 
ATOM     12  C   UNL     1     -35.495  20.369  -1.151  0.00  0.00    +0.161 C 
ATOM     13  C   UNL     1     -35.516  19.861   0.260  0.00  0.00    +0.118 C 
ATOM     14  C   UNL     1     -36.641  23.312   3.255  0.00  0.00    +0.139 C 
ATOM     15  C   UNL     1     -35.512  25.348   2.354  0.00  0.00    +0.006 C 
ATOM     16  C   UNL     1     -35.659  24.405   3.389  0.00  0.00    +0.067 C 
ATOM     17  C   UNL     1     -34.562  26.377   2.475  0.00  0.00    +0.000 C 
ATOM     18  C   UNL     1     -34.835  24.512   4.522  0.00  0.00    +0.136 C 
ATOM     19  C   UNL     1     -33.751  26.465   3.604  0.00  0.00    +0.003 C 
ATOM     20  C   UNL     1     -33.888  25.534   4.627  0.00  0.00    +0.037 C 
ENDROOT
BRANCH  13  24
ATOM     21  O   UNL     1     -33.861  19.270   1.821  0.00  0.00    -0.270 OA
ATOM     22  O   UNL     1     -32.307  17.050   1.049  0.00  0.00    -0.277 OA
ATOM     23  N   UNL     1     -34.060  18.019  -0.146  0.00  0.00    -0.253 N 
ATOM     24  C   UNL     1     -34.395  19.033   0.742  0.00  0.00    +0.257 C 
ATOM     25  C   UNL     1     -33.037  17.089   0.062  0.00  0.00    +0.207 C 
ATOM     26  H   UNL     1     -34.580  17.949  -0.980  0.00  0.00    +0.158 HD
BRANCH  25  27
ATOM     27  C   UNL     1     -32.935  16.122  -1.101  0.00  0.00    +0.010 C 
BRANCH  27  28
ATOM     28  N   UNL     1     -33.366  14.801  -0.668  0.00  0.00    +0.390 N 
ATOM     29  C   UNL     1     -32.449  13.770  -1.163  0.00  0.00    -0.100 C 
ATOM     30  C   UNL     1     -34.730  14.525  -1.124  0.00  0.00    -0.100 C 
ATOM     31  H   UNL     1     -33.353  14.783   0.351  0.00  0.00    -0.079 HD
ENDBRANCH  27  28
ENDBRANCH  25  27
ENDBRANCH  13  24
BRANCH   7  32
ATOM     32  N   UNL     1     -37.562  20.140  -2.321  0.00  0.00    +0.390 N 
ATOM     33  C   UNL     1     -36.808  19.344  -3.287  0.00  0.00    -0.100 C 
ATOM     34  C   UNL     1     -38.693  20.799  -2.970  0.00  0.00    -0.100 C 
ATOM     35  H   UNL     1     -37.923  19.515  -1.599  0.00  0.00    -0.079 HD
ENDBRANCH   7  32
BRANCH   4  36
ATOM     36  O   UNL     1     -38.827  20.223   0.367  0.00  0.00    -0.373 OA
ATOM     37  H   UNL     1     -38.859  19.499   1.011  0.00  0.00    +0.211 HD
ENDBRANCH   4  36
BRANCH  11  38
ATOM     38  O   UNL     1     -36.725  19.624   2.332  0.00  0.00    -0.507 OA
ATOM     39  H   UNL     1     -36.072  19.055   2.691  0.00  0.00    +0.292 HD
ENDBRANCH  11  38
BRANCH  14  40
ATOM     40  O   UNL     1     -36.749  22.469   4.340  0.00  0.00    -0.505 OA
ATOM     41  H   UNL     1     -37.344  22.674   5.035  0.00  0.00    +0.292 HD
ENDBRANCH  14  40
BRANCH  18  42
ATOM     42  O   UNL     1     -34.928  23.656   5.583  0.00  0.00    -0.505 OA
ATOM     43  H   UNL     1     -35.722  23.181   5.733  0.00  0.00    +0.292 HD
ENDBRANCH  18  42
TORSDOF 8
ENDMDL
MODEL 6
REMARK VINA RESULT:      -6.4      2.711      4.502
REMARK  Name = 54686193
REMARK  8 active torsions:
REMARK  status: ('A' for Active; 'I' for Inactive)
REMARK    1  A    between atoms: C_4  and  O_36
REMARK    2  A    between atoms: C_7  and  N_32
REMARK    3  A    between atoms: C_11  and  O_38
REMARK    4  A    between atoms: C_13  and  C_24
REMARK    5  A    between atoms: C_14  and  O_40
REMARK    6  A    between atoms: C_18  and  O_42
REMARK    7  A    between atoms: C_25  and  C_27
REMARK    8  A    between atoms: C_27  and  N_28
REMARK                            x       y       z     vdW  Elec       q    Type
REMARK                         _______ _______ _______ _____ _____    ______ ____
ROOT
ATOM      1  O   UNL     1     -37.056  22.862   4.142  0.00  0.00    -0.288 OA
ATOM      2  O   UNL     1     -40.127  23.314  -1.618  0.00  0.00    -0.293 OA
ATOM      3  C   UNL     1     -37.950  24.477   1.033  0.00  0.00    +0.031 C 
ATOM      4  C   UNL     1     -38.312  23.447   2.133  0.00  0.00    +0.192 C 
ATOM      5  C   UNL     1     -36.671  24.093   0.236  0.00  0.00    +0.028 C 
ATOM      6  C   UNL     1     -35.485  23.858   1.181  0.00  0.00    -0.016 C 
ATOM      7  C   UNL     1     -39.118  24.690   0.055  0.00  0.00    +0.009 C 
ATOM      8  C   UNL     1     -35.852  22.740   2.108  0.00  0.00    +0.067 C 
ATOM      9  C   UNL     1     -37.066  23.018   2.923  0.00  0.00    +0.206 C 
ATOM     10  C   UNL     1     -34.158  23.642   0.430  0.00  0.00    -0.004 C 
ATOM     11  C   UNL     1     -39.012  22.212   1.596  0.00  0.00    +0.149 C 
ATOM     12  C   UNL     1     -39.626  23.371  -0.493  0.00  0.00    +0.161 C 
ATOM     13  C   UNL     1     -39.575  22.146   0.371  0.00  0.00    +0.118 C 
ATOM     14  C   UNL     1     -35.260  21.535   2.144  0.00  0.00    +0.139 C 
ATOM     15  C   UNL     1     -33.703  22.210   0.313  0.00  0.00    +0.006 C 
ATOM     16  C   UNL     1     -34.196  21.212   1.175  0.00  0.00    +0.067 C 
ATOM     17  C   UNL     1     -32.704  21.895  -0.623  0.00  0.00    +0.000 C 
ATOM     18  C   UNL     1     -33.678  19.910   1.065  0.00  0.00    +0.136 C 
ATOM     19  C   UNL     1     -32.205  20.598  -0.720  0.00  0.00    +0.003 C 
ATOM     20  C   UNL     1     -32.692  19.607   0.124  0.00  0.00    +0.037 C 
ENDROOT
BRANCH  13  24
ATOM     21  O   UNL     1     -41.341  20.616   0.104  0.00  0.00    -0.270 OA
ATOM     22  O   UNL     1     -40.651  18.328  -1.388  0.00  0.00    -0.277 OA
ATOM     23  N   UNL     1     -39.262  20.123  -0.850  0.00  0.00    -0.253 N 
ATOM     24  C   UNL     1     -40.167  20.891  -0.129  0.00  0.00    +0.257 C 
ATOM     25  C   UNL     1     -39.559  18.888  -1.436  0.00  0.00    +0.207 C 
ATOM     26  H   UNL     1     -38.348  20.472  -0.957  0.00  0.00    +0.158 HD
BRANCH  25  27
ATOM     27  C   UNL     1     -38.348  18.316  -2.145  0.00  0.00    +0.010 C 
BRANCH  27  28
ATOM     28  N   UNL     1     -37.278  18.109  -1.181  0.00  0.00    +0.390 N 
ATOM     29  C   UNL     1     -35.987  17.980  -1.861  0.00  0.00    -0.100 C 
ATOM     30  C   UNL     1     -37.539  16.923  -0.363  0.00  0.00    -0.100 C 
ATOM     31  H   UNL     1     -37.243  18.924  -0.569  0.00  0.00    -0.079 HD
ENDBRANCH  27  28
ENDBRANCH  25  27
ENDBRANCH  13  24
BRANCH   7  32
ATOM     32  N   UNL     1     -40.270  25.364   0.649  0.00  0.00    +0.390 N 
ATOM     33  C   UNL     1     -41.370  25.432  -0.310  0.00  0.00    -0.100 C 
ATOM     34  C   UNL     1     -39.898  26.704   1.100  0.00  0.00    -0.100 C 
ATOM     35  H   UNL     1     -40.580  24.826   1.459  0.00  0.00    -0.079 HD
ENDBRANCH   7  32
BRANCH   4  36
ATOM     36  O   UNL     1     -39.197  24.042   3.084  0.00  0.00    -0.373 OA
ATOM     37  H   UNL     1     -39.199  25.004   2.964  0.00  0.00    +0.211 HD
ENDBRANCH   4  36
BRANCH  11  38
ATOM     38  O   UNL     1     -39.028  21.165   2.504  0.00  0.00    -0.507 OA
ATOM     39  H   UNL     1     -39.704  21.115   3.151  0.00  0.00    +0.292 HD
ENDBRANCH  11  38
BRANCH  14  40
ATOM     40  O   UNL     1     -35.641  20.506   2.979  0.00  0.00    -0.505 OA
ATOM     41  H   UNL     1     -35.336  20.484   3.866  0.00  0.00    +0.292 HD
ENDBRANCH  14  40
BRANCH  18  42
ATOM     42  O   UNL     1     -34.081  18.887   1.878  0.00  0.00    -0.505 OA
ATOM     43  H   UNL     1     -34.730  18.280   1.580  0.00  0.00    +0.292 HD
ENDBRANCH  18  42
TORSDOF 8
ENDMDL
MODEL 7
REMARK VINA RESULT:      -6.4      1.892      3.041
REMARK  Name = 54686193
REMARK  8 active torsions:
REMARK  status: ('A' for Active; 'I' for Inactive)
REMARK    1  A    between atoms: C_4  and  O_36
REMARK    2  A    between atoms: C_7  and  N_32
REMARK    3  A    between atoms: C_11  and  O_38
REMARK    4  A    between atoms: C_13  and  C_24
REMARK    5  A    between atoms: C_14  and  O_40
REMARK    6  A    between atoms: C_18  and  O_42
REMARK    7  A    between atoms: C_25  and  C_27
REMARK    8  A    between atoms: C_27  and  N_28
REMARK                            x       y       z     vdW  Elec       q    Type
REMARK                         _______ _______ _______ _____ _____    ______ ____
ROOT
ATOM      1  O   UNL     1     -35.408  21.543   4.183  0.00  0.00    -0.288 OA
ATOM      2  O   UNL     1     -37.834  25.959   0.008  0.00  0.00    -0.293 OA
ATOM      3  C   UNL     1     -35.184  24.205   1.745  0.00  0.00    +0.031 C 
ATOM      4  C   UNL     1     -36.023  23.476   2.826  0.00  0.00    +0.192 C 
ATOM      5  C   UNL     1     -34.877  23.315   0.508  0.00  0.00    +0.028 C 
ATOM      6  C   UNL     1     -34.208  22.000   0.930  0.00  0.00    -0.016 C 
ATOM      7  C   UNL     1     -35.866  25.504   1.285  0.00  0.00    +0.009 C 
ATOM      8  C   UNL     1     -35.150  21.279   1.845  0.00  0.00    +0.067 C 
ATOM      9  C   UNL     1     -35.500  22.052   3.068  0.00  0.00    +0.206 C 
ATOM     10  C   UNL     1     -33.732  21.161  -0.270  0.00  0.00    -0.004 C 
ATOM     11  C   UNL     1     -37.505  23.414   2.498  0.00  0.00    +0.149 C 
ATOM     12  C   UNL     1     -37.303  25.256   0.871  0.00  0.00    +0.161 C 
ATOM     13  C   UNL     1     -38.097  24.190   1.565  0.00  0.00    +0.118 C 
ATOM     14  C   UNL     1     -35.753  20.110   1.575  0.00  0.00    +0.139 C 
ATOM     15  C   UNL     1     -34.621  20.004  -0.648  0.00  0.00    +0.006 C 
ATOM     16  C   UNL     1     -35.554  19.469   0.261  0.00  0.00    +0.067 C 
ATOM     17  C   UNL     1     -34.448  19.405  -1.907  0.00  0.00    +0.000 C 
ATOM     18  C   UNL     1     -36.302  18.343  -0.124  0.00  0.00    +0.136 C 
ATOM     19  C   UNL     1     -35.201  18.291  -2.273  0.00  0.00    +0.003 C 
ATOM     20  C   UNL     1     -36.126  17.761  -1.382  0.00  0.00    +0.037 C 
ENDROOT
BRANCH  13  24
ATOM     21  O   UNL     1     -39.936  22.973   0.750  0.00  0.00    -0.270 OA
ATOM     22  O   UNL     1     -42.368  24.394   0.833  0.00  0.00    -0.277 OA
ATOM     23  N   UNL     1     -40.275  25.157   1.521  0.00  0.00    -0.253 N 
ATOM     24  C   UNL     1     -39.523  24.025   1.231  0.00  0.00    +0.257 C 
ATOM     25  C   UNL     1     -41.651  25.272   1.305  0.00  0.00    +0.207 C 
ATOM     26  H   UNL     1     -39.805  25.932   1.907  0.00  0.00    +0.158 HD
BRANCH  25  27
ATOM     27  C   UNL     1     -42.157  26.637   1.728  0.00  0.00    +0.010 C 
BRANCH  27  28
ATOM     28  N   UNL     1     -42.783  26.535   3.038  0.00  0.00    +0.390 N 
ATOM     29  C   UNL     1     -44.242  26.507   2.913  0.00  0.00    -0.100 C 
ATOM     30  C   UNL     1     -42.370  27.646   3.898  0.00  0.00    -0.100 C 
ATOM     31  H   UNL     1     -42.477  25.661   3.466  0.00  0.00    -0.079 HD
ENDBRANCH  27  28
ENDBRANCH  25  27
ENDBRANCH  13  24
BRANCH   7  32
ATOM     32  N   UNL     1     -35.903  26.546   2.308  0.00  0.00    +0.390 N 
ATOM     33  C   UNL     1     -36.424  27.791   1.748  0.00  0.00    -0.100 C 
ATOM     34  C   UNL     1     -34.570  26.756   2.870  0.00  0.00    -0.100 C 
ATOM     35  H   UNL     1     -36.525  26.244   3.059  0.00  0.00    -0.079 HD
ENDBRANCH   7  32
BRANCH   4  36
ATOM     36  O   UNL     1     -35.906  24.158   4.075  0.00  0.00    -0.373 OA
ATOM     37  H   UNL     1     -35.615  23.532   4.757  0.00  0.00    +0.211 HD
ENDBRANCH   4  36
BRANCH  11  38
ATOM     38  O   UNL     1     -38.188  22.488   3.270  0.00  0.00    -0.507 OA
ATOM     39  H   UNL     1     -38.308  21.613   2.957  0.00  0.00    +0.292 HD
ENDBRANCH  11  38
BRANCH  14  40
ATOM     40  O   UNL     1     -36.648  19.483   2.416  0.00  0.00    -0.505 OA
ATOM     41  H   UNL     1     -37.027  18.662   2.169  0.00  0.00    +0.292 HD
ENDBRANCH  14  40
BRANCH  18  42
ATOM     42  O   UNL     1     -37.208  17.744   0.704  0.00  0.00    -0.505 OA
ATOM     43  H   UNL     1     -38.044  18.143   0.851  0.00  0.00    +0.292 HD
ENDBRANCH  18  42
TORSDOF 8
ENDMDL
MODEL 8
REMARK VINA RESULT:      -6.3      3.058      5.668
REMARK  Name = 54686193
REMARK  8 active torsions:
REMARK  status: ('A' for Active; 'I' for Inactive)
REMARK    1  A    between atoms: C_4  and  O_36
REMARK    2  A    between atoms: C_7  and  N_32
REMARK    3  A    between atoms: C_11  and  O_38
REMARK    4  A    between atoms: C_13  and  C_24
REMARK    5  A    between atoms: C_14  and  O_40
REMARK    6  A    between atoms: C_18  and  O_42
REMARK    7  A    between atoms: C_25  and  C_27
REMARK    8  A    between atoms: C_27  and  N_28
REMARK                            x       y       z     vdW  Elec       q    Type
REMARK                         _______ _______ _______ _____ _____    ______ ____
ROOT
ATOM      1  O   UNL     1     -35.329  23.652  -0.735  0.00  0.00    -0.288 OA
ATOM      2  O   UNL     1     -41.154  21.000   0.624  0.00  0.00    -0.293 OA
ATOM      3  C   UNL     1     -37.623  20.913  -0.178  0.00  0.00    +0.031 C 
ATOM      4  C   UNL     1     -37.415  22.394  -0.583  0.00  0.00    +0.192 C 
ATOM      5  C   UNL     1     -37.231  20.624   1.298  0.00  0.00    +0.028 C 
ATOM      6  C   UNL     1     -35.791  21.075   1.583  0.00  0.00    -0.016 C 
ATOM      7  C   UNL     1     -39.073  20.461  -0.420  0.00  0.00    +0.009 C 
ATOM      8  C   UNL     1     -35.713  22.548   1.323  0.00  0.00    +0.067 C 
ATOM      9  C   UNL     1     -36.066  22.925  -0.073  0.00  0.00    +0.206 C 
ATOM     10  C   UNL     1     -35.301  20.656   2.980  0.00  0.00    -0.004 C 
ATOM     11  C   UNL     1     -38.525  23.313  -0.104  0.00  0.00    +0.149 C 
ATOM     12  C   UNL     1     -40.062  21.412   0.226  0.00  0.00    +0.161 C 
ATOM     13  C   UNL     1     -39.729  22.871   0.320  0.00  0.00    +0.118 C 
ATOM     14  C   UNL     1     -35.483  23.490   2.252  0.00  0.00    +0.139 C 
ATOM     15  C   UNL     1     -35.315  21.741   4.026  0.00  0.00    +0.006 C 
ATOM     16  C   UNL     1     -35.349  23.103   3.670  0.00  0.00    +0.067 C 
ATOM     17  C   UNL     1     -35.208  21.375   5.379  0.00  0.00    +0.000 C 
ATOM     18  C   UNL     1     -35.285  24.069   4.688  0.00  0.00    +0.136 C 
ATOM     19  C   UNL     1     -35.150  22.347   6.375  0.00  0.00    +0.003 C 
ATOM     20  C   UNL     1     -35.187  23.692   6.030  0.00  0.00    +0.037 C 
ENDROOT
BRANCH  13  24
ATOM     21  O   UNL     1     -40.444  24.606   1.736  0.00  0.00    -0.270 OA
ATOM     22  O   UNL     1     -43.156  25.296   1.412  0.00  0.00    -0.277 OA
ATOM     23  N   UNL     1     -41.980  23.650   0.252  0.00  0.00    -0.253 N 
ATOM     24  C   UNL     1     -40.738  23.804   0.854  0.00  0.00    +0.257 C 
ATOM     25  C   UNL     1     -43.114  24.406   0.566  0.00  0.00    +0.207 C 
ATOM     26  H   UNL     1     -42.068  22.962  -0.447  0.00  0.00    +0.158 HD
BRANCH  25  27
ATOM     27  C   UNL     1     -44.302  23.982  -0.273  0.00  0.00    +0.010 C 
BRANCH  27  28
ATOM     28  N   UNL     1     -44.940  22.828   0.344  0.00  0.00    +0.390 N 
ATOM     29  C   UNL     1     -45.329  21.848  -0.673  0.00  0.00    -0.100 C 
ATOM     30  C   UNL     1     -46.109  23.237   1.125  0.00  0.00    -0.100 C 
ATOM     31  H   UNL     1     -44.265  22.393   0.972  0.00  0.00    -0.079 HD
ENDBRANCH  27  28
ENDBRANCH  25  27
ENDBRANCH  13  24
BRANCH   7  32
ATOM     32  N   UNL     1     -39.438  20.381  -1.833  0.00  0.00    +0.390 N 
ATOM     33  C   UNL     1     -40.844  20.011  -1.975  0.00  0.00    -0.100 C 
ATOM     34  C   UNL     1     -38.582  19.420  -2.526  0.00  0.00    -0.100 C 
ATOM     35  H   UNL     1     -39.301  21.299  -2.258  0.00  0.00    -0.079 HD
ENDBRANCH   7  32
BRANCH   4  36
ATOM     36  O   UNL     1     -37.371  22.509  -2.007  0.00  0.00    -0.373 OA
ATOM     37  H   UNL     1     -36.450  22.605  -2.294  0.00  0.00    +0.211 HD
ENDBRANCH   4  36
BRANCH  11  38
ATOM     38  O   UNL     1     -38.179  24.653  -0.165  0.00  0.00    -0.507 OA
ATOM     39  H   UNL     1     -37.709  24.983  -0.906  0.00  0.00    +0.292 HD
ENDBRANCH  11  38
BRANCH  14  40
ATOM     40  O   UNL     1     -35.455  24.844   1.997  0.00  0.00    -0.505 OA
ATOM     41  H   UNL     1     -35.693  25.453   2.669  0.00  0.00    +0.292 HD
ENDBRANCH  14  40
BRANCH  18  42
ATOM     42  O   UNL     1     -35.286  25.411   4.430  0.00  0.00    -0.505 OA
ATOM     43  H   UNL     1     -34.990  25.728   3.599  0.00  0.00    +0.292 HD
ENDBRANCH  18  42
TORSDOF 8
ENDMDL
MODEL 9
REMARK VINA RESULT:      -6.3      2.598      4.045
REMARK  Name = 54686193
REMARK  8 active torsions:
REMARK  status: ('A' for Active; 'I' for Inactive)
REMARK    1  A    between atoms: C_4  and  O_36
REMARK    2  A    between atoms: C_7  and  N_32
REMARK    3  A    between atoms: C_11  and  O_38
REMARK    4  A    between atoms: C_13  and  C_24
REMARK    5  A    between atoms: C_14  and  O_40
REMARK    6  A    between atoms: C_18  and  O_42
REMARK    7  A    between atoms: C_25  and  C_27
REMARK    8  A    between atoms: C_27  and  N_28
REMARK                            x       y       z     vdW  Elec       q    Type
REMARK                         _______ _______ _______ _____ _____    ______ ____
ROOT
ATOM      1  O   UNL     1     -37.033  22.909   4.232  0.00  0.00    -0.288 OA
ATOM      2  O   UNL     1     -40.195  23.598  -1.454  0.00  0.00    -0.293 OA
ATOM      3  C   UNL     1     -37.948  24.635   1.189  0.00  0.00    +0.031 C 
ATOM      4  C   UNL     1     -38.312  23.581   2.265  0.00  0.00    +0.192 C 
ATOM      5  C   UNL     1     -36.692  24.249   0.358  0.00  0.00    +0.028 C 
ATOM      6  C   UNL     1     -35.494  23.961   1.273  0.00  0.00    -0.016 C 
ATOM      7  C   UNL     1     -39.127  24.902   0.240  0.00  0.00    +0.009 C 
ATOM      8  C   UNL     1     -35.868  22.823   2.173  0.00  0.00    +0.067 C 
ATOM      9  C   UNL     1     -37.061  23.102   3.019  0.00  0.00    +0.206 C 
ATOM     10  C   UNL     1     -34.186  23.740   0.492  0.00  0.00    -0.004 C 
ATOM     11  C   UNL     1     -39.047  22.376   1.704  0.00  0.00    +0.149 C 
ATOM     12  C   UNL     1     -39.674  23.610  -0.337  0.00  0.00    +0.161 C 
ATOM     13  C   UNL     1     -39.634  22.359   0.488  0.00  0.00    +0.118 C 
ATOM     14  C   UNL     1     -35.302  21.606   2.163  0.00  0.00    +0.139 C 
ATOM     15  C   UNL     1     -33.763  22.303   0.325  0.00  0.00    +0.006 C 
ATOM     16  C   UNL     1     -34.262  21.290   1.165  0.00  0.00    +0.067 C 
ATOM     17  C   UNL     1     -32.788  21.996  -0.639  0.00  0.00    +0.000 C 
ATOM     18  C   UNL     1     -33.774  19.981   1.007  0.00  0.00    +0.136 C 
ATOM     19  C   UNL     1     -32.319  20.692  -0.784  0.00  0.00    +0.003 C 
ATOM     20  C   UNL     1     -32.811  19.686   0.040  0.00  0.00    +0.037 C 
ENDROOT
BRANCH  13  24
ATOM     21  O   UNL     1     -39.635  20.077  -0.078  0.00  0.00    -0.270 OA
ATOM     22  O   UNL     1     -42.074  19.174  -1.161  0.00  0.00    -0.277 OA
ATOM     23  N   UNL     1     -41.572  21.337  -0.449  0.00  0.00    -0.253 N 
ATOM     24  C   UNL     1     -40.261  21.132  -0.037  0.00  0.00    +0.257 C 
ATOM     25  C   UNL     1     -42.399  20.345  -0.985  0.00  0.00    +0.207 C 
ATOM     26  H   UNL     1     -41.946  22.243  -0.355  0.00  0.00    +0.158 HD
BRANCH  25  27
ATOM     27  C   UNL     1     -43.765  20.903  -1.332  0.00  0.00    +0.010 C 
BRANCH  27  28
ATOM     28  N   UNL     1     -44.461  21.268  -0.107  0.00  0.00    +0.390 N 
ATOM     29  C   UNL     1     -45.434  20.236   0.262  0.00  0.00    -0.100 C 
ATOM     30  C   UNL     1     -45.130  22.562  -0.257  0.00  0.00    -0.100 C 
ATOM     31  H   UNL     1     -43.770  21.344   0.638  0.00  0.00    -0.079 HD
ENDBRANCH  27  28
ENDBRANCH  25  27
ENDBRANCH  13  24
BRANCH   7  32
ATOM     32  N   UNL     1     -40.254  25.582   0.875  0.00  0.00    +0.390 N 
ATOM     33  C   UNL     1     -41.517  24.995   0.433  0.00  0.00    -0.100 C 
ATOM     34  C   UNL     1     -40.220  27.012   0.575  0.00  0.00    -0.100 C 
ATOM     35  H   UNL     1     -40.179  25.462   1.886  0.00  0.00    -0.079 HD
ENDBRANCH   7  32
BRANCH   4  36
ATOM     36  O   UNL     1     -39.166  24.164   3.249  0.00  0.00    -0.373 OA
ATOM     37  H   UNL     1     -40.025  24.372   2.849  0.00  0.00    +0.211 HD
ENDBRANCH   4  36
BRANCH  11  38
ATOM     38  O   UNL     1     -39.069  21.303   2.581  0.00  0.00    -0.507 OA
ATOM     39  H   UNL     1     -39.847  20.789   2.674  0.00  0.00    +0.292 HD
ENDBRANCH  11  38
BRANCH  14  40
ATOM     40  O   UNL     1     -35.689  20.560   2.974  0.00  0.00    -0.505 OA
ATOM     41  H   UNL     1     -36.322  20.702   3.651  0.00  0.00    +0.292 HD
ENDBRANCH  14  40
BRANCH  18  42
ATOM     42  O   UNL     1     -34.184  18.943   1.796  0.00  0.00    -0.505 OA
ATOM     43  H   UNL     1     -34.722  19.109   2.545  0.00  0.00    +0.292 HD
ENDBRANCH  18  42
TORSDOF 8
ENDMDL
