MODEL 1
REMARK VINA RESULT:      -6.5      0.000      0.000
REMARK  Name = 5702240
REMARK  8 active torsions:
REMARK  status: ('A' for Active; 'I' for Inactive)
REMARK    1  A    between atoms: C_6  and  C_24
REMARK    2  A    between atoms: C_6  and  O_28
REMARK    3  A    between atoms: C_9  and  O_21
REMARK    4  A    between atoms: C_24  and  C_25
REMARK    5  A    between atoms: C_25  and  O_26
REMARK    6  A    between atoms: O_28  and  C_30
REMARK    7  A    between atoms: C_30  and  C_31
REMARK    8  A    between atoms: C_31  and  C_32
REMARK                            x       y       z     vdW  Elec       q    Type
REMARK                         _______ _______ _______ _____ _____    ______ ____
ROOT
ATOM      1  O   UNL     1     -32.522  28.219   5.230  0.00  0.00    -0.291 OA
ATOM      2  C   UNL     1     -36.222  21.572   1.506  0.00  0.00    +0.043 C 
ATOM      3  C   UNL     1     -35.924  22.940   0.855  0.00  0.00    +0.004 C 
ATOM      4  C   UNL     1     -36.020  24.147   1.821  0.00  0.00    +0.003 C 
ATOM      5  C   UNL     1     -35.198  23.952   3.125  0.00  0.00    +0.030 C 
ATOM      6  C   UNL     1     -35.674  20.587   0.434  0.00  0.00    +0.188 C 
ATOM      7  C   UNL     1     -35.440  21.420   2.845  0.00  0.00    +0.033 C 
ATOM      8  C   UNL     1     -35.229  25.219   4.080  0.00  0.00    +0.018 C 
ATOM      9  C   UNL     1     -35.560  22.608   3.808  0.00  0.00    +0.111 C 
ATOM     10  C   UNL     1     -34.553  22.745   0.175  0.00  0.00    +0.004 C 
ATOM     11  C   UNL     1     -34.390  21.243  -0.080  0.00  0.00    +0.047 C 
ATOM     12  C   UNL     1     -35.607  25.439   1.097  0.00  0.00    +0.004 C 
ATOM     13  C   UNL     1     -37.730  21.370   1.750  0.00  0.00    +0.004 C 
ATOM     14  C   UNL     1     -34.932  26.484   3.266  0.00  0.00    -0.042 C 
ATOM     15  C   UNL     1     -35.728  26.659   1.996  0.00  0.00    +0.022 C 
ATOM     16  C   UNL     1     -34.135  25.022   5.171  0.00  0.00    +0.012 C 
ATOM     17  C   UNL     1     -36.592  25.441   4.776  0.00  0.00    +0.004 C 
ATOM     18  C   UNL     1     -33.777  26.299   5.914  0.00  0.00    +0.069 C 
ATOM     19  C   UNL     1     -34.054  27.432   3.634  0.00  0.00    +0.029 C 
ATOM     20  C   UNL     1     -33.359  27.369   4.940  0.00  0.00    +0.173 C 
ENDROOT
BRANCH   9  21
ATOM     21  O   UNL     1     -36.869  22.638   4.358  0.00  0.00    -0.384 OA
ATOM     22  H   UNL     1     -37.029  23.504   4.766  0.00  0.00    +0.210 HD
ENDBRANCH   9  21
BRANCH   6  24
ATOM     23  O   UNL     1     -36.513  20.982  -1.769  0.00  0.00    -0.290 OA
ATOM     24  C   UNL     1     -36.616  20.348  -0.719  0.00  0.00    +0.216 C 
BRANCH  24  25
ATOM     25  C   UNL     1     -37.682  19.295  -0.508  0.00  0.00    +0.206 C 
BRANCH  25  26
ATOM     26  O   UNL     1     -37.293  18.069  -1.090  0.00  0.00    -0.375 OA
ATOM     27  H   UNL     1     -36.454  17.777  -0.700  0.00  0.00    +0.211 HD
ENDBRANCH  25  26
ENDBRANCH  24  25
ENDBRANCH   6  24
BRANCH   6  28
ATOM     28  O   UNL     1     -35.420  19.301   0.973  0.00  0.00    -0.449 OA
BRANCH  28  30
ATOM     29  O   UNL     1     -34.260  18.063  -0.591  0.00  0.00    -0.250 OA
ATOM     30  C   UNL     1     -34.317  18.649   0.481  0.00  0.00    +0.317 C 
BRANCH  30  31
ATOM     31  C   UNL     1     -33.182  18.765   1.474  0.00  0.00    +0.110 C 
BRANCH  31  32
ATOM     32  C   UNL     1     -31.848  18.334   0.869  0.00  0.00    +0.012 C 
ATOM     33  C   UNL     1     -31.167  19.484   0.145  0.00  0.00    +0.001 C 
ENDBRANCH  31  32
ENDBRANCH  30  31
ENDBRANCH  28  30
ENDBRANCH   6  28
TORSDOF 8
ENDMDL
MODEL 2
REMARK VINA RESULT:      -6.2      2.183      7.321
REMARK  Name = 5702240
REMARK  8 active torsions:
REMARK  status: ('A' for Active; 'I' for Inactive)
REMARK    1  A    between atoms: C_6  and  C_24
REMARK    2  A    between atoms: C_6  and  O_28
REMARK    3  A    between atoms: C_9  and  O_21
REMARK    4  A    between atoms: C_24  and  C_25
REMARK    5  A    between atoms: C_25  and  O_26
REMARK    6  A    between atoms: O_28  and  C_30
REMARK    7  A    between atoms: C_30  and  C_31
REMARK    8  A    between atoms: C_31  and  C_32
REMARK                            x       y       z     vdW  Elec       q    Type
REMARK                         _______ _______ _______ _____ _____    ______ ____
ROOT
ATOM      1  O   UNL     1     -31.135  16.786   0.688  0.00  0.00    -0.291 OA
ATOM      2  C   UNL     1     -35.977  23.658   1.719  0.00  0.00    +0.043 C 
ATOM      3  C   UNL     1     -36.402  22.193   1.957  0.00  0.00    +0.004 C 
ATOM      4  C   UNL     1     -35.733  21.167   1.008  0.00  0.00    +0.003 C 
ATOM      5  C   UNL     1     -34.187  21.305   0.953  0.00  0.00    +0.030 C 
ATOM      6  C   UNL     1     -36.480  24.347   3.021  0.00  0.00    +0.188 C 
ATOM      7  C   UNL     1     -34.428  23.769   1.602  0.00  0.00    +0.033 C 
ATOM      8  C   UNL     1     -33.492  20.204   0.045  0.00  0.00    +0.018 C 
ATOM      9  C   UNL     1     -33.774  22.767   0.641  0.00  0.00    +0.111 C 
ATOM     10  C   UNL     1     -36.147  21.966   3.462  0.00  0.00    +0.004 C 
ATOM     11  C   UNL     1     -36.184  23.342   4.135  0.00  0.00    +0.047 C 
ATOM     12  C   UNL     1     -36.146  19.738   1.399  0.00  0.00    +0.004 C 
ATOM     13  C   UNL     1     -36.646  24.252   0.464  0.00  0.00    +0.004 C 
ATOM     14  C   UNL     1     -34.045  18.819   0.403  0.00  0.00    -0.042 C 
ATOM     15  C   UNL     1     -35.547  18.698   0.465  0.00  0.00    +0.022 C 
ATOM     16  C   UNL     1     -31.960  20.252   0.322  0.00  0.00    +0.012 C 
ATOM     17  C   UNL     1     -33.730  20.406  -1.470  0.00  0.00    +0.004 C 
ATOM     18  C   UNL     1     -31.213  19.022  -0.165  0.00  0.00    +0.069 C 
ATOM     19  C   UNL     1     -33.283  17.735   0.621  0.00  0.00    +0.029 C 
ATOM     20  C   UNL     1     -31.815  17.776   0.431  0.00  0.00    +0.173 C 
ENDROOT
BRANCH   9  21
ATOM     21  O   UNL     1     -34.090  23.123  -0.697  0.00  0.00    -0.384 OA
ATOM     22  H   UNL     1     -34.984  23.497  -0.731  0.00  0.00    +0.210 HD
ENDBRANCH   9  21
BRANCH   6  24
ATOM     23  O   UNL     1     -38.791  23.850   3.374  0.00  0.00    -0.290 OA
ATOM     24  C   UNL     1     -37.952  24.674   3.012  0.00  0.00    +0.216 C 
BRANCH  24  25
ATOM     25  C   UNL     1     -38.329  26.061   2.537  0.00  0.00    +0.206 C 
BRANCH  25  26
ATOM     26  O   UNL     1     -39.315  26.625   3.376  0.00  0.00    -0.375 OA
ATOM     27  H   UNL     1     -40.184  26.263   3.142  0.00  0.00    +0.211 HD
ENDBRANCH  25  26
ENDBRANCH  24  25
ENDBRANCH   6  24
BRANCH   6  28
ATOM     28  O   UNL     1     -35.831  25.585   3.252  0.00  0.00    -0.449 OA
BRANCH  28  30
ATOM     29  O   UNL     1     -36.253  26.158   5.448  0.00  0.00    -0.250 OA
ATOM     30  C   UNL     1     -35.479  25.846   4.553  0.00  0.00    +0.317 C 
BRANCH  30  31
ATOM     31  C   UNL     1     -33.983  25.691   4.708  0.00  0.00    +0.110 C 
BRANCH  31  32
ATOM     32  C   UNL     1     -33.312  27.002   5.117  0.00  0.00    +0.012 C 
ATOM     33  C   UNL     1     -32.938  27.000   6.590  0.00  0.00    +0.001 C 
ENDBRANCH  31  32
ENDBRANCH  30  31
ENDBRANCH  28  30
ENDBRANCH   6  28
TORSDOF 8
ENDMDL
MODEL 3
REMARK VINA RESULT:      -6.1      2.330      7.482
REMARK  Name = 5702240
REMARK  8 active torsions:
REMARK  status: ('A' for Active; 'I' for Inactive)
REMARK    1  A    between atoms: C_6  and  C_24
REMARK    2  A    between atoms: C_6  and  O_28
REMARK    3  A    between atoms: C_9  and  O_21
REMARK    4  A    between atoms: C_24  and  C_25
REMARK    5  A    between atoms: C_25  and  O_26
REMARK    6  A    between atoms: O_28  and  C_30
REMARK    7  A    between atoms: C_30  and  C_31
REMARK    8  A    between atoms: C_31  and  C_32
REMARK                            x       y       z     vdW  Elec       q    Type
REMARK                         _______ _______ _______ _____ _____    ______ ____
ROOT
ATOM      1  O   UNL     1     -34.802  17.715  -3.130  0.00  0.00    -0.291 OA
ATOM      2  C   UNL     1     -35.842  23.562   2.910  0.00  0.00    +0.043 C 
ATOM      3  C   UNL     1     -34.949  23.686   1.657  0.00  0.00    +0.004 C 
ATOM      4  C   UNL     1     -34.306  22.356   1.190  0.00  0.00    +0.003 C 
ATOM      5  C   UNL     1     -35.335  21.202   1.036  0.00  0.00    +0.030 C 
ATOM      6  C   UNL     1     -36.616  24.911   2.880  0.00  0.00    +0.188 C 
ATOM      7  C   UNL     1     -36.823  22.360   2.767  0.00  0.00    +0.033 C 
ATOM      8  C   UNL     1     -34.694  19.861   0.481  0.00  0.00    +0.018 C 
ATOM      9  C   UNL     1     -36.177  21.040   2.328  0.00  0.00    +0.111 C 
ATOM     10  C   UNL     1     -35.850  24.386   0.618  0.00  0.00    +0.004 C 
ATOM     11  C   UNL     1     -36.920  25.155   1.400  0.00  0.00    +0.047 C 
ATOM     12  C   UNL     1     -33.526  22.576  -0.117  0.00  0.00    +0.004 C 
ATOM     13  C   UNL     1     -35.006  23.411   4.196  0.00  0.00    +0.004 C 
ATOM     14  C   UNL     1     -33.829  20.175  -0.746  0.00  0.00    -0.042 C 
ATOM     15  C   UNL     1     -32.840  21.304  -0.591  0.00  0.00    +0.022 C 
ATOM     16  C   UNL     1     -35.857  18.906   0.079  0.00  0.00    +0.012 C 
ATOM     17  C   UNL     1     -33.785  19.137   1.500  0.00  0.00    +0.004 C 
ATOM     18  C   UNL     1     -35.422  17.758  -0.818  0.00  0.00    +0.069 C 
ATOM     19  C   UNL     1     -33.880  19.492  -1.902  0.00  0.00    +0.029 C 
ATOM     20  C   UNL     1     -34.732  18.290  -2.046  0.00  0.00    +0.173 C 
ENDROOT
BRANCH   9  21
ATOM     21  O   UNL     1     -35.398  20.519   3.396  0.00  0.00    -0.384 OA
ATOM     22  H   UNL     1     -34.762  21.191   3.691  0.00  0.00    +0.210 HD
ENDBRANCH   9  21
BRANCH   6  24
ATOM     23  O   UNL     1     -35.413  26.968   2.701  0.00  0.00    -0.290 OA
ATOM     24  C   UNL     1     -35.839  26.077   3.435  0.00  0.00    +0.216 C 
BRANCH  24  25
ATOM     25  C   UNL     1     -35.617  26.084   4.932  0.00  0.00    +0.206 C 
BRANCH  25  26
ATOM     26  O   UNL     1     -36.729  26.643   5.599  0.00  0.00    -0.375 OA
ATOM     27  H   UNL     1     -37.456  26.766   4.968  0.00  0.00    +0.211 HD
ENDBRANCH  25  26
ENDBRANCH  24  25
ENDBRANCH   6  24
BRANCH   6  28
ATOM     28  O   UNL     1     -37.803  24.859   3.652  0.00  0.00    -0.449 OA
BRANCH  28  30
ATOM     29  O   UNL     1     -39.064  26.560   2.732  0.00  0.00    -0.250 OA
ATOM     30  C   UNL     1     -38.925  25.391   3.067  0.00  0.00    +0.317 C 
BRANCH  30  31
ATOM     31  C   UNL     1     -39.967  24.308   2.903  0.00  0.00    +0.110 C 
BRANCH  31  32
ATOM     32  C   UNL     1     -40.457  24.199   1.460  0.00  0.00    +0.012 C 
ATOM     33  C   UNL     1     -39.980  22.913   0.806  0.00  0.00    +0.001 C 
ENDBRANCH  31  32
ENDBRANCH  30  31
ENDBRANCH  28  30
ENDBRANCH   6  28
TORSDOF 8
ENDMDL
MODEL 4
REMARK VINA RESULT:      -6.1      2.326      7.626
REMARK  Name = 5702240
REMARK  8 active torsions:
REMARK  status: ('A' for Active; 'I' for Inactive)
REMARK    1  A    between atoms: C_6  and  C_24
REMARK    2  A    between atoms: C_6  and  O_28
REMARK    3  A    between atoms: C_9  and  O_21
REMARK    4  A    between atoms: C_24  and  C_25
REMARK    5  A    between atoms: C_25  and  O_26
REMARK    6  A    between atoms: O_28  and  C_30
REMARK    7  A    between atoms: C_30  and  C_31
REMARK    8  A    between atoms: C_31  and  C_32
REMARK                            x       y       z     vdW  Elec       q    Type
REMARK                         _______ _______ _______ _____ _____    ______ ____
ROOT
ATOM      1  O   UNL     1     -35.524  18.834  -4.488  0.00  0.00    -0.291 OA
ATOM      2  C   UNL     1     -36.072  22.790   2.981  0.00  0.00    +0.043 C 
ATOM      3  C   UNL     1     -34.960  22.972   1.926  0.00  0.00    +0.004 C 
ATOM      4  C   UNL     1     -34.622  21.694   1.120  0.00  0.00    +0.003 C 
ATOM      5  C   UNL     1     -35.874  21.010   0.506  0.00  0.00    +0.030 C 
ATOM      6  C   UNL     1     -36.437  24.266   3.312  0.00  0.00    +0.188 C 
ATOM      7  C   UNL     1     -37.294  22.045   2.367  0.00  0.00    +0.033 C 
ATOM      8  C   UNL     1     -35.523  19.745  -0.387  0.00  0.00    +0.018 C 
ATOM      9  C   UNL     1     -36.954  20.765   1.591  0.00  0.00    +0.111 C 
ATOM     10  C   UNL     1     -35.430  24.179   1.086  0.00  0.00    +0.004 C 
ATOM     11  C   UNL     1     -36.383  24.994   1.967  0.00  0.00    +0.047 C 
ATOM     12  C   UNL     1     -33.580  22.013   0.033  0.00  0.00    +0.004 C 
ATOM     13  C   UNL     1     -35.563  22.035   4.225  0.00  0.00    +0.004 C 
ATOM     14  C   UNL     1     -34.392  20.101  -1.359  0.00  0.00    -0.042 C 
ATOM     15  C   UNL     1     -33.184  20.776  -0.756  0.00  0.00    +0.022 C 
ATOM     16  C   UNL     1     -36.803  19.352  -1.183  0.00  0.00    +0.012 C 
ATOM     17  C   UNL     1     -35.048  18.520   0.428  0.00  0.00    +0.004 C 
ATOM     18  C   UNL     1     -36.531  18.423  -2.355  0.00  0.00    +0.069 C 
ATOM     19  C   UNL     1     -34.407  19.819  -2.672  0.00  0.00    +0.029 C 
ATOM     20  C   UNL     1     -35.506  19.033  -3.276  0.00  0.00    +0.173 C 
ENDROOT
BRANCH   9  21
ATOM     21  O   UNL     1     -36.557  19.752   2.504  0.00  0.00    -0.384 OA
ATOM     22  H   UNL     1     -35.860  19.210   2.103  0.00  0.00    +0.210 HD
ENDBRANCH   9  21
BRANCH   6  24
ATOM     23  O   UNL     1     -34.315  25.128   3.995  0.00  0.00    -0.290 OA
ATOM     24  C   UNL     1     -35.494  24.928   4.285  0.00  0.00    +0.216 C 
BRANCH  24  25
ATOM     25  C   UNL     1     -36.080  25.327   5.622  0.00  0.00    +0.206 C 
BRANCH  25  26
ATOM     26  O   UNL     1     -36.633  26.624   5.557  0.00  0.00    -0.375 OA
ATOM     27  H   UNL     1     -36.361  27.051   4.729  0.00  0.00    +0.211 HD
ENDBRANCH  25  26
ENDBRANCH  24  25
ENDBRANCH   6  24
BRANCH   6  28
ATOM     28  O   UNL     1     -37.717  24.375   3.910  0.00  0.00    -0.449 OA
BRANCH  28  30
ATOM     29  O   UNL     1     -38.456  26.363   3.000  0.00  0.00    -0.250 OA
ATOM     30  C   UNL     1     -38.619  25.178   3.258  0.00  0.00    +0.317 C 
BRANCH  30  31
ATOM     31  C   UNL     1     -39.849  24.371   2.910  0.00  0.00    +0.110 C 
BRANCH  31  32
ATOM     32  C   UNL     1     -40.420  24.759   1.547  0.00  0.00    +0.012 C 
ATOM     33  C   UNL     1     -39.641  24.113   0.413  0.00  0.00    +0.001 C 
ENDBRANCH  31  32
ENDBRANCH  30  31
ENDBRANCH  28  30
ENDBRANCH   6  28
TORSDOF 8
ENDMDL
MODEL 5
REMARK VINA RESULT:      -6.0      2.314      7.117
REMARK  Name = 5702240
REMARK  8 active torsions:
REMARK  status: ('A' for Active; 'I' for Inactive)
REMARK    1  A    between atoms: C_6  and  C_24
REMARK    2  A    between atoms: C_6  and  O_28
REMARK    3  A    between atoms: C_9  and  O_21
REMARK    4  A    between atoms: C_24  and  C_25
REMARK    5  A    between atoms: C_25  and  O_26
REMARK    6  A    between atoms: O_28  and  C_30
REMARK    7  A    between atoms: C_30  and  C_31
REMARK    8  A    between atoms: C_31  and  C_32
REMARK                            x       y       z     vdW  Elec       q    Type
REMARK                         _______ _______ _______ _____ _____    ______ ____
ROOT
ATOM      1  O   UNL     1     -29.631  18.374   0.309  0.00  0.00    -0.291 OA
ATOM      2  C   UNL     1     -35.879  23.991   1.386  0.00  0.00    +0.043 C 
ATOM      3  C   UNL     1     -35.738  22.628   2.097  0.00  0.00    +0.004 C 
ATOM      4  C   UNL     1     -35.079  21.519   1.239  0.00  0.00    +0.003 C 
ATOM      5  C   UNL     1     -33.736  21.962   0.597  0.00  0.00    +0.030 C 
ATOM      6  C   UNL     1     -36.182  24.940   2.581  0.00  0.00    +0.188 C 
ATOM      7  C   UNL     1     -34.541  24.389   0.693  0.00  0.00    +0.033 C 
ATOM      8  C   UNL     1     -33.019  20.802  -0.217  0.00  0.00    +0.018 C 
ATOM      9  C   UNL     1     -33.908  23.294  -0.176  0.00  0.00    +0.111 C 
ATOM     10  C   UNL     1     -35.010  22.963   3.416  0.00  0.00    +0.004 C 
ATOM     11  C   UNL     1     -35.283  24.441   3.715  0.00  0.00    +0.047 C 
ATOM     12  C   UNL     1     -34.896  20.241   2.075  0.00  0.00    +0.004 C 
ATOM     13  C   UNL     1     -37.026  23.984   0.357  0.00  0.00    +0.004 C 
ATOM     14  C   UNL     1     -32.986  19.525   0.631  0.00  0.00    -0.042 C 
ATOM     15  C   UNL     1     -34.293  19.109   1.259  0.00  0.00    +0.022 C 
ATOM     16  C   UNL     1     -31.567  21.268  -0.533  0.00  0.00    +0.012 C 
ATOM     17  C   UNL     1     -33.726  20.444  -1.544  0.00  0.00    +0.004 C 
ATOM     18  C   UNL     1     -30.642  20.137  -0.956  0.00  0.00    +0.069 C 
ATOM     19  C   UNL     1     -31.894  18.762   0.805  0.00  0.00    +0.029 C 
ATOM     20  C   UNL     1     -30.630  19.055   0.092  0.00  0.00    +0.173 C 
ENDROOT
BRANCH   9  21
ATOM     21  O   UNL     1     -34.684  23.119  -1.353  0.00  0.00    -0.384 OA
ATOM     22  H   UNL     1     -34.347  23.701  -2.052  0.00  0.00    +0.210 HD
ENDBRANCH   9  21
BRANCH   6  24
ATOM     23  O   UNL     1     -38.026  24.085   3.837  0.00  0.00    -0.290 OA
ATOM     24  C   UNL     1     -37.621  24.921   3.031  0.00  0.00    +0.216 C 
BRANCH  24  25
ATOM     25  C   UNL     1     -38.524  25.979   2.435  0.00  0.00    +0.206 C 
BRANCH  25  26
ATOM     26  O   UNL     1     -39.327  26.569   3.435  0.00  0.00    -0.375 OA
ATOM     27  H   UNL     1     -40.096  26.994   3.024  0.00  0.00    +0.211 HD
ENDBRANCH  25  26
ENDBRANCH  24  25
ENDBRANCH   6  24
BRANCH   6  28
ATOM     28  O   UNL     1     -35.914  26.295   2.265  0.00  0.00    -0.449 OA
BRANCH  28  30
ATOM     29  O   UNL     1     -35.408  27.165   4.342  0.00  0.00    -0.250 OA
ATOM     30  C   UNL     1     -35.135  26.980   3.164  0.00  0.00    +0.317 C 
BRANCH  30  31
ATOM     31  C   UNL     1     -33.887  27.475   2.470  0.00  0.00    +0.110 C 
BRANCH  31  32
ATOM     32  C   UNL     1     -32.616  26.939   3.127  0.00  0.00    +0.012 C 
ATOM     33  C   UNL     1     -31.762  26.165   2.137  0.00  0.00    +0.001 C 
ENDBRANCH  31  32
ENDBRANCH  30  31
ENDBRANCH  28  30
ENDBRANCH   6  28
TORSDOF 8
ENDMDL
MODEL 6
REMARK VINA RESULT:      -5.8      1.727      2.465
REMARK  Name = 5702240
REMARK  8 active torsions:
REMARK  status: ('A' for Active; 'I' for Inactive)
REMARK    1  A    between atoms: C_6  and  C_24
REMARK    2  A    between atoms: C_6  and  O_28
REMARK    3  A    between atoms: C_9  and  O_21
REMARK    4  A    between atoms: C_24  and  C_25
REMARK    5  A    between atoms: C_25  and  O_26
REMARK    6  A    between atoms: O_28  and  C_30
REMARK    7  A    between atoms: C_30  and  C_31
REMARK    8  A    between atoms: C_31  and  C_32
REMARK                            x       y       z     vdW  Elec       q    Type
REMARK                         _______ _______ _______ _____ _____    ______ ____
ROOT
ATOM      1  O   UNL     1     -34.470  26.593   5.652  0.00  0.00    -0.291 OA
ATOM      2  C   UNL     1     -34.799  20.066   0.264  0.00  0.00    +0.043 C 
ATOM      3  C   UNL     1     -34.552  21.545  -0.101  0.00  0.00    +0.004 C 
ATOM      4  C   UNL     1     -35.292  22.564   0.801  0.00  0.00    +0.003 C 
ATOM      5  C   UNL     1     -35.067  22.312   2.317  0.00  0.00    +0.030 C 
ATOM      6  C   UNL     1     -33.661  19.353  -0.522  0.00  0.00    +0.188 C 
ATOM      7  C   UNL     1     -34.632  19.844   1.797  0.00  0.00    +0.033 C 
ATOM      8  C   UNL     1     -35.758  23.401   3.242  0.00  0.00    +0.018 C 
ATOM      9  C   UNL     1     -35.389  20.841   2.685  0.00  0.00    +0.111 C 
ATOM     10  C   UNL     1     -33.014  21.677  -0.124  0.00  0.00    +0.004 C 
ATOM     11  C   UNL     1     -32.449  20.276  -0.378  0.00  0.00    +0.047 C 
ATOM     12  C   UNL     1     -34.896  23.999   0.415  0.00  0.00    +0.004 C 
ATOM     13  C   UNL     1     -36.193  19.589  -0.190  0.00  0.00    +0.004 C 
ATOM     14  C   UNL     1     -35.422  24.804   2.723  0.00  0.00    -0.042 C 
ATOM     15  C   UNL     1     -35.633  25.035   1.247  0.00  0.00    +0.022 C 
ATOM     16  C   UNL     1     -35.203  23.223   4.687  0.00  0.00    +0.012 C 
ATOM     17  C   UNL     1     -37.300  23.293   3.285  0.00  0.00    +0.004 C 
ATOM     18  C   UNL     1     -35.463  24.416   5.592  0.00  0.00    +0.069 C 
ATOM     19  C   UNL     1     -34.996  25.815   3.499  0.00  0.00    +0.029 C 
ATOM     20  C   UNL     1     -34.912  25.672   4.970  0.00  0.00    +0.173 C 
ENDROOT
BRANCH   9  21
ATOM     21  O   UNL     1     -36.782  20.577   2.608  0.00  0.00    -0.384 OA
ATOM     22  H   UNL     1     -37.263  21.211   3.163  0.00  0.00    +0.210 HD
ENDBRANCH   9  21
BRANCH   6  24
ATOM     23  O   UNL     1     -33.447  19.841  -2.851  0.00  0.00    -0.290 OA
ATOM     24  C   UNL     1     -33.964  19.139  -1.983  0.00  0.00    +0.216 C 
BRANCH  24  25
ATOM     25  C   UNL     1     -34.932  18.024  -2.312  0.00  0.00    +0.206 C 
BRANCH  25  26
ATOM     26  O   UNL     1     -34.238  16.824  -2.577  0.00  0.00    -0.375 OA
ATOM     27  H   UNL     1     -33.330  16.894  -2.243  0.00  0.00    +0.211 HD
ENDBRANCH  25  26
ENDBRANCH  24  25
ENDBRANCH   6  24
BRANCH   6  28
ATOM     28  O   UNL     1     -33.392  18.059  -0.010  0.00  0.00    -0.449 OA
BRANCH  28  30
ATOM     29  O   UNL     1     -31.663  17.003  -1.117  0.00  0.00    -0.250 OA
ATOM     30  C   UNL     1     -32.101  17.613  -0.151  0.00  0.00    +0.317 C 
BRANCH  30  31
ATOM     31  C   UNL     1     -31.303  17.991   1.076  0.00  0.00    +0.110 C 
BRANCH  31  32
ATOM     32  C   UNL     1     -29.820  17.660   0.918  0.00  0.00    +0.012 C 
ATOM     33  C   UNL     1     -29.075  18.772   0.199  0.00  0.00    +0.001 C 
ENDBRANCH  31  32
ENDBRANCH  30  31
ENDBRANCH  28  30
ENDBRANCH   6  28
TORSDOF 8
ENDMDL
MODEL 7
REMARK VINA RESULT:      -5.5      2.583      7.065
REMARK  Name = 5702240
REMARK  8 active torsions:
REMARK  status: ('A' for Active; 'I' for Inactive)
REMARK    1  A    between atoms: C_6  and  C_24
REMARK    2  A    between atoms: C_6  and  O_28
REMARK    3  A    between atoms: C_9  and  O_21
REMARK    4  A    between atoms: C_24  and  C_25
REMARK    5  A    between atoms: C_25  and  O_26
REMARK    6  A    between atoms: O_28  and  C_30
REMARK    7  A    between atoms: C_30  and  C_31
REMARK    8  A    between atoms: C_31  and  C_32
REMARK                            x       y       z     vdW  Elec       q    Type
REMARK                         _______ _______ _______ _____ _____    ______ ____
ROOT
ATOM      1  O   UNL     1     -30.681  16.107   0.453  0.00  0.00    -0.291 OA
ATOM      2  C   UNL     1     -36.100  22.609   0.771  0.00  0.00    +0.043 C 
ATOM      3  C   UNL     1     -36.467  21.110   0.744  0.00  0.00    +0.004 C 
ATOM      4  C   UNL     1     -35.498  20.225  -0.079  0.00  0.00    +0.003 C 
ATOM      5  C   UNL     1     -34.007  20.434   0.303  0.00  0.00    +0.030 C 
ATOM      6  C   UNL     1     -36.980  23.128   1.945  0.00  0.00    +0.188 C 
ATOM      7  C   UNL     1     -34.587  22.798   1.092  0.00  0.00    +0.033 C 
ATOM      8  C   UNL     1     -33.019  19.470  -0.482  0.00  0.00    +0.018 C 
ATOM      9  C   UNL     1     -33.631  21.937   0.255  0.00  0.00    +0.111 C 
ATOM     10  C   UNL     1     -36.608  20.728   2.233  0.00  0.00    +0.004 C 
ATOM     11  C   UNL     1     -36.921  22.018   2.998  0.00  0.00    +0.047 C 
ATOM     12  C   UNL     1     -35.897  18.744   0.046  0.00  0.00    +0.004 C 
ATOM     13  C   UNL     1     -36.450  23.308  -0.557  0.00  0.00    +0.004 C 
ATOM     14  C   UNL     1     -33.547  18.032  -0.421  0.00  0.00    -0.042 C 
ATOM     15  C   UNL     1     -34.999  17.841  -0.783  0.00  0.00    +0.022 C 
ATOM     16  C   UNL     1     -31.624  19.553   0.207  0.00  0.00    +0.012 C 
ATOM     17  C   UNL     1     -32.857  19.829  -1.977  0.00  0.00    +0.004 C 
ATOM     18  C   UNL     1     -30.688  18.417  -0.173  0.00  0.00    +0.069 C 
ATOM     19  C   UNL     1     -32.795  16.964  -0.107  0.00  0.00    +0.029 C 
ATOM     20  C   UNL     1     -31.337  17.089   0.115  0.00  0.00    +0.173 C 
ENDROOT
BRANCH   9  21
ATOM     21  O   UNL     1     -33.603  22.425  -1.078  0.00  0.00    -0.384 OA
ATOM     22  H   UNL     1     -33.388  21.699  -1.685  0.00  0.00    +0.210 HD
ENDBRANCH   9  21
BRANCH   6  24
ATOM     23  O   UNL     1     -38.731  24.381   0.910  0.00  0.00    -0.290 OA
ATOM     24  C   UNL     1     -38.415  23.390   1.567  0.00  0.00    +0.216 C 
BRANCH  24  25
ATOM     25  C   UNL     1     -39.431  22.373   2.039  0.00  0.00    +0.206 C 
BRANCH  25  26
ATOM     26  O   UNL     1     -40.378  22.106   1.027  0.00  0.00    -0.375 OA
ATOM     27  H   UNL     1     -41.252  22.415   1.313  0.00  0.00    +0.211 HD
ENDBRANCH  25  26
ENDBRANCH  24  25
ENDBRANCH   6  24
BRANCH   6  28
ATOM     28  O   UNL     1     -36.505  24.359   2.461  0.00  0.00    -0.449 OA
BRANCH  28  30
ATOM     29  O   UNL     1     -37.507  24.745   4.505  0.00  0.00    -0.250 OA
ATOM     30  C   UNL     1     -36.521  24.484   3.828  0.00  0.00    +0.317 C 
BRANCH  30  31
ATOM     31  C   UNL     1     -35.128  24.254   4.369  0.00  0.00    +0.110 C 
BRANCH  31  32
ATOM     32  C   UNL     1     -35.147  23.858   5.844  0.00  0.00    +0.012 C 
ATOM     33  C   UNL     1     -35.225  22.349   6.014  0.00  0.00    +0.001 C 
ENDBRANCH  31  32
ENDBRANCH  30  31
ENDBRANCH  28  30
ENDBRANCH   6  28
TORSDOF 8
ENDMDL
MODEL 8
REMARK VINA RESULT:      -5.5      2.678      7.004
REMARK  Name = 5702240
REMARK  8 active torsions:
REMARK  status: ('A' for Active; 'I' for Inactive)
REMARK    1  A    between atoms: C_6  and  C_24
REMARK    2  A    between atoms: C_6  and  O_28
REMARK    3  A    between atoms: C_9  and  O_21
REMARK    4  A    between atoms: C_24  and  C_25
REMARK    5  A    between atoms: C_25  and  O_26
REMARK    6  A    between atoms: O_28  and  C_30
REMARK    7  A    between atoms: C_30  and  C_31
REMARK    8  A    between atoms: C_31  and  C_32
REMARK                            x       y       z     vdW  Elec       q    Type
REMARK                         _______ _______ _______ _____ _____    ______ ____
ROOT
ATOM      1  O   UNL     1     -32.006  19.157  -4.246  0.00  0.00    -0.291 OA
ATOM      2  C   UNL     1     -36.133  22.351   2.425  0.00  0.00    +0.043 C 
ATOM      3  C   UNL     1     -35.196  23.122   1.471  0.00  0.00    +0.004 C 
ATOM      4  C   UNL     1     -34.018  22.287   0.911  0.00  0.00    +0.003 C 
ATOM      5  C   UNL     1     -34.470  20.936   0.289  0.00  0.00    +0.030 C 
ATOM      6  C   UNL     1     -37.369  23.296   2.485  0.00  0.00    +0.188 C 
ATOM      7  C   UNL     1     -36.525  20.972   1.814  0.00  0.00    +0.033 C 
ATOM      8  C   UNL     1     -33.275  20.115  -0.357  0.00  0.00    +0.018 C 
ATOM      9  C   UNL     1     -35.350  20.138   1.285  0.00  0.00    +0.111 C 
ATOM     10  C   UNL     1     -36.145  23.721   0.411  0.00  0.00    +0.004 C 
ATOM     11  C   UNL     1     -37.532  23.818   1.055  0.00  0.00    +0.047 C 
ATOM     12  C   UNL     1     -33.213  23.118  -0.101  0.00  0.00    +0.004 C 
ATOM     13  C   UNL     1     -35.499  22.153   3.815  0.00  0.00    +0.004 C 
ATOM     14  C   UNL     1     -32.442  21.038  -1.254  0.00  0.00    -0.042 C 
ATOM     15  C   UNL     1     -32.018  22.352  -0.645  0.00  0.00    +0.022 C 
ATOM     16  C   UNL     1     -33.892  18.964  -1.207  0.00  0.00    +0.012 C 
ATOM     17  C   UNL     1     -32.307  19.502   0.682  0.00  0.00    +0.004 C 
ATOM     18  C   UNL     1     -32.913  18.338  -2.188  0.00  0.00    +0.069 C 
ATOM     19  C   UNL     1     -32.053  20.730  -2.503  0.00  0.00    +0.029 C 
ATOM     20  C   UNL     1     -32.326  19.396  -3.084  0.00  0.00    +0.173 C 
ENDROOT
BRANCH   9  21
ATOM     21  O   UNL     1     -34.588  19.650   2.379  0.00  0.00    -0.384 OA
ATOM     22  H   UNL     1     -34.962  19.985   3.209  0.00  0.00    +0.210 HD
ENDBRANCH   9  21
BRANCH   6  24
ATOM     23  O   UNL     1     -36.923  24.281   4.616  0.00  0.00    -0.290 OA
ATOM     24  C   UNL     1     -37.208  24.458   3.432  0.00  0.00    +0.216 C 
BRANCH  24  25
ATOM     25  C   UNL     1     -37.415  25.837   2.844  0.00  0.00    +0.206 C 
BRANCH  25  26
ATOM     26  O   UNL     1     -38.626  26.398   3.303  0.00  0.00    -0.375 OA
ATOM     27  H   UNL     1     -38.436  27.184   3.838  0.00  0.00    +0.211 HD
ENDBRANCH  25  26
ENDBRANCH  24  25
ENDBRANCH   6  24
BRANCH   6  28
ATOM     28  O   UNL     1     -38.533  22.620   2.927  0.00  0.00    -0.449 OA
BRANCH  28  30
ATOM     29  O   UNL     1     -40.263  23.928   2.134  0.00  0.00    -0.250 OA
ATOM     30  C   UNL     1     -39.676  22.856   2.204  0.00  0.00    +0.317 C 
BRANCH  30  31
ATOM     31  C   UNL     1     -40.101  21.582   1.508  0.00  0.00    +0.110 C 
BRANCH  31  32
ATOM     32  C   UNL     1     -40.296  21.789   0.007  0.00  0.00    +0.012 C 
ATOM     33  C   UNL     1     -39.230  21.063  -0.797  0.00  0.00    +0.001 C 
ENDBRANCH  31  32
ENDBRANCH  30  31
ENDBRANCH  28  30
ENDBRANCH   6  28
TORSDOF 8
ENDMDL
MODEL 9
REMARK VINA RESULT:      -5.4     12.243     15.354
REMARK  Name = 5702240
REMARK  8 active torsions:
REMARK  status: ('A' for Active; 'I' for Inactive)
REMARK    1  A    between atoms: C_6  and  C_24
REMARK    2  A    between atoms: C_6  and  O_28
REMARK    3  A    between atoms: C_9  and  O_21
REMARK    4  A    between atoms: C_24  and  C_25
REMARK    5  A    between atoms: C_25  and  O_26
REMARK    6  A    between atoms: O_28  and  C_30
REMARK    7  A    between atoms: C_30  and  C_31
REMARK    8  A    between atoms: C_31  and  C_32
REMARK                            x       y       z     vdW  Elec       q    Type
REMARK                         _______ _______ _______ _____ _____    ______ ____
ROOT
ATOM      1  O   UNL     1     -32.209  42.098   5.480  0.00  0.00    -0.291 OA
ATOM      2  C   UNL     1     -34.838  36.648  -0.446  0.00  0.00    +0.043 C 
ATOM      3  C   UNL     1     -33.593  36.495   0.453  0.00  0.00    +0.004 C 
ATOM      4  C   UNL     1     -32.894  37.828   0.818  0.00  0.00    +0.003 C 
ATOM      5  C   UNL     1     -33.871  38.894   1.385  0.00  0.00    +0.030 C 
ATOM      6  C   UNL     1     -35.506  35.250  -0.300  0.00  0.00    +0.188 C 
ATOM      7  C   UNL     1     -35.776  37.765   0.101  0.00  0.00    +0.033 C 
ATOM      8  C   UNL     1     -33.146  40.233   1.835  0.00  0.00    +0.018 C 
ATOM      9  C   UNL     1     -35.081  39.092   0.436  0.00  0.00    +0.111 C 
ATOM     10  C   UNL     1     -34.093  35.661   1.652  0.00  0.00    +0.004 C 
ATOM     11  C   UNL     1     -35.320  34.879   1.173  0.00  0.00    +0.047 C 
ATOM     12  C   UNL     1     -31.734  37.568   1.795  0.00  0.00    +0.004 C 
ATOM     13  C   UNL     1     -34.455  36.949  -1.908  0.00  0.00    +0.004 C 
ATOM     14  C   UNL     1     -31.928  39.891   2.700  0.00  0.00    -0.042 C 
ATOM     15  C   UNL     1     -30.990  38.846   2.147  0.00  0.00    +0.022 C 
ATOM     16  C   UNL     1     -34.164  41.074   2.660  0.00  0.00    +0.012 C 
ATOM     17  C   UNL     1     -32.634  41.090   0.654  0.00  0.00    +0.004 C 
ATOM     18  C   UNL     1     -33.519  42.181   3.479  0.00  0.00    +0.069 C 
ATOM     19  C   UNL     1     -31.643  40.483   3.873  0.00  0.00    +0.029 C 
ATOM     20  C   UNL     1     -32.457  41.609   4.381  0.00  0.00    +0.173 C 
ENDROOT
BRANCH   9  21
ATOM     21  O   UNL     1     -34.699  39.741  -0.768  0.00  0.00    -0.384 OA
ATOM     22  H   UNL     1     -35.489  40.077  -1.220  0.00  0.00    +0.210 HD
ENDBRANCH   9  21
BRANCH   6  24
ATOM     23  O   UNL     1     -33.808  33.675  -0.891  0.00  0.00    -0.290 OA
ATOM     24  C   UNL     1     -34.893  34.183  -1.172  0.00  0.00    +0.216 C 
BRANCH  24  25
ATOM     25  C   UNL     1     -35.683  33.781  -2.398  0.00  0.00    +0.206 C 
BRANCH  25  26
ATOM     26  O   UNL     1     -36.526  32.686  -2.111  0.00  0.00    -0.375 OA
ATOM     27  H   UNL     1     -37.191  32.952  -1.457  0.00  0.00    +0.211 HD
ENDBRANCH  25  26
ENDBRANCH  24  25
ENDBRANCH   6  24
BRANCH   6  28
ATOM     28  O   UNL     1     -36.876  35.276  -0.661  0.00  0.00    -0.449 OA
BRANCH  28  30
ATOM     29  O   UNL     1     -37.972  33.609   0.501  0.00  0.00    -0.250 OA
ATOM     30  C   UNL     1     -37.754  34.792   0.278  0.00  0.00    +0.317 C 
BRANCH  30  31
ATOM     31  C   UNL     1     -38.413  35.951   0.991  0.00  0.00    +0.110 C 
BRANCH  31  32
ATOM     32  C   UNL     1     -38.771  35.603   2.435  0.00  0.00    +0.012 C 
ATOM     33  C   UNL     1     -40.272  35.653   2.664  0.00  0.00    +0.001 C 
ENDBRANCH  31  32
ENDBRANCH  30  31
ENDBRANCH  28  30
ENDBRANCH   6  28
TORSDOF 8
ENDMDL
