MODEL 1
REMARK VINA RESULT:      -6.4      0.000      0.000
REMARK  Name = 20291895
REMARK  4 active torsions:
REMARK  status: ('A' for Active; 'I' for Inactive)
REMARK    1  A    between atoms: C_4  and  S_16
REMARK    2  A    between atoms: C_14  and  C_23
REMARK    3  A    between atoms: S_16  and  N_19
REMARK    4  A    between atoms: C_23  and  O_24
REMARK                            x       y       z     vdW  Elec       q    Type
REMARK                         _______ _______ _______ _____ _____    ______ ____
ROOT
ATOM      1  O   UNL     1     -40.502  23.174   0.957  0.00  0.00    -0.453 OA
ATOM      2  O   UNL     1     -38.315  24.957   3.919  0.00  0.00    -0.286 OA
ATOM      3  C   UNL     1     -40.228  25.006   2.548  0.00  0.00    +0.075 A 
ATOM      4  C   UNL     1     -41.919  26.726   2.607  0.00  0.00    +0.122 C 
ATOM      5  C   UNL     1     -40.923  24.346   1.535  0.00  0.00    +0.148 A 
ATOM      6  C   UNL     1     -40.721  26.197   3.088  0.00  0.00    +0.026 C 
ATOM      7  C   UNL     1     -38.535  23.169   2.403  0.00  0.00    +0.074 A 
ATOM      8  C   UNL     1     -38.969  24.424   3.035  0.00  0.00    +0.201 A 
ATOM      9  C   UNL     1     -39.328  22.615   1.399  0.00  0.00    +0.148 A 
ATOM     10  C   UNL     1     -42.618  26.070   1.593  0.00  0.00    +0.023 C 
ATOM     11  C   UNL     1     -42.122  24.881   1.057  0.00  0.00    +0.039 C 
ATOM     12  C   UNL     1     -37.351  22.541   2.800  0.00  0.00    +0.013 C 
ATOM     13  C   UNL     1     -38.935  21.424   0.785  0.00  0.00    +0.038 C 
ATOM     14  C   UNL     1     -36.964  21.351   2.183  0.00  0.00    +0.076 C 
ATOM     15  C   UNL     1     -37.755  20.794   1.178  0.00  0.00    +0.010 C 
ENDROOT
BRANCH   4  16
ATOM     16  S   UNL     1     -42.545  28.214   3.275  0.00  0.00    +0.063 S 
ATOM     17  O   UNL     1     -41.909  28.435   4.569  0.00  0.00    -0.153 OA
ATOM     18  O   UNL     1     -42.431  29.252   2.257  0.00  0.00    -0.153 OA
BRANCH  16  19
ATOM     19  N   UNL     1     -44.220  27.865   3.531  0.00  0.00    -0.153 NA
ATOM     20  C   UNL     1     -44.574  27.000   4.685  0.00  0.00    +0.115 C 
ATOM     21  C   UNL     1     -45.187  28.978   3.354  0.00  0.00    +0.115 C 
ENDBRANCH  16  19
ENDBRANCH   4  16
BRANCH  14  23
ATOM     22  O   UNL     1     -34.932  20.140   1.826  0.00  0.00    -0.245 OA
ATOM     23  C   UNL     1     -35.733  20.690   2.588  0.00  0.00    +0.338 C 
BRANCH  23  24
ATOM     24  O   UNL     1     -35.536  20.734   3.934  0.00  0.00    -0.477 OA
ATOM     25  H   UNL     1     -36.257  20.596   4.517  0.00  0.00    +0.295 HD
ENDBRANCH  23  24
ENDBRANCH  14  23
TORSDOF 4
ENDMDL
MODEL 2
REMARK VINA RESULT:      -6.2      7.488      9.016
REMARK  Name = 20291895
REMARK  4 active torsions:
REMARK  status: ('A' for Active; 'I' for Inactive)
REMARK    1  A    between atoms: C_4  and  S_16
REMARK    2  A    between atoms: C_14  and  C_23
REMARK    3  A    between atoms: S_16  and  N_19
REMARK    4  A    between atoms: C_23  and  O_24
REMARK                            x       y       z     vdW  Elec       q    Type
REMARK                         _______ _______ _______ _____ _____    ______ ____
ROOT
ATOM      1  O   UNL     1     -33.897  26.004   2.281  0.00  0.00    -0.453 OA
ATOM      2  O   UNL     1     -33.337  26.552   6.297  0.00  0.00    -0.286 OA
ATOM      3  C   UNL     1     -33.113  27.412   4.117  0.00  0.00    +0.075 A 
ATOM      4  C   UNL     1     -32.170  29.566   3.578  0.00  0.00    +0.122 C 
ATOM      5  C   UNL     1     -33.331  27.160   2.762  0.00  0.00    +0.148 A 
ATOM      6  C   UNL     1     -32.532  28.614   4.530  0.00  0.00    +0.026 C 
ATOM      7  C   UNL     1     -34.108  25.159   4.562  0.00  0.00    +0.074 A 
ATOM      8  C   UNL     1     -33.505  26.389   5.098  0.00  0.00    +0.201 A 
ATOM      9  C   UNL     1     -34.270  25.038   3.182  0.00  0.00    +0.148 A 
ATOM     10  C   UNL     1     -32.386  29.319   2.222  0.00  0.00    +0.023 C 
ATOM     11  C   UNL     1     -32.967  28.117   1.813  0.00  0.00    +0.039 C 
ATOM     12  C   UNL     1     -34.514  24.131   5.417  0.00  0.00    +0.013 C 
ATOM     13  C   UNL     1     -34.840  23.878   2.652  0.00  0.00    +0.038 C 
ATOM     14  C   UNL     1     -35.083  22.975   4.881  0.00  0.00    +0.076 C 
ATOM     15  C   UNL     1     -35.246  22.850   3.502  0.00  0.00    +0.010 C 
ENDROOT
BRANCH   4  16
ATOM     16  S   UNL     1     -31.444  31.073   4.083  0.00  0.00    +0.063 S 
ATOM     17  O   UNL     1     -32.023  32.147   3.284  0.00  0.00    -0.153 OA
ATOM     18  O   UNL     1     -31.539  31.157   5.536  0.00  0.00    -0.153 OA
BRANCH  16  19
ATOM     19  N   UNL     1     -29.782  30.885   3.643  0.00  0.00    -0.153 NA
ATOM     20  C   UNL     1     -29.231  31.816   2.627  0.00  0.00    +0.115 C 
ATOM     21  C   UNL     1     -28.810  30.614   4.733  0.00  0.00    +0.115 C 
ENDBRANCH  16  19
ENDBRANCH   4  16
BRANCH  14  23
ATOM     22  O   UNL     1     -36.134  22.041   6.817  0.00  0.00    -0.245 OA
ATOM     23  C   UNL     1     -35.507  21.899   5.763  0.00  0.00    +0.338 C 
BRANCH  23  24
ATOM     24  O   UNL     1     -35.136  20.672   5.303  0.00  0.00    -0.477 OA
ATOM     25  H   UNL     1     -34.793  20.582   4.436  0.00  0.00    +0.295 HD
ENDBRANCH  23  24
ENDBRANCH  14  23
TORSDOF 4
ENDMDL
MODEL 3
REMARK VINA RESULT:      -6.1      6.280      8.689
REMARK  Name = 20291895
REMARK  4 active torsions:
REMARK  status: ('A' for Active; 'I' for Inactive)
REMARK    1  A    between atoms: C_4  and  S_16
REMARK    2  A    between atoms: C_14  and  C_23
REMARK    3  A    between atoms: S_16  and  N_19
REMARK    4  A    between atoms: C_23  and  O_24
REMARK                            x       y       z     vdW  Elec       q    Type
REMARK                         _______ _______ _______ _____ _____    ______ ____
ROOT
ATOM      1  O   UNL     1     -33.833  25.529   6.145  0.00  0.00    -0.453 OA
ATOM      2  O   UNL     1     -33.861  26.848   2.272  0.00  0.00    -0.286 OA
ATOM      3  C   UNL     1     -34.511  25.199   3.823  0.00  0.00    +0.075 A 
ATOM      4  C   UNL     1     -35.787  23.225   3.278  0.00  0.00    +0.122 C 
ATOM      5  C   UNL     1     -34.462  24.808   5.161  0.00  0.00    +0.148 A 
ATOM      6  C   UNL     1     -35.172  24.411   2.877  0.00  0.00    +0.026 C 
ATOM      7  C   UNL     1     -33.186  27.211   4.499  0.00  0.00    +0.074 A 
ATOM      8  C   UNL     1     -33.853  26.454   3.429  0.00  0.00    +0.201 A 
ATOM      9  C   UNL     1     -33.214  26.704   5.797  0.00  0.00    +0.148 A 
ATOM     10  C   UNL     1     -35.740  22.829   4.615  0.00  0.00    +0.023 C 
ATOM     11  C   UNL     1     -35.080  23.619   5.556  0.00  0.00    +0.039 C 
ATOM     12  C   UNL     1     -32.534  28.416   4.222  0.00  0.00    +0.013 C 
ATOM     13  C   UNL     1     -32.585  27.407   6.828  0.00  0.00    +0.038 C 
ATOM     14  C   UNL     1     -31.909  29.114   5.255  0.00  0.00    +0.076 C 
ATOM     15  C   UNL     1     -31.935  28.610   6.556  0.00  0.00    +0.010 C 
ENDROOT
BRANCH   4  16
ATOM     16  S   UNL     1     -36.617  22.233   2.104  0.00  0.00    +0.063 S 
ATOM     17  O   UNL     1     -36.373  22.795   0.780  0.00  0.00    -0.153 OA
ATOM     18  O   UNL     1     -36.253  20.841   2.347  0.00  0.00    -0.153 OA
BRANCH  16  19
ATOM     19  N   UNL     1     -38.286  22.451   2.502  0.00  0.00    -0.153 NA
ATOM     20  C   UNL     1     -38.791  23.844   2.603  0.00  0.00    +0.115 C 
ATOM     21  C   UNL     1     -39.270  21.549   1.852  0.00  0.00    +0.115 C 
ENDBRANCH  16  19
ENDBRANCH   4  16
BRANCH  14  23
ATOM     22  O   UNL     1     -31.668  31.281   4.271  0.00  0.00    -0.245 OA
ATOM     23  C   UNL     1     -31.227  30.368   4.977  0.00  0.00    +0.338 C 
BRANCH  23  24
ATOM     24  O   UNL     1     -30.015  30.450   5.589  0.00  0.00    -0.477 OA
ATOM     25  H   UNL     1     -29.402  31.108   5.328  0.00  0.00    +0.295 HD
ENDBRANCH  23  24
ENDBRANCH  14  23
TORSDOF 4
ENDMDL
MODEL 4
REMARK VINA RESULT:      -6.0      6.792      8.651
REMARK  Name = 20291895
REMARK  4 active torsions:
REMARK  status: ('A' for Active; 'I' for Inactive)
REMARK    1  A    between atoms: C_4  and  S_16
REMARK    2  A    between atoms: C_14  and  C_23
REMARK    3  A    between atoms: S_16  and  N_19
REMARK    4  A    between atoms: C_23  and  O_24
REMARK                            x       y       z     vdW  Elec       q    Type
REMARK                         _______ _______ _______ _____ _____    ______ ____
ROOT
ATOM      1  O   UNL     1     -34.280  24.730   5.818  0.00  0.00    -0.453 OA
ATOM      2  O   UNL     1     -33.875  25.577   1.835  0.00  0.00    -0.286 OA
ATOM      3  C   UNL     1     -33.496  26.237   4.064  0.00  0.00    +0.075 A 
ATOM      4  C   UNL     1     -32.399  28.282   4.725  0.00  0.00    +0.122 C 
ATOM      5  C   UNL     1     -33.668  25.887   5.403  0.00  0.00    +0.148 A 
ATOM      6  C   UNL     1     -32.863  27.434   3.719  0.00  0.00    +0.026 C 
ATOM      7  C   UNL     1     -34.646  24.090   3.490  0.00  0.00    +0.074 A 
ATOM      8  C   UNL     1     -33.995  25.323   3.025  0.00  0.00    +0.201 A 
ATOM      9  C   UNL     1     -34.751  23.864   4.863  0.00  0.00    +0.148 A 
ATOM     10  C   UNL     1     -32.569  27.936   6.066  0.00  0.00    +0.023 C 
ATOM     11  C   UNL     1     -33.202  26.740   6.406  0.00  0.00    +0.039 C 
ATOM     12  C   UNL     1     -35.152  23.160   2.577  0.00  0.00    +0.013 C 
ATOM     13  C   UNL     1     -35.367  22.699   5.326  0.00  0.00    +0.038 C 
ATOM     14  C   UNL     1     -35.765  21.998   3.047  0.00  0.00    +0.076 C 
ATOM     15  C   UNL     1     -35.872  21.768   4.418  0.00  0.00    +0.010 C 
ENDROOT
BRANCH   4  16
ATOM     16  S   UNL     1     -31.605  29.780   4.305  0.00  0.00    +0.063 S 
ATOM     17  O   UNL     1     -31.750  29.985   2.868  0.00  0.00    -0.153 OA
ATOM     18  O   UNL     1     -32.088  30.819   5.208  0.00  0.00    -0.153 OA
BRANCH  16  19
ATOM     19  N   UNL     1     -29.941  29.464   4.657  0.00  0.00    -0.153 NA
ATOM     20  C   UNL     1     -29.466  29.743   6.036  0.00  0.00    +0.115 C 
ATOM     21  C   UNL     1     -29.348  28.219   4.107  0.00  0.00    +0.115 C 
ENDBRANCH  16  19
ENDBRANCH   4  16
BRANCH  14  23
ATOM     22  O   UNL     1     -36.419  21.200   0.888  0.00  0.00    -0.245 OA
ATOM     23  C   UNL     1     -36.295  21.025   2.105  0.00  0.00    +0.338 C 
BRANCH  23  24
ATOM     24  O   UNL     1     -36.654  19.859   2.707  0.00  0.00    -0.477 OA
ATOM     25  H   UNL     1     -36.191  19.068   2.510  0.00  0.00    +0.295 HD
ENDBRANCH  23  24
ENDBRANCH  14  23
TORSDOF 4
ENDMDL
MODEL 5
REMARK VINA RESULT:      -6.0      6.560      7.562
REMARK  Name = 20291895
REMARK  4 active torsions:
REMARK  status: ('A' for Active; 'I' for Inactive)
REMARK    1  A    between atoms: C_4  and  S_16
REMARK    2  A    between atoms: C_14  and  C_23
REMARK    3  A    between atoms: S_16  and  N_19
REMARK    4  A    between atoms: C_23  and  O_24
REMARK                            x       y       z     vdW  Elec       q    Type
REMARK                         _______ _______ _______ _____ _____    ______ ____
ROOT
ATOM      1  O   UNL     1     -34.482  25.411   1.677  0.00  0.00    -0.453 OA
ATOM      2  O   UNL     1     -33.935  26.719   5.516  0.00  0.00    -0.286 OA
ATOM      3  C   UNL     1     -33.850  27.202   3.213  0.00  0.00    +0.075 A 
ATOM      4  C   UNL     1     -33.185  29.324   2.276  0.00  0.00    +0.122 C 
ATOM      5  C   UNL     1     -34.055  26.691   1.931  0.00  0.00    +0.148 A 
ATOM      6  C   UNL     1     -33.414  28.518   3.391  0.00  0.00    +0.026 C 
ATOM      7  C   UNL     1     -34.555  24.961   4.076  0.00  0.00    +0.074 A 
ATOM      8  C   UNL     1     -34.099  26.328   4.369  0.00  0.00    +0.201 A 
ATOM      9  C   UNL     1     -34.721  24.581   2.745  0.00  0.00    +0.148 A 
ATOM     10  C   UNL     1     -33.389  28.818   0.992  0.00  0.00    +0.023 C 
ATOM     11  C   UNL     1     -33.824  27.503   0.818  0.00  0.00    +0.039 C 
ATOM     12  C   UNL     1     -34.819  24.059   5.110  0.00  0.00    +0.013 C 
ATOM     13  C   UNL     1     -35.152  23.287   2.444  0.00  0.00    +0.038 C 
ATOM     14  C   UNL     1     -35.250  22.768   4.803  0.00  0.00    +0.076 C 
ATOM     15  C   UNL     1     -35.417  22.384   3.473  0.00  0.00    +0.010 C 
ENDROOT
BRANCH   4  16
ATOM     16  S   UNL     1     -32.642  30.971   2.487  0.00  0.00    +0.063 S 
ATOM     17  O   UNL     1     -32.452  31.207   3.915  0.00  0.00    -0.153 OA
ATOM     18  O   UNL     1     -31.516  31.196   1.588  0.00  0.00    -0.153 OA
BRANCH  16  19
ATOM     19  N   UNL     1     -33.988  31.910   1.942  0.00  0.00    -0.153 NA
ATOM     20  C   UNL     1     -35.338  31.521   2.424  0.00  0.00    +0.115 C 
ATOM     21  C   UNL     1     -33.820  33.385   1.893  0.00  0.00    +0.115 C 
ENDBRANCH  16  19
ENDBRANCH   4  16
BRANCH  14  23
ATOM     22  O   UNL     1     -36.104  22.085   6.931  0.00  0.00    -0.245 OA
ATOM     23  C   UNL     1     -35.526  21.821   5.872  0.00  0.00    +0.338 C 
BRANCH  23  24
ATOM     24  O   UNL     1     -35.074  20.569   5.588  0.00  0.00    -0.477 OA
ATOM     25  H   UNL     1     -34.503  20.432   4.859  0.00  0.00    +0.295 HD
ENDBRANCH  23  24
ENDBRANCH  14  23
TORSDOF 4
ENDMDL
MODEL 6
REMARK VINA RESULT:      -6.0      3.189      7.603
REMARK  Name = 20291895
REMARK  4 active torsions:
REMARK  status: ('A' for Active; 'I' for Inactive)
REMARK    1  A    between atoms: C_4  and  S_16
REMARK    2  A    between atoms: C_14  and  C_23
REMARK    3  A    between atoms: S_16  and  N_19
REMARK    4  A    between atoms: C_23  and  O_24
REMARK                            x       y       z     vdW  Elec       q    Type
REMARK                         _______ _______ _______ _____ _____    ______ ____
ROOT
ATOM      1  O   UNL     1     -41.122  23.506   1.306  0.00  0.00    -0.453 OA
ATOM      2  O   UNL     1     -38.946  26.497   3.057  0.00  0.00    -0.286 OA
ATOM      3  C   UNL     1     -39.074  24.234   2.420  0.00  0.00    +0.075 A 
ATOM      4  C   UNL     1     -37.337  22.601   2.790  0.00  0.00    +0.122 C 
ATOM      5  C   UNL     1     -39.869  23.262   1.812  0.00  0.00    +0.148 A 
ATOM      6  C   UNL     1     -37.807  23.908   2.911  0.00  0.00    +0.026 C 
ATOM      7  C   UNL     1     -40.939  25.845   1.985  0.00  0.00    +0.074 A 
ATOM      8  C   UNL     1     -39.596  25.604   2.533  0.00  0.00    +0.201 A 
ATOM      9  C   UNL     1     -41.626  24.780   1.402  0.00  0.00    +0.148 A 
ATOM     10  C   UNL     1     -38.129  21.625   2.184  0.00  0.00    +0.023 C 
ATOM     11  C   UNL     1     -39.393  21.954   1.694  0.00  0.00    +0.039 C 
ATOM     12  C   UNL     1     -41.519  27.115   2.046  0.00  0.00    +0.013 C 
ATOM     13  C   UNL     1     -42.903  24.986   0.876  0.00  0.00    +0.038 C 
ATOM     14  C   UNL     1     -42.795  27.315   1.518  0.00  0.00    +0.076 C 
ATOM     15  C   UNL     1     -43.485  26.252   0.934  0.00  0.00    +0.010 C 
ENDROOT
BRANCH   4  16
ATOM     16  S   UNL     1     -35.754  22.183   3.400  0.00  0.00    +0.063 S 
ATOM     17  O   UNL     1     -35.604  20.734   3.321  0.00  0.00    -0.153 OA
ATOM     18  O   UNL     1     -34.771  23.022   2.724  0.00  0.00    -0.153 OA
BRANCH  16  19
ATOM     19  N   UNL     1     -35.831  22.645   5.065  0.00  0.00    -0.153 NA
ATOM     20  C   UNL     1     -35.432  21.634   6.078  0.00  0.00    +0.115 C 
ATOM     21  C   UNL     1     -35.356  24.005   5.422  0.00  0.00    +0.115 C 
ENDBRANCH  16  19
ENDBRANCH   4  16
BRANCH  14  23
ATOM     22  O   UNL     1     -44.603  28.876   1.382  0.00  0.00    -0.245 OA
ATOM     23  C   UNL     1     -43.407  28.632   1.577  0.00  0.00    +0.338 C 
BRANCH  23  24
ATOM     24  O   UNL     1     -42.511  29.610   1.880  0.00  0.00    -0.477 OA
ATOM     25  H   UNL     1     -42.473  29.959   2.748  0.00  0.00    +0.295 HD
ENDBRANCH  23  24
ENDBRANCH  14  23
TORSDOF 4
ENDMDL
MODEL 7
REMARK VINA RESULT:      -5.9      7.399      9.653
REMARK  Name = 20291895
REMARK  4 active torsions:
REMARK  status: ('A' for Active; 'I' for Inactive)
REMARK    1  A    between atoms: C_4  and  S_16
REMARK    2  A    between atoms: C_14  and  C_23
REMARK    3  A    between atoms: S_16  and  N_19
REMARK    4  A    between atoms: C_23  and  O_24
REMARK                            x       y       z     vdW  Elec       q    Type
REMARK                         _______ _______ _______ _____ _____    ______ ____
ROOT
ATOM      1  O   UNL     1     -33.301  26.993   6.368  0.00  0.00    -0.453 OA
ATOM      2  O   UNL     1     -32.873  27.619   2.347  0.00  0.00    -0.286 OA
ATOM      3  C   UNL     1     -33.872  26.371   4.077  0.00  0.00    +0.075 A 
ATOM      4  C   UNL     1     -35.405  24.538   3.742  0.00  0.00    +0.122 C 
ATOM      5  C   UNL     1     -33.971  26.212   5.459  0.00  0.00    +0.148 A 
ATOM      6  C   UNL     1     -34.586  25.537   3.213  0.00  0.00    +0.026 C 
ATOM      7  C   UNL     1     -32.293  28.257   4.539  0.00  0.00    +0.074 A 
ATOM      8  C   UNL     1     -33.002  27.433   3.548  0.00  0.00    +0.201 A 
ATOM      9  C   UNL     1     -32.484  27.990   5.894  0.00  0.00    +0.148 A 
ATOM     10  C   UNL     1     -35.507  24.375   5.124  0.00  0.00    +0.023 C 
ATOM     11  C   UNL     1     -34.792  25.211   5.982  0.00  0.00    +0.039 C 
ATOM     12  C   UNL     1     -31.444  29.290   4.132  0.00  0.00    +0.013 C 
ATOM     13  C   UNL     1     -31.821  28.760   6.851  0.00  0.00    +0.038 C 
ATOM     14  C   UNL     1     -30.784  30.057   5.093  0.00  0.00    +0.076 C 
ATOM     15  C   UNL     1     -30.973  29.792   6.450  0.00  0.00    +0.010 C 
ENDROOT
BRANCH   4  16
ATOM     16  S   UNL     1     -36.303  23.490   2.672  0.00  0.00    +0.063 S 
ATOM     17  O   UNL     1     -37.394  22.890   3.433  0.00  0.00    -0.153 OA
ATOM     18  O   UNL     1     -36.627  24.242   1.465  0.00  0.00    -0.153 OA
BRANCH  16  19
ATOM     19  N   UNL     1     -35.161  22.254   2.269  0.00  0.00    -0.153 NA
ATOM     20  C   UNL     1     -35.505  20.856   2.633  0.00  0.00    +0.115 C 
ATOM     21  C   UNL     1     -34.503  22.336   0.941  0.00  0.00    +0.115 C 
ENDBRANCH  16  19
ENDBRANCH   4  16
BRANCH  14  23
ATOM     22  O   UNL     1     -30.184  32.029   3.879  0.00  0.00    -0.245 OA
ATOM     23  C   UNL     1     -29.898  31.133   4.681  0.00  0.00    +0.338 C 
BRANCH  23  24
ATOM     24  O   UNL     1     -28.678  31.063   5.281  0.00  0.00    -0.477 OA
ATOM     25  H   UNL     1     -28.176  31.843   5.412  0.00  0.00    +0.295 HD
ENDBRANCH  23  24
ENDBRANCH  14  23
TORSDOF 4
ENDMDL
MODEL 8
REMARK VINA RESULT:      -5.8      6.330      9.069
REMARK  Name = 20291895
REMARK  4 active torsions:
REMARK  status: ('A' for Active; 'I' for Inactive)
REMARK    1  A    between atoms: C_4  and  S_16
REMARK    2  A    between atoms: C_14  and  C_23
REMARK    3  A    between atoms: S_16  and  N_19
REMARK    4  A    between atoms: C_23  and  O_24
REMARK                            x       y       z     vdW  Elec       q    Type
REMARK                         _______ _______ _______ _____ _____    ______ ____
ROOT
ATOM      1  O   UNL     1     -33.849  25.371   6.112  0.00  0.00    -0.453 OA
ATOM      2  O   UNL     1     -33.877  26.369   2.144  0.00  0.00    -0.286 OA
ATOM      3  C   UNL     1     -34.476  24.823   3.816  0.00  0.00    +0.075 A 
ATOM      4  C   UNL     1     -35.655  22.755   3.419  0.00  0.00    +0.122 C 
ATOM      5  C   UNL     1     -34.430  24.544   5.182  0.00  0.00    +0.148 A 
ATOM      6  C   UNL     1     -35.087  23.932   2.930  0.00  0.00    +0.026 C 
ATOM      7  C   UNL     1     -33.253  26.942   4.341  0.00  0.00    +0.074 A 
ATOM      8  C   UNL     1     -33.870  26.071   3.329  0.00  0.00    +0.201 A 
ATOM      9  C   UNL     1     -33.278  26.541   5.676  0.00  0.00    +0.148 A 
ATOM     10  C   UNL     1     -35.611  22.472   4.784  0.00  0.00    +0.023 C 
ATOM     11  C   UNL     1     -35.000  23.365   5.666  0.00  0.00    +0.039 C 
ATOM     12  C   UNL     1     -32.652  28.149   3.974  0.00  0.00    +0.013 C 
ATOM     13  C   UNL     1     -32.697  27.352   6.653  0.00  0.00    +0.038 C 
ATOM     14  C   UNL     1     -32.073  28.956   4.955  0.00  0.00    +0.076 C 
ATOM     15  C   UNL     1     -32.097  28.558   6.292  0.00  0.00    +0.010 C 
ENDROOT
BRANCH   4  16
ATOM     16  S   UNL     1     -36.421  21.635   2.320  0.00  0.00    +0.063 S 
ATOM     17  O   UNL     1     -36.017  20.283   2.693  0.00  0.00    -0.153 OA
ATOM     18  O   UNL     1     -37.845  21.947   2.273  0.00  0.00    -0.153 OA
BRANCH  16  19
ATOM     19  N   UNL     1     -35.714  22.025   0.791  0.00  0.00    -0.153 NA
ATOM     20  C   UNL     1     -34.553  21.214   0.344  0.00  0.00    +0.115 C 
ATOM     21  C   UNL     1     -36.634  22.340  -0.330  0.00  0.00    +0.115 C 
ENDBRANCH  16  19
ENDBRANCH   4  16
BRANCH  14  23
ATOM     22  O   UNL     1     -30.397  30.660   5.063  0.00  0.00    -0.245 OA
ATOM     23  C   UNL     1     -31.445  30.214   4.583  0.00  0.00    +0.338 C 
BRANCH  23  24
ATOM     24  O   UNL     1     -32.141  30.880   3.622  0.00  0.00    -0.477 OA
ATOM     25  H   UNL     1     -32.278  31.804   3.700  0.00  0.00    +0.295 HD
ENDBRANCH  23  24
ENDBRANCH  14  23
TORSDOF 4
ENDMDL
MODEL 9
REMARK VINA RESULT:      -5.7      5.325      8.665
REMARK  Name = 20291895
REMARK  4 active torsions:
REMARK  status: ('A' for Active; 'I' for Inactive)
REMARK    1  A    between atoms: C_4  and  S_16
REMARK    2  A    between atoms: C_14  and  C_23
REMARK    3  A    between atoms: S_16  and  N_19
REMARK    4  A    between atoms: C_23  and  O_24
REMARK                            x       y       z     vdW  Elec       q    Type
REMARK                         _______ _______ _______ _____ _____    ______ ____
ROOT
ATOM      1  O   UNL     1     -38.772  22.317   1.309  0.00  0.00    -0.453 OA
ATOM      2  O   UNL     1     -35.247  20.765   2.691  0.00  0.00    -0.286 OA
ATOM      3  C   UNL     1     -37.108  20.530   1.268  0.00  0.00    +0.075 A 
ATOM      4  C   UNL     1     -37.480  18.661  -0.213  0.00  0.00    +0.122 C 
ATOM      5  C   UNL     1     -38.300  21.115   0.841  0.00  0.00    +0.148 A 
ATOM      6  C   UNL     1     -36.693  19.303   0.744  0.00  0.00    +0.026 C 
ATOM      7  C   UNL     1     -36.822  22.515   2.765  0.00  0.00    +0.074 A 
ATOM      8  C   UNL     1     -36.299  21.230   2.277  0.00  0.00    +0.201 A 
ATOM      9  C   UNL     1     -38.030  22.985   2.251  0.00  0.00    +0.148 A 
ATOM     10  C   UNL     1     -38.674  19.242  -0.642  0.00  0.00    +0.023 C 
ATOM     11  C   UNL     1     -39.084  20.468  -0.117  0.00  0.00    +0.039 C 
ATOM     12  C   UNL     1     -36.123  23.253   3.724  0.00  0.00    +0.013 C 
ATOM     13  C   UNL     1     -38.545  24.203   2.701  0.00  0.00    +0.038 C 
ATOM     14  C   UNL     1     -36.642  24.469   4.169  0.00  0.00    +0.076 C 
ATOM     15  C   UNL     1     -37.850  24.943   3.658  0.00  0.00    +0.010 C 
ENDROOT
BRANCH   4  16
ATOM     16  S   UNL     1     -36.970  17.127  -0.875  0.00  0.00    +0.063 S 
ATOM     17  O   UNL     1     -37.436  16.070   0.017  0.00  0.00    -0.153 OA
ATOM     18  O   UNL     1     -37.371  17.082  -2.276  0.00  0.00    -0.153 OA
BRANCH  16  19
ATOM     19  N   UNL     1     -35.245  17.207  -0.789  0.00  0.00    -0.153 NA
ATOM     20  C   UNL     1     -34.534  16.060  -0.169  0.00  0.00    +0.115 C 
ATOM     21  C   UNL     1     -34.523  17.731  -1.976  0.00  0.00    +0.115 C 
ENDBRANCH  16  19
ENDBRANCH   4  16
BRANCH  14  23
ATOM     22  O   UNL     1     -34.878  24.896   5.728  0.00  0.00    -0.245 OA
ATOM     23  C   UNL     1     -35.923  25.244   5.168  0.00  0.00    +0.338 C 
BRANCH  23  24
ATOM     24  O   UNL     1     -36.526  26.433   5.438  0.00  0.00    -0.477 OA
ATOM     25  H   UNL     1     -36.031  27.135   5.812  0.00  0.00    +0.295 HD
ENDBRANCH  23  24
ENDBRANCH  14  23
TORSDOF 4
ENDMDL
