MODEL 1
REMARK VINA RESULT:      -5.5      0.000      0.000
REMARK  Name = 54141845
REMARK  3 active torsions:
REMARK  status: ('A' for Active; 'I' for Inactive)
REMARK    1  A    between atoms: C_6  and  S_13
REMARK    2  A    between atoms: C_8  and  C_12
REMARK    3  A    between atoms: S_13  and  N_16
REMARK                            x       y       z     vdW  Elec       q    Type
REMARK                         _______ _______ _______ _____ _____    ______ ____
ROOT
ATOM      1  S   UNL     1     -35.184  25.855   5.502  0.00  0.00    -0.011 S 
ATOM      2  O   UNL     1     -31.060  27.901   4.651  0.00  0.00    -0.272 OA
ATOM      3  N   UNL     1     -33.090  27.493   5.754  0.00  0.00    -0.261 N 
ATOM      4  N   UNL     1     -34.010  24.860   3.453  0.00  0.00    -0.119 NA
ATOM      5  N   UNL     1     -33.164  25.846   3.926  0.00  0.00    -0.124 NA
ATOM      6  C   UNL     1     -35.100  24.761   4.185  0.00  0.00    +0.256 A 
ATOM      7  C   UNL     1     -33.655  26.443   4.991  0.00  0.00    +0.189 A 
ATOM      8  C   UNL     1     -31.873  28.133   5.544  0.00  0.00    +0.258 C 
ATOM      9  H   UNL     1     -33.620  27.807   6.523  0.00  0.00    +0.157 HD
ENDROOT
BRANCH   8  12
ATOM     10 CL   UNL     1     -29.882  29.246   6.922  0.00  0.00    -0.087 Cl
ATOM     11 CL   UNL     1     -32.172  30.755   5.912  0.00  0.00    -0.087 Cl
ATOM     12  C   UNL     1     -31.620  29.209   6.579  0.00  0.00    +0.234 C 
ENDBRANCH   8  12
BRANCH   6  13
ATOM     13  S   UNL     1     -36.411  23.653   3.932  0.00  0.00    +0.081 S 
ATOM     14  O   UNL     1     -37.672  24.362   4.127  0.00  0.00    -0.151 OA
ATOM     15  O   UNL     1     -36.185  22.929   2.685  0.00  0.00    -0.151 OA
BRANCH  13  16
ATOM     16  N   UNL     1     -36.191  22.566   5.235  0.00  0.00    -0.202 NA
ATOM     17  H   UNL     1     -36.359  23.053   6.116  0.00  0.00    +0.144 HD
ATOM     18  H   UNL     1     -35.237  22.208   5.221  0.00  0.00    +0.144 HD
ENDBRANCH  13  16
ENDBRANCH   6  13
TORSDOF 3
ENDMDL
MODEL 2
REMARK VINA RESULT:      -5.3      1.756      1.989
REMARK  Name = 54141845
REMARK  3 active torsions:
REMARK  status: ('A' for Active; 'I' for Inactive)
REMARK    1  A    between atoms: C_6  and  S_13
REMARK    2  A    between atoms: C_8  and  C_12
REMARK    3  A    between atoms: S_13  and  N_16
REMARK                            x       y       z     vdW  Elec       q    Type
REMARK                         _______ _______ _______ _____ _____    ______ ____
ROOT
ATOM      1  S   UNL     1     -35.457  26.289   3.367  0.00  0.00    -0.011 S 
ATOM      2  O   UNL     1     -32.505  26.922   6.945  0.00  0.00    -0.272 OA
ATOM      3  N   UNL     1     -33.510  27.334   4.866  0.00  0.00    -0.261 N 
ATOM      4  N   UNL     1     -35.797  24.557   5.225  0.00  0.00    -0.119 NA
ATOM      5  N   UNL     1     -34.767  25.372   5.658  0.00  0.00    -0.124 NA
ATOM      6  C   UNL     1     -36.246  24.926   4.044  0.00  0.00    +0.256 A 
ATOM      7  C   UNL     1     -34.490  26.316   4.785  0.00  0.00    +0.189 A 
ATOM      8  C   UNL     1     -32.612  27.565   5.903  0.00  0.00    +0.258 C 
ATOM      9  H   UNL     1     -33.458  27.952   4.100  0.00  0.00    +0.157 HD
ENDROOT
BRANCH   8  12
ATOM     10 CL   UNL     1     -32.466  29.703   4.319  0.00  0.00    -0.087 Cl
ATOM     11 CL   UNL     1     -31.580  29.708   7.105  0.00  0.00    -0.087 Cl
ATOM     12  C   UNL     1     -31.720  28.755   5.617  0.00  0.00    +0.234 C 
ENDBRANCH   8  12
BRANCH   6  13
ATOM     13  S   UNL     1     -37.527  24.171   3.150  0.00  0.00    +0.081 S 
ATOM     14  O   UNL     1     -38.804  24.533   3.758  0.00  0.00    -0.151 OA
ATOM     15  O   UNL     1     -37.320  24.416   1.726  0.00  0.00    -0.151 OA
BRANCH  13  16
ATOM     16  N   UNL     1     -37.227  22.515   3.462  0.00  0.00    -0.202 NA
ATOM     17  H   UNL     1     -36.508  22.429   4.180  0.00  0.00    +0.144 HD
ATOM     18  H   UNL     1     -36.909  22.061   2.606  0.00  0.00    +0.144 HD
ENDBRANCH  13  16
ENDBRANCH   6  13
TORSDOF 3
ENDMDL
MODEL 3
REMARK VINA RESULT:      -5.3      1.229      1.647
REMARK  Name = 54141845
REMARK  3 active torsions:
REMARK  status: ('A' for Active; 'I' for Inactive)
REMARK    1  A    between atoms: C_6  and  S_13
REMARK    2  A    between atoms: C_8  and  C_12
REMARK    3  A    between atoms: S_13  and  N_16
REMARK                            x       y       z     vdW  Elec       q    Type
REMARK                         _______ _______ _______ _____ _____    ______ ____
ROOT
ATOM      1  S   UNL     1     -35.458  26.448   3.630  0.00  0.00    -0.011 S 
ATOM      2  O   UNL     1     -31.305  27.773   5.337  0.00  0.00    -0.272 OA
ATOM      3  N   UNL     1     -33.399  28.008   4.307  0.00  0.00    -0.261 N 
ATOM      4  N   UNL     1     -34.142  24.483   4.618  0.00  0.00    -0.119 NA
ATOM      5  N   UNL     1     -33.337  25.595   4.788  0.00  0.00    -0.124 NA
ATOM      6  C   UNL     1     -35.277  24.789   4.026  0.00  0.00    +0.256 A 
ATOM      7  C   UNL     1     -33.904  26.685   4.317  0.00  0.00    +0.189 A 
ATOM      8  C   UNL     1     -32.177  28.453   4.799  0.00  0.00    +0.258 C 
ATOM      9  H   UNL     1     -33.981  28.693   3.904  0.00  0.00    +0.157 HD
ENDROOT
BRANCH   8  12
ATOM     10 CL   UNL     1     -33.355  30.531   3.618  0.00  0.00    -0.087 Cl
ATOM     11 CL   UNL     1     -31.993  30.713   6.198  0.00  0.00    -0.087 Cl
ATOM     12  C   UNL     1     -32.002  29.945   4.601  0.00  0.00    +0.234 C 
ENDBRANCH   8  12
BRANCH   6  13
ATOM     13  S   UNL     1     -36.559  23.689   3.629  0.00  0.00    +0.081 S 
ATOM     14  O   UNL     1     -37.835  24.311   3.966  0.00  0.00    -0.151 OA
ATOM     15  O   UNL     1     -36.347  23.183   2.276  0.00  0.00    -0.151 OA
BRANCH  13  16
ATOM     16  N   UNL     1     -36.265  22.416   4.734  0.00  0.00    -0.202 NA
ATOM     17  H   UNL     1     -35.956  22.803   5.625  0.00  0.00    +0.144 HD
ATOM     18  H   UNL     1     -35.542  21.802   4.360  0.00  0.00    +0.144 HD
ENDBRANCH  13  16
ENDBRANCH   6  13
TORSDOF 3
ENDMDL
MODEL 4
REMARK VINA RESULT:      -5.1      4.230      6.710
REMARK  Name = 54141845
REMARK  3 active torsions:
REMARK  status: ('A' for Active; 'I' for Inactive)
REMARK    1  A    between atoms: C_6  and  S_13
REMARK    2  A    between atoms: C_8  and  C_12
REMARK    3  A    between atoms: S_13  and  N_16
REMARK                            x       y       z     vdW  Elec       q    Type
REMARK                         _______ _______ _______ _____ _____    ______ ____
ROOT
ATOM      1  S   UNL     1     -33.393  26.363   3.698  0.00  0.00    -0.011 S 
ATOM      2  O   UNL     1     -36.272  23.023   5.272  0.00  0.00    -0.272 OA
ATOM      3  N   UNL     1     -35.038  24.259   3.706  0.00  0.00    -0.261 N 
ATOM      4  N   UNL     1     -33.733  26.490   6.235  0.00  0.00    -0.119 NA
ATOM      5  N   UNL     1     -34.496  25.418   5.809  0.00  0.00    -0.124 NA
ATOM      6  C   UNL     1     -33.107  27.070   5.234  0.00  0.00    +0.256 A 
ATOM      7  C   UNL     1     -34.409  25.241   4.508  0.00  0.00    +0.189 A 
ATOM      8  C   UNL     1     -35.898  23.249   4.123  0.00  0.00    +0.258 C 
ATOM      9  H   UNL     1     -34.843  24.294   2.741  0.00  0.00    +0.157 HD
ENDROOT
BRANCH   8  12
ATOM     10 CL   UNL     1     -35.980  23.252   1.459  0.00  0.00    -0.087 Cl
ATOM     11 CL   UNL     1     -35.515  20.842   3.046  0.00  0.00    -0.087 Cl
ATOM     12  C   UNL     1     -36.364  22.395   2.962  0.00  0.00    +0.234 C 
ENDBRANCH   8  12
BRANCH   6  13
ATOM     13  S   UNL     1     -32.052  28.444   5.339  0.00  0.00    +0.081 S 
ATOM     14  O   UNL     1     -30.750  28.081   4.787  0.00  0.00    -0.151 OA
ATOM     15  O   UNL     1     -32.747  29.616   4.815  0.00  0.00    -0.151 OA
BRANCH  13  16
ATOM     16  N   UNL     1     -31.895  28.621   7.034  0.00  0.00    -0.202 NA
ATOM     17  H   UNL     1     -32.415  27.879   7.502  0.00  0.00    +0.144 HD
ATOM     18  H   UNL     1     -32.266  29.528   7.315  0.00  0.00    +0.144 HD
ENDBRANCH  13  16
ENDBRANCH   6  13
TORSDOF 3
ENDMDL
MODEL 5
REMARK VINA RESULT:      -5.1      5.487      7.071
REMARK  Name = 54141845
REMARK  3 active torsions:
REMARK  status: ('A' for Active; 'I' for Inactive)
REMARK    1  A    between atoms: C_6  and  S_13
REMARK    2  A    between atoms: C_8  and  C_12
REMARK    3  A    between atoms: S_13  and  N_16
REMARK                            x       y       z     vdW  Elec       q    Type
REMARK                         _______ _______ _______ _____ _____    ______ ____
ROOT
ATOM      1  S   UNL     1     -38.245  21.097   1.200  0.00  0.00    -0.011 S 
ATOM      2  O   UNL     1     -37.208  24.211   4.538  0.00  0.00    -0.272 OA
ATOM      3  N   UNL     1     -36.908  22.350   3.142  0.00  0.00    -0.261 N 
ATOM      4  N   UNL     1     -40.091  22.848   1.501  0.00  0.00    -0.119 NA
ATOM      5  N   UNL     1     -39.111  23.177   2.419  0.00  0.00    -0.124 NA
ATOM      6  C   UNL     1     -39.765  21.783   0.801  0.00  0.00    +0.256 A 
ATOM      7  C   UNL     1     -38.093  22.345   2.367  0.00  0.00    +0.189 A 
ATOM      8  C   UNL     1     -36.553  23.249   4.142  0.00  0.00    +0.258 C 
ATOM      9  H   UNL     1     -36.259  21.634   2.950  0.00  0.00    +0.157 HD
ENDROOT
BRANCH   8  12
ATOM     10 CL   UNL     1     -34.261  24.419   4.837  0.00  0.00    -0.087 Cl
ATOM     11 CL   UNL     1     -35.462  22.222   6.345  0.00  0.00    -0.087 Cl
ATOM     12  C   UNL     1     -35.200  22.919   4.738  0.00  0.00    +0.234 C 
ENDBRANCH   8  12
BRANCH   6  13
ATOM     13  S   UNL     1     -40.715  21.044  -0.449  0.00  0.00    +0.081 S 
ATOM     14  O   UNL     1     -41.998  20.634   0.114  0.00  0.00    -0.151 OA
ATOM     15  O   UNL     1     -40.696  21.903  -1.629  0.00  0.00    -0.151 OA
BRANCH  13  16
ATOM     16  N   UNL     1     -39.796  19.641  -0.788  0.00  0.00    -0.202 NA
ATOM     17  H   UNL     1     -39.249  19.789  -1.635  0.00  0.00    +0.144 HD
ATOM     18  H   UNL     1     -40.424  18.849  -0.922  0.00  0.00    +0.144 HD
ENDBRANCH  13  16
ENDBRANCH   6  13
TORSDOF 3
ENDMDL
MODEL 6
REMARK VINA RESULT:      -5.0      2.743      3.611
REMARK  Name = 54141845
REMARK  3 active torsions:
REMARK  status: ('A' for Active; 'I' for Inactive)
REMARK    1  A    between atoms: C_6  and  S_13
REMARK    2  A    between atoms: C_8  and  C_12
REMARK    3  A    between atoms: S_13  and  N_16
REMARK                            x       y       z     vdW  Elec       q    Type
REMARK                         _______ _______ _______ _____ _____    ______ ____
ROOT
ATOM      1  S   UNL     1     -35.219  23.305   2.253  0.00  0.00    -0.011 S 
ATOM      2  O   UNL     1     -35.050  26.373   5.786  0.00  0.00    -0.272 OA
ATOM      3  N   UNL     1     -34.348  25.271   3.838  0.00  0.00    -0.261 N 
ATOM      4  N   UNL     1     -37.241  23.102   3.814  0.00  0.00    -0.119 NA
ATOM      5  N   UNL     1     -36.464  24.117   4.340  0.00  0.00    -0.124 NA
ATOM      6  C   UNL     1     -36.706  22.592   2.725  0.00  0.00    +0.256 A 
ATOM      7  C   UNL     1     -35.381  24.326   3.623  0.00  0.00    +0.189 A 
ATOM      8  C   UNL     1     -34.251  26.200   4.867  0.00  0.00    +0.258 C 
ATOM      9  H   UNL     1     -33.614  25.269   3.181  0.00  0.00    +0.157 HD
ENDROOT
BRANCH   8  12
ATOM     10 CL   UNL     1     -33.348  28.419   3.699  0.00  0.00    -0.087 Cl
ATOM     11 CL   UNL     1     -32.535  27.572   6.375  0.00  0.00    -0.087 Cl
ATOM     12  C   UNL     1     -32.994  27.037   4.749  0.00  0.00    +0.234 C 
ENDBRANCH   8  12
BRANCH   6  13
ATOM     13  S   UNL     1     -37.360  21.305   1.763  0.00  0.00    +0.081 S 
ATOM     14  O   UNL     1     -38.814  21.314   1.890  0.00  0.00    -0.151 OA
ATOM     15  O   UNL     1     -36.760  21.356   0.433  0.00  0.00    -0.151 OA
BRANCH  13  16
ATOM     16  N   UNL     1     -36.751  19.930   2.579  0.00  0.00    -0.202 NA
ATOM     17  H   UNL     1     -35.734  19.984   2.624  0.00  0.00    +0.144 HD
ATOM     18  H   UNL     1     -37.026  19.087   2.074  0.00  0.00    +0.144 HD
ENDBRANCH  13  16
ENDBRANCH   6  13
TORSDOF 3
ENDMDL
MODEL 7
REMARK VINA RESULT:      -4.9      4.235      6.685
REMARK  Name = 54141845
REMARK  3 active torsions:
REMARK  status: ('A' for Active; 'I' for Inactive)
REMARK    1  A    between atoms: C_6  and  S_13
REMARK    2  A    between atoms: C_8  and  C_12
REMARK    3  A    between atoms: S_13  and  N_16
REMARK                            x       y       z     vdW  Elec       q    Type
REMARK                         _______ _______ _______ _____ _____    ______ ____
ROOT
ATOM      1  S   UNL     1     -33.352  27.433   3.977  0.00  0.00    -0.011 S 
ATOM      2  O   UNL     1     -36.426  24.168   5.323  0.00  0.00    -0.272 OA
ATOM      3  N   UNL     1     -35.335  25.648   3.866  0.00  0.00    -0.261 N 
ATOM      4  N   UNL     1     -33.115  26.840   6.459  0.00  0.00    -0.119 NA
ATOM      5  N   UNL     1     -34.145  26.049   5.983  0.00  0.00    -0.124 NA
ATOM      6  C   UNL     1     -32.614  27.609   5.515  0.00  0.00    +0.256 A 
ATOM      7  C   UNL     1     -34.371  26.259   4.704  0.00  0.00    +0.189 A 
ATOM      8  C   UNL     1     -36.268  24.677   4.215  0.00  0.00    +0.258 C 
ATOM      9  H   UNL     1     -35.347  25.944   2.927  0.00  0.00    +0.157 HD
ENDROOT
BRANCH   8  12
ATOM     10 CL   UNL     1     -37.087  22.507   2.902  0.00  0.00    -0.087 Cl
ATOM     11 CL   UNL     1     -38.774  24.856   3.328  0.00  0.00    -0.087 Cl
ATOM     12  C   UNL     1     -37.126  24.274   3.034  0.00  0.00    +0.234 C 
ENDBRANCH   8  12
BRANCH   6  13
ATOM     13  S   UNL     1     -31.315  28.744   5.695  0.00  0.00    +0.081 S 
ATOM     14  O   UNL     1     -30.756  29.033   4.378  0.00  0.00    -0.151 OA
ATOM     15  O   UNL     1     -31.764  29.848   6.538  0.00  0.00    -0.151 OA
BRANCH  13  16
ATOM     16  N   UNL     1     -30.177  27.819   6.577  0.00  0.00    -0.202 NA
ATOM     17  H   UNL     1     -29.509  27.397   5.932  0.00  0.00    +0.144 HD
ATOM     18  H   UNL     1     -30.664  27.085   7.092  0.00  0.00    +0.144 HD
ENDBRANCH  13  16
ENDBRANCH   6  13
TORSDOF 3
ENDMDL
MODEL 8
REMARK VINA RESULT:      -4.9      1.796      2.035
REMARK  Name = 54141845
REMARK  3 active torsions:
REMARK  status: ('A' for Active; 'I' for Inactive)
REMARK    1  A    between atoms: C_6  and  S_13
REMARK    2  A    between atoms: C_8  and  C_12
REMARK    3  A    between atoms: S_13  and  N_16
REMARK                            x       y       z     vdW  Elec       q    Type
REMARK                         _______ _______ _______ _____ _____    ______ ____
ROOT
ATOM      1  S   UNL     1     -34.123  25.799   5.266  0.00  0.00    -0.011 S 
ATOM      2  O   UNL     1     -32.732  30.000   3.737  0.00  0.00    -0.272 OA
ATOM      3  N   UNL     1     -32.725  28.066   5.064  0.00  0.00    -0.261 N 
ATOM      4  N   UNL     1     -35.553  26.645   3.314  0.00  0.00    -0.119 NA
ATOM      5  N   UNL     1     -34.613  27.633   3.544  0.00  0.00    -0.124 NA
ATOM      6  C   UNL     1     -35.408  25.633   4.143  0.00  0.00    +0.256 A 
ATOM      7  C   UNL     1     -33.805  27.319   4.535  0.00  0.00    +0.189 A 
ATOM      8  C   UNL     1     -32.273  29.313   4.648  0.00  0.00    +0.258 C 
ATOM      9  H   UNL     1     -32.238  27.654   5.815  0.00  0.00    +0.157 HD
ENDROOT
BRANCH   8  12
ATOM     10 CL   UNL     1     -30.746  31.464   5.027  0.00  0.00    -0.087 Cl
ATOM     11 CL   UNL     1     -31.517  29.645   7.181  0.00  0.00    -0.087 Cl
ATOM     12  C   UNL     1     -31.089  29.782   5.467  0.00  0.00    +0.234 C 
ENDBRANCH   8  12
BRANCH   6  13
ATOM     13  S   UNL     1     -36.379  24.196   4.190  0.00  0.00    +0.081 S 
ATOM     14  O   UNL     1     -36.181  23.452   2.949  0.00  0.00    -0.151 OA
ATOM     15  O   UNL     1     -36.167  23.521   5.467  0.00  0.00    -0.151 OA
BRANCH  13  16
ATOM     16  N   UNL     1     -37.959  24.854   4.183  0.00  0.00    -0.202 NA
ATOM     17  H   UNL     1     -38.563  24.294   4.784  0.00  0.00    +0.144 HD
ATOM     18  H   UNL     1     -38.324  24.848   3.231  0.00  0.00    +0.144 HD
ENDBRANCH  13  16
ENDBRANCH   6  13
TORSDOF 3
ENDMDL
MODEL 9
REMARK VINA RESULT:      -4.9      3.545      4.655
REMARK  Name = 54141845
REMARK  3 active torsions:
REMARK  status: ('A' for Active; 'I' for Inactive)
REMARK    1  A    between atoms: C_6  and  S_13
REMARK    2  A    between atoms: C_8  and  C_12
REMARK    3  A    between atoms: S_13  and  N_16
REMARK                            x       y       z     vdW  Elec       q    Type
REMARK                         _______ _______ _______ _____ _____    ______ ____
ROOT
ATOM      1  S   UNL     1     -37.110  23.762   1.771  0.00  0.00    -0.011 S 
ATOM      2  O   UNL     1     -36.094  26.274   5.589  0.00  0.00    -0.272 OA
ATOM      3  N   UNL     1     -35.712  25.183   3.548  0.00  0.00    -0.261 N 
ATOM      4  N   UNL     1     -39.149  24.092   3.288  0.00  0.00    -0.119 NA
ATOM      5  N   UNL     1     -38.106  24.746   3.918  0.00  0.00    -0.124 NA
ATOM      6  C   UNL     1     -38.765  23.536   2.158  0.00  0.00    +0.256 A 
ATOM      7  C   UNL     1     -36.986  24.651   3.233  0.00  0.00    +0.189 A 
ATOM      8  C   UNL     1     -35.359  25.933   4.664  0.00  0.00    +0.258 C 
ATOM      9  H   UNL     1     -34.992  25.001   2.900  0.00  0.00    +0.157 HD
ENDROOT
BRANCH   8  12
ATOM     10 CL   UNL     1     -33.722  27.763   3.628  0.00  0.00    -0.087 Cl
ATOM     11 CL   UNL     1     -33.382  26.641   6.306  0.00  0.00    -0.087 Cl
ATOM     12  C   UNL     1     -33.894  26.319   4.640  0.00  0.00    +0.234 C 
ENDBRANCH   8  12
BRANCH   6  13
ATOM     13  S   UNL     1     -39.763  22.626   1.069  0.00  0.00    +0.081 S 
ATOM     14  O   UNL     1     -41.059  23.289   0.952  0.00  0.00    -0.151 OA
ATOM     15  O   UNL     1     -39.000  22.334  -0.140  0.00  0.00    -0.151 OA
BRANCH  13  16
ATOM     16  N   UNL     1     -39.974  21.169   1.941  0.00  0.00    -0.202 NA
ATOM     17  H   UNL     1     -39.615  21.285   2.888  0.00  0.00    +0.144 HD
ATOM     18  H   UNL     1     -39.467  20.418   1.473  0.00  0.00    +0.144 HD
ENDBRANCH  13  16
ENDBRANCH   6  13
TORSDOF 3
ENDMDL
