MODEL 1
REMARK VINA RESULT:      -5.6      0.000      0.000
REMARK  Name = 5483957
REMARK  7 active torsions:
REMARK  status: ('A' for Active; 'I' for Inactive)
REMARK    1  A    between atoms: CA_1  and  C_5
REMARK    2  A    between atoms: CA_1  and  N_14
REMARK    3  A    between atoms: N_4  and  CA_7
REMARK    4  A    between atoms: CA_7  and  C_10
REMARK    5  A    between atoms: C_10  and  O_11
REMARK    6  A    between atoms: C_15  and  CA_17
REMARK    7  A    between atoms: CA_17  and  N_20
REMARK                            x       y       z     vdW  Elec       q    Type
REMARK                         _______ _______ _______ _____ _____    ______ ____
ROOT
ATOM      1  CA  ALA A   1     -35.242  25.426   4.322  0.00  0.00    +0.149 C 
ATOM      2  CB  ALA A   1     -36.001  26.138   5.430  0.00  0.00    +0.031 C 
ENDROOT
BRANCH   1   5
ATOM      3  O   ALA A   1     -32.922  25.381   3.617  0.00  0.00    -0.273 OA
ATOM      4  N   ALA A   2     -33.701  27.226   4.791  0.00  0.00    -0.295 N 
ATOM      5  C   ALA A   1     -33.833  25.987   4.179  0.00  0.00    +0.241 C 
ATOM      6  H   ALA A   2     -34.492  27.630   5.215  0.00  0.00    +0.150 HD
BRANCH   4   7
ATOM      7  CA  ALA A   2     -32.449  27.947   4.830  0.00  0.00    +0.171 C 
ATOM      8  CB  ALA A   2     -32.562  29.255   4.064  0.00  0.00    +0.033 C 
BRANCH   7  10
ATOM      9  OXT ALA A   2     -31.757  29.329   6.688  0.00  0.00    -0.248 OA
ATOM     10  C   ALA A   2     -31.995  28.206   6.256  0.00  0.00    +0.332 C 
BRANCH  10  11
ATOM     11  O   ALA A   2     -31.858  27.094   7.019  0.00  0.00    -0.479 OA
ATOM     12  H   ALA A   2     -32.132  26.262   6.687  0.00  0.00    +0.295 HD
ENDBRANCH  10  11
ENDBRANCH   7  10
ENDBRANCH   4   7
ENDBRANCH   1   5
BRANCH   1  14
ATOM     13  O   ALA A   1     -37.184  23.400   3.691  0.00  0.00    -0.273 OA
ATOM     14  N   ALA A   1     -35.132  24.010   4.586  0.00  0.00    -0.297 N 
ATOM     15  C   ALA A   1     -36.126  23.105   4.243  0.00  0.00    +0.241 C 
ATOM     16  H   ALA A   1     -34.319  23.673   5.026  0.00  0.00    +0.150 HD
BRANCH  15  17
ATOM     17  CA  ALA A   1     -35.741  21.672   4.587  0.00  0.00    +0.149 C 
ATOM     18  CB  ALA A   1     -34.992  21.612   5.908  0.00  0.00    +0.031 C 
BRANCH  17  20
ATOM     19  O   UNK A   0     -36.666  20.251   2.230  0.00  0.00    -0.275 OA
ATOM     20  N   ALA A   1     -34.942  21.155   3.508  0.00  0.00    -0.298 N 
ATOM     21  C   UNK A   0     -35.474  20.486   2.415  0.00  0.00    +0.223 C 
ATOM     22  C   UNK A   0     -34.420  20.075   1.422  0.00  0.00    +0.095 C 
ATOM     23  H   ALA A   1     -33.966  21.283   3.546  0.00  0.00    +0.150 HD
ENDBRANCH  17  20
ENDBRANCH  15  17
ENDBRANCH   1  14
TORSDOF 7
ENDMDL
MODEL 2
REMARK VINA RESULT:      -5.5      4.009      6.334
REMARK  Name = 5483957
REMARK  7 active torsions:
REMARK  status: ('A' for Active; 'I' for Inactive)
REMARK    1  A    between atoms: CA_1  and  C_5
REMARK    2  A    between atoms: CA_1  and  N_14
REMARK    3  A    between atoms: N_4  and  CA_7
REMARK    4  A    between atoms: CA_7  and  C_10
REMARK    5  A    between atoms: C_10  and  O_11
REMARK    6  A    between atoms: C_15  and  CA_17
REMARK    7  A    between atoms: CA_17  and  N_20
REMARK                            x       y       z     vdW  Elec       q    Type
REMARK                         _______ _______ _______ _____ _____    ______ ____
ROOT
ATOM      1  CA  ALA A   1     -37.460  20.971   1.725  0.00  0.00    +0.149 C 
ATOM      2  CB  ALA A   1     -37.085  20.490   0.332  0.00  0.00    +0.031 C 
ENDROOT
BRANCH   1   5
ATOM      3  O   ALA A   1     -35.200  20.517   2.475  0.00  0.00    -0.273 OA
ATOM      4  N   ALA A   2     -36.394  22.230   3.489  0.00  0.00    -0.295 N 
ATOM      5  C   ALA A   1     -36.217  21.201   2.575  0.00  0.00    +0.241 C 
ATOM      6  H   ALA A   2     -37.248  22.719   3.491  0.00  0.00    +0.150 HD
BRANCH   4   7
ATOM      7  CA  ALA A   2     -35.374  22.612   4.439  0.00  0.00    +0.171 C 
ATOM      8  CB  ALA A   2     -35.444  24.104   4.727  0.00  0.00    +0.033 C 
BRANCH   7  10
ATOM      9  OXT ALA A   2     -35.929  22.292   6.769  0.00  0.00    -0.248 OA
ATOM     10  C   ALA A   2     -35.482  21.818   5.730  0.00  0.00    +0.332 C 
BRANCH  10  11
ATOM     11  O   ALA A   2     -35.035  20.542   5.650  0.00  0.00    -0.479 OA
ATOM     12  H   ALA A   2     -35.307  19.994   4.940  0.00  0.00    +0.295 HD
ENDBRANCH  10  11
ENDBRANCH   7  10
ENDBRANCH   4   7
ENDBRANCH   1   5
BRANCH   1  14
ATOM     13  O   ALA A   1     -40.305  21.297   2.007  0.00  0.00    -0.273 OA
ATOM     14  N   ALA A   1     -38.198  22.212   1.671  0.00  0.00    -0.297 N 
ATOM     15  C   ALA A   1     -39.577  22.269   1.819  0.00  0.00    +0.241 C 
ATOM     16  H   ALA A   1     -37.703  23.049   1.524  0.00  0.00    +0.150 HD
BRANCH  15  17
ATOM     17  CA  ALA A   1     -40.099  23.700   1.770  0.00  0.00    +0.149 C 
ATOM     18  CB  ALA A   1     -41.077  23.883   0.621  0.00  0.00    +0.031 C 
BRANCH  17  20
ATOM     19  O   UNK A   0     -39.778  26.336   2.944  0.00  0.00    -0.275 OA
ATOM     20  N   ALA A   1     -38.970  24.582   1.642  0.00  0.00    -0.298 N 
ATOM     21  C   UNK A   0     -38.904  25.831   2.243  0.00  0.00    +0.223 C 
ATOM     22  C   UNK A   0     -37.602  26.534   1.968  0.00  0.00    +0.095 C 
ATOM     23  H   ALA A   1     -38.203  24.283   1.101  0.00  0.00    +0.150 HD
ENDBRANCH  17  20
ENDBRANCH  15  17
ENDBRANCH   1  14
TORSDOF 7
ENDMDL
MODEL 3
REMARK VINA RESULT:      -5.4      2.312      2.680
REMARK  Name = 5483957
REMARK  7 active torsions:
REMARK  status: ('A' for Active; 'I' for Inactive)
REMARK    1  A    between atoms: CA_1  and  C_5
REMARK    2  A    between atoms: CA_1  and  N_14
REMARK    3  A    between atoms: N_4  and  CA_7
REMARK    4  A    between atoms: CA_7  and  C_10
REMARK    5  A    between atoms: C_10  and  O_11
REMARK    6  A    between atoms: C_15  and  CA_17
REMARK    7  A    between atoms: CA_17  and  N_20
REMARK                            x       y       z     vdW  Elec       q    Type
REMARK                         _______ _______ _______ _____ _____    ______ ____
ROOT
ATOM      1  CA  ALA A   1     -34.746  26.046   5.226  0.00  0.00    +0.149 C 
ATOM      2  CB  ALA A   1     -33.681  26.386   6.256  0.00  0.00    +0.031 C 
ENDROOT
BRANCH   1   5
ATOM      3  O   ALA A   1     -33.639  26.180   3.073  0.00  0.00    -0.273 OA
ATOM      4  N   ALA A   2     -35.080  27.889   3.700  0.00  0.00    -0.295 N 
ATOM      5  C   ALA A   1     -34.423  26.679   3.879  0.00  0.00    +0.241 C 
ATOM      6  H   ALA A   2     -35.690  28.204   4.405  0.00  0.00    +0.150 HD
BRANCH   4   7
ATOM      7  CA  ALA A   2     -34.904  28.704   2.520  0.00  0.00    +0.171 C 
ATOM      8  CB  ALA A   2     -36.129  28.617   1.623  0.00  0.00    +0.033 C 
BRANCH   7  10
ATOM      9  OXT ALA A   2     -33.577  30.724   2.550  0.00  0.00    -0.248 OA
ATOM     10  C   ALA A   2     -34.611  30.152   2.876  0.00  0.00    +0.332 C 
BRANCH  10  11
ATOM     11  O   ALA A   2     -35.581  30.766   3.596  0.00  0.00    -0.479 OA
ATOM     12  H   ALA A   2     -36.130  30.265   4.166  0.00  0.00    +0.295 HD
ENDBRANCH  10  11
ENDBRANCH   7  10
ENDBRANCH   4   7
ENDBRANCH   1   5
BRANCH   1  14
ATOM     13  O   ALA A   1     -37.132  24.571   4.586  0.00  0.00    -0.273 OA
ATOM     14  N   ALA A   1     -34.855  24.619   5.033  0.00  0.00    -0.297 N 
ATOM     15  C   ALA A   1     -36.055  23.994   4.725  0.00  0.00    +0.241 C 
ATOM     16  H   ALA A   1     -34.045  24.068   5.123  0.00  0.00    +0.150 HD
BRANCH  15  17
ATOM     17  CA  ALA A   1     -35.886  22.493   4.526  0.00  0.00    +0.149 C 
ATOM     18  CB  ALA A   1     -35.104  21.878   5.675  0.00  0.00    +0.031 C 
BRANCH  17  20
ATOM     19  O   UNK A   0     -36.135  20.203   2.760  0.00  0.00    -0.275 OA
ATOM     20  N   ALA A   1     -35.220  22.284   3.268  0.00  0.00    -0.298 N 
ATOM     21  C   UNK A   0     -35.402  21.151   2.488  0.00  0.00    +0.223 C 
ATOM     22  C   UNK A   0     -34.606  21.198   1.211  0.00  0.00    +0.095 C 
ATOM     23  H   ALA A   1     -34.604  22.980   2.944  0.00  0.00    +0.150 HD
ENDBRANCH  17  20
ENDBRANCH  15  17
ENDBRANCH   1  14
TORSDOF 7
ENDMDL
MODEL 4
REMARK VINA RESULT:      -5.4      2.148      3.805
REMARK  Name = 5483957
REMARK  7 active torsions:
REMARK  status: ('A' for Active; 'I' for Inactive)
REMARK    1  A    between atoms: CA_1  and  C_5
REMARK    2  A    between atoms: CA_1  and  N_14
REMARK    3  A    between atoms: N_4  and  CA_7
REMARK    4  A    between atoms: CA_7  and  C_10
REMARK    5  A    between atoms: C_10  and  O_11
REMARK    6  A    between atoms: C_15  and  CA_17
REMARK    7  A    between atoms: CA_17  and  N_20
REMARK                            x       y       z     vdW  Elec       q    Type
REMARK                         _______ _______ _______ _____ _____    ______ ____
ROOT
ATOM      1  CA  ALA A   1     -35.855  22.428   4.690  0.00  0.00    +0.149 C 
ATOM      2  CB  ALA A   1     -35.106  21.887   5.898  0.00  0.00    +0.031 C 
ENDROOT
BRANCH   1   5
ATOM      3  O   ALA A   1     -37.087  24.508   4.516  0.00  0.00    -0.273 OA
ATOM      4  N   ALA A   2     -34.865  24.575   5.181  0.00  0.00    -0.295 N 
ATOM      5  C   ALA A   1     -36.034  23.937   4.791  0.00  0.00    +0.241 C 
ATOM      6  H   ALA A   2     -34.071  24.028   5.380  0.00  0.00    +0.150 HD
BRANCH   4   7
ATOM      7  CA  ALA A   2     -34.765  26.011   5.307  0.00  0.00    +0.171 C 
ATOM      8  CB  ALA A   2     -33.635  26.388   6.252  0.00  0.00    +0.033 C 
BRANCH   7  10
ATOM      9  OXT ALA A   2     -33.740  26.309   3.139  0.00  0.00    -0.248 OA
ATOM     10  C   ALA A   2     -34.573  26.682   3.958  0.00  0.00    +0.332 C 
BRANCH  10  11
ATOM     11  O   ALA A   2     -35.389  27.739   3.730  0.00  0.00    -0.479 OA
ATOM     12  H   ALA A   2     -35.507  28.061   2.857  0.00  0.00    +0.295 HD
ENDBRANCH  10  11
ENDBRANCH   7  10
ENDBRANCH   4   7
ENDBRANCH   1   5
BRANCH   1  14
ATOM     13  O   ALA A   1     -36.319  20.216   2.910  0.00  0.00    -0.273 OA
ATOM     14  N   ALA A   1     -35.150  22.143   3.463  0.00  0.00    -0.297 N 
ATOM     15  C   ALA A   1     -35.446  21.046   2.666  0.00  0.00    +0.241 C 
ATOM     16  H   ALA A   1     -34.430  22.752   3.180  0.00  0.00    +0.150 HD
BRANCH  15  17
ATOM     17  CA  ALA A   1     -34.589  21.004   1.407  0.00  0.00    +0.149 C 
ATOM     18  CB  ALA A   1     -35.437  21.224   0.165  0.00  0.00    +0.031 C 
BRANCH  17  20
ATOM     19  O   UNK A   0     -31.984  20.417   0.268  0.00  0.00    -0.275 OA
ATOM     20  N   ALA A   1     -33.920  19.731   1.367  0.00  0.00    -0.298 N 
ATOM     21  C   UNK A   0     -32.668  19.544   0.798  0.00  0.00    +0.223 C 
ATOM     22  C   UNK A   0     -32.190  18.122   0.914  0.00  0.00    +0.095 C 
ATOM     23  H   ALA A   1     -34.373  18.953   1.763  0.00  0.00    +0.150 HD
ENDBRANCH  17  20
ENDBRANCH  15  17
ENDBRANCH   1  14
TORSDOF 7
ENDMDL
MODEL 5
REMARK VINA RESULT:      -5.4      2.101      6.788
REMARK  Name = 5483957
REMARK  7 active torsions:
REMARK  status: ('A' for Active; 'I' for Inactive)
REMARK    1  A    between atoms: CA_1  and  C_5
REMARK    2  A    between atoms: CA_1  and  N_14
REMARK    3  A    between atoms: N_4  and  CA_7
REMARK    4  A    between atoms: CA_7  and  C_10
REMARK    5  A    between atoms: C_10  and  O_11
REMARK    6  A    between atoms: C_15  and  CA_17
REMARK    7  A    between atoms: CA_17  and  N_20
REMARK                            x       y       z     vdW  Elec       q    Type
REMARK                         _______ _______ _______ _____ _____    ______ ____
ROOT
ATOM      1  CA  ALA A   1     -34.613  25.341   1.921  0.00  0.00    +0.149 C 
ATOM      2  CB  ALA A   1     -33.723  24.857   0.787  0.00  0.00    +0.031 C 
ENDROOT
BRANCH   1   5
ATOM      3  O   ALA A   1     -36.819  24.342   2.025  0.00  0.00    -0.273 OA
ATOM      4  N   ALA A   2     -35.048  23.255   3.058  0.00  0.00    -0.295 N 
ATOM      5  C   ALA A   1     -35.625  24.273   2.313  0.00  0.00    +0.241 C 
ATOM      6  H   ALA A   2     -34.080  23.289   3.236  0.00  0.00    +0.150 HD
BRANCH   4   7
ATOM      7  CA  ALA A   2     -35.809  22.146   3.585  0.00  0.00    +0.171 C 
ATOM      8  CB  ALA A   2     -35.413  20.849   2.896  0.00  0.00    +0.033 C 
BRANCH   7  10
ATOM      9  OXT ALA A   2     -35.914  22.922   5.872  0.00  0.00    -0.248 OA
ATOM     10  C   ALA A   2     -35.646  22.016   5.090  0.00  0.00    +0.332 C 
BRANCH  10  11
ATOM     11  O   ALA A   2     -35.168  20.818   5.507  0.00  0.00    -0.479 OA
ATOM     12  H   ALA A   2     -34.348  20.772   5.958  0.00  0.00    +0.295 HD
ENDBRANCH  10  11
ENDBRANCH   7  10
ENDBRANCH   4   7
ENDBRANCH   1   5
BRANCH   1  14
ATOM     13  O   ALA A   1     -34.941  27.643   3.615  0.00  0.00    -0.273 OA
ATOM     14  N   ALA A   1     -33.837  25.670   3.094  0.00  0.00    -0.297 N 
ATOM     15  C   ALA A   1     -34.070  26.809   3.852  0.00  0.00    +0.241 C 
ATOM     16  H   ALA A   1     -33.113  25.061   3.367  0.00  0.00    +0.150 HD
BRANCH  15  17
ATOM     17  CA  ALA A   1     -33.146  26.893   5.060  0.00  0.00    +0.149 C 
ATOM     18  CB  ALA A   1     -33.788  26.256   6.282  0.00  0.00    +0.031 C 
BRANCH  17  20
ATOM     19  O   UNK A   0     -30.742  27.996   6.256  0.00  0.00    -0.275 OA
ATOM     20  N   ALA A   1     -32.842  28.281   5.291  0.00  0.00    -0.298 N 
ATOM     21  C   UNK A   0     -31.660  28.717   5.872  0.00  0.00    +0.223 C 
ATOM     22  C   UNK A   0     -31.588  30.217   5.973  0.00  0.00    +0.095 C 
ATOM     23  H   ALA A   1     -33.507  28.955   5.023  0.00  0.00    +0.150 HD
ENDBRANCH  17  20
ENDBRANCH  15  17
ENDBRANCH   1  14
TORSDOF 7
ENDMDL
MODEL 6
REMARK VINA RESULT:      -5.3      2.618      6.970
REMARK  Name = 5483957
REMARK  7 active torsions:
REMARK  status: ('A' for Active; 'I' for Inactive)
REMARK    1  A    between atoms: CA_1  and  C_5
REMARK    2  A    between atoms: CA_1  and  N_14
REMARK    3  A    between atoms: N_4  and  CA_7
REMARK    4  A    between atoms: CA_7  and  C_10
REMARK    5  A    between atoms: C_10  and  O_11
REMARK    6  A    between atoms: C_15  and  CA_17
REMARK    7  A    between atoms: CA_17  and  N_20
REMARK                            x       y       z     vdW  Elec       q    Type
REMARK                         _______ _______ _______ _____ _____    ______ ____
ROOT
ATOM      1  CA  ALA A   1     -34.034  26.061   4.925  0.00  0.00    +0.149 C 
ATOM      2  CB  ALA A   1     -33.560  26.455   6.315  0.00  0.00    +0.031 C 
ENDROOT
BRANCH   1   5
ATOM      3  O   ALA A   1     -36.246  25.307   5.572  0.00  0.00    -0.273 OA
ATOM      4  N   ALA A   2     -34.864  23.852   4.406  0.00  0.00    -0.295 N 
ATOM      5  C   ALA A   1     -35.182  25.063   5.005  0.00  0.00    +0.241 C 
ATOM      6  H   ALA A   2     -33.983  23.755   3.976  0.00  0.00    +0.150 HD
BRANCH   4   7
ATOM      7  CA  ALA A   2     -35.771  22.729   4.387  0.00  0.00    +0.171 C 
ATOM      8  CB  ALA A   2     -35.607  21.930   3.104  0.00  0.00    +0.033 C 
BRANCH   7  10
ATOM      9  OXT ALA A   2     -35.870  22.176   6.738  0.00  0.00    -0.248 OA
ATOM     10  C   ALA A   2     -35.580  21.831   5.598  0.00  0.00    +0.332 C 
BRANCH  10  11
ATOM     11  O   ALA A   2     -35.049  20.615   5.322  0.00  0.00    -0.479 OA
ATOM     12  H   ALA A   2     -34.190  20.398   5.627  0.00  0.00    +0.295 HD
ENDBRANCH  10  11
ENDBRANCH   7  10
ENDBRANCH   4   7
ENDBRANCH   1   5
BRANCH   1  14
ATOM     13  O   ALA A   1     -34.520  26.196   2.093  0.00  0.00    -0.273 OA
ATOM     14  N   ALA A   1     -34.493  27.210   4.181  0.00  0.00    -0.297 N 
ATOM     15  C   ALA A   1     -34.700  27.179   2.809  0.00  0.00    +0.241 C 
ATOM     16  H   ALA A   1     -34.667  28.048   4.666  0.00  0.00    +0.150 HD
BRANCH  15  17
ATOM     17  CA  ALA A   1     -35.230  28.505   2.279  0.00  0.00    +0.149 C 
ATOM     18  CB  ALA A   1     -35.702  28.366   0.840  0.00  0.00    +0.031 C 
BRANCH  17  20
ATOM     19  O   UNK A   0     -35.280  30.979   3.798  0.00  0.00    -0.275 OA
ATOM     20  N   ALA A   1     -34.180  29.481   2.393  0.00  0.00    -0.298 N 
ATOM     21  C   UNK A   0     -34.293  30.641   3.147  0.00  0.00    +0.223 C 
ATOM     22  C   UNK A   0     -33.040  31.474   3.115  0.00  0.00    +0.095 C 
ATOM     23  H   ALA A   1     -33.336  29.318   1.913  0.00  0.00    +0.150 HD
ENDBRANCH  17  20
ENDBRANCH  15  17
ENDBRANCH   1  14
TORSDOF 7
ENDMDL
MODEL 7
REMARK VINA RESULT:      -5.3      1.794      3.128
REMARK  Name = 5483957
REMARK  7 active torsions:
REMARK  status: ('A' for Active; 'I' for Inactive)
REMARK    1  A    between atoms: CA_1  and  C_5
REMARK    2  A    between atoms: CA_1  and  N_14
REMARK    3  A    between atoms: N_4  and  CA_7
REMARK    4  A    between atoms: CA_7  and  C_10
REMARK    5  A    between atoms: C_10  and  O_11
REMARK    6  A    between atoms: C_15  and  CA_17
REMARK    7  A    between atoms: CA_17  and  N_20
REMARK                            x       y       z     vdW  Elec       q    Type
REMARK                         _______ _______ _______ _____ _____    ______ ____
ROOT
ATOM      1  CA  ALA A   1     -34.521  28.566   2.722  0.00  0.00    +0.149 C 
ATOM      2  CB  ALA A   1     -35.196  29.927   2.779  0.00  0.00    +0.031 C 
ENDROOT
BRANCH   1   5
ATOM      3  O   ALA A   1     -32.110  28.343   2.593  0.00  0.00    -0.273 OA
ATOM      4  N   ALA A   2     -33.066  29.033   4.592  0.00  0.00    -0.295 N 
ATOM      5  C   ALA A   1     -33.099  28.640   3.262  0.00  0.00    +0.241 C 
ATOM      6  H   ALA A   2     -33.915  29.250   5.042  0.00  0.00    +0.150 HD
BRANCH   4   7
ATOM      7  CA  ALA A   2     -31.837  29.138   5.345  0.00  0.00    +0.171 C 
ATOM      8  CB  ALA A   2     -31.826  30.411   6.177  0.00  0.00    +0.033 C 
BRANCH   7  10
ATOM      9  OXT ALA A   2     -32.516  27.153   6.546  0.00  0.00    -0.248 OA
ATOM     10  C   ALA A   2     -31.616  27.924   6.232  0.00  0.00    +0.332 C 
BRANCH  10  11
ATOM     11  O   ALA A   2     -30.341  27.762   6.662  0.00  0.00    -0.479 OA
ATOM     12  H   ALA A   2     -30.129  27.911   7.562  0.00  0.00    +0.295 HD
ENDBRANCH  10  11
ENDBRANCH   7  10
ENDBRANCH   4   7
ENDBRANCH   1   5
BRANCH   1  14
ATOM     13  O   ALA A   1     -34.783  25.758   2.149  0.00  0.00    -0.273 OA
ATOM     14  N   ALA A   1     -35.243  27.588   3.501  0.00  0.00    -0.297 N 
ATOM     15  C   ALA A   1     -35.313  26.249   3.143  0.00  0.00    +0.241 C 
ATOM     16  H   ALA A   1     -35.704  27.883   4.319  0.00  0.00    +0.150 HD
BRANCH  15  17
ATOM     17  CA  ALA A   1     -36.094  25.424   4.159  0.00  0.00    +0.149 C 
ATOM     18  CB  ALA A   1     -35.955  26.008   5.556  0.00  0.00    +0.031 C 
BRANCH  17  20
ATOM     19  O   UNK A   0     -37.558  23.048   3.360  0.00  0.00    -0.275 OA
ATOM     20  N   ALA A   1     -35.604  24.073   4.106  0.00  0.00    -0.298 N 
ATOM     21  C   UNK A   0     -36.380  22.994   3.709  0.00  0.00    +0.223 C 
ATOM     22  C   UNK A   0     -35.615  21.698   3.720  0.00  0.00    +0.095 C 
ATOM     23  H   ALA A   1     -34.669  23.904   4.364  0.00  0.00    +0.150 HD
ENDBRANCH  17  20
ENDBRANCH  15  17
ENDBRANCH   1  14
TORSDOF 7
ENDMDL
MODEL 8
REMARK VINA RESULT:      -5.3      2.792      6.560
REMARK  Name = 5483957
REMARK  7 active torsions:
REMARK  status: ('A' for Active; 'I' for Inactive)
REMARK    1  A    between atoms: CA_1  and  C_5
REMARK    2  A    between atoms: CA_1  and  N_14
REMARK    3  A    between atoms: N_4  and  CA_7
REMARK    4  A    between atoms: CA_7  and  C_10
REMARK    5  A    between atoms: C_10  and  O_11
REMARK    6  A    between atoms: C_15  and  CA_17
REMARK    7  A    between atoms: CA_17  and  N_20
REMARK                            x       y       z     vdW  Elec       q    Type
REMARK                         _______ _______ _______ _____ _____    ______ ____
ROOT
ATOM      1  CA  ALA A   1     -37.896  25.593   3.479  0.00  0.00    +0.149 C 
ATOM      2  CB  ALA A   1     -39.088  26.042   2.649  0.00  0.00    +0.031 C 
ENDROOT
BRANCH   1   5
ATOM      3  O   ALA A   1     -38.348  23.378   2.603  0.00  0.00    -0.273 OA
ATOM      4  N   ALA A   2     -36.573  23.660   4.072  0.00  0.00    -0.295 N 
ATOM      5  C   ALA A   1     -37.646  24.100   3.309  0.00  0.00    +0.241 C 
ATOM      6  H   ALA A   2     -36.071  24.318   4.605  0.00  0.00    +0.150 HD
BRANCH   4   7
ATOM      7  CA  ALA A   2     -36.163  22.276   4.115  0.00  0.00    +0.171 C 
ATOM      8  CB  ALA A   2     -35.299  21.936   2.911  0.00  0.00    +0.033 C 
BRANCH   7  10
ATOM      9  OXT ALA A   2     -35.077  22.803   6.209  0.00  0.00    -0.248 OA
ATOM     10  C   ALA A   2     -35.427  21.948   5.403  0.00  0.00    +0.332 C 
BRANCH  10  11
ATOM     11  O   ALA A   2     -35.174  20.630   5.592  0.00  0.00    -0.479 OA
ATOM     12  H   ALA A   2     -35.880  20.014   5.599  0.00  0.00    +0.295 HD
ENDBRANCH  10  11
ENDBRANCH   7  10
ENDBRANCH   4   7
ENDBRANCH   1   5
BRANCH   1  14
ATOM     13  O   ALA A   1     -35.803  26.515   5.225  0.00  0.00    -0.273 OA
ATOM     14  N   ALA A   1     -36.693  26.292   3.093  0.00  0.00    -0.297 N 
ATOM     15  C   ALA A   1     -35.735  26.699   4.011  0.00  0.00    +0.241 C 
ATOM     16  H   ALA A   1     -36.546  26.488   2.139  0.00  0.00    +0.150 HD
BRANCH  15  17
ATOM     17  CA  ALA A   1     -34.544  27.371   3.339  0.00  0.00    +0.149 C 
ATOM     18  CB  ALA A   1     -33.240  26.951   3.998  0.00  0.00    +0.031 C 
BRANCH  17  20
ATOM     19  O   UNK A   0     -35.964  29.062   1.455  0.00  0.00    -0.275 OA
ATOM     20  N   ALA A   1     -34.736  28.795   3.415  0.00  0.00    -0.298 N 
ATOM     21  C   UNK A   0     -35.433  29.523   2.463  0.00  0.00    +0.223 C 
ATOM     22  C   UNK A   0     -35.505  30.989   2.798  0.00  0.00    +0.095 C 
ATOM     23  H   ALA A   1     -34.352  29.277   4.183  0.00  0.00    +0.150 HD
ENDBRANCH  17  20
ENDBRANCH  15  17
ENDBRANCH   1  14
TORSDOF 7
ENDMDL
MODEL 9
REMARK VINA RESULT:      -5.3      2.178      6.434
REMARK  Name = 5483957
REMARK  7 active torsions:
REMARK  status: ('A' for Active; 'I' for Inactive)
REMARK    1  A    between atoms: CA_1  and  C_5
REMARK    2  A    between atoms: CA_1  and  N_14
REMARK    3  A    between atoms: N_4  and  CA_7
REMARK    4  A    between atoms: CA_7  and  C_10
REMARK    5  A    between atoms: C_10  and  O_11
REMARK    6  A    between atoms: C_15  and  CA_17
REMARK    7  A    between atoms: CA_17  and  N_20
REMARK                            x       y       z     vdW  Elec       q    Type
REMARK                         _______ _______ _______ _____ _____    ______ ____
ROOT
ATOM      1  CA  ALA A   1     -37.588  25.629   3.369  0.00  0.00    +0.149 C 
ATOM      2  CB  ALA A   1     -38.478  26.135   2.245  0.00  0.00    +0.031 C 
ENDROOT
BRANCH   1   5
ATOM      3  O   ALA A   1     -38.471  23.408   2.960  0.00  0.00    -0.273 OA
ATOM      4  N   ALA A   2     -36.405  23.618   3.998  0.00  0.00    -0.295 N 
ATOM      5  C   ALA A   1     -37.556  24.106   3.394  0.00  0.00    +0.241 C 
ATOM      6  H   ALA A   2     -35.729  24.260   4.313  0.00  0.00    +0.150 HD
BRANCH   4   7
ATOM      7  CA  ALA A   2     -36.160  22.207   4.182  0.00  0.00    +0.171 C 
ATOM      8  CB  ALA A   2     -35.400  21.636   2.994  0.00  0.00    +0.033 C 
BRANCH   7  10
ATOM      9  OXT ALA A   2     -34.933  22.818   6.172  0.00  0.00    -0.248 OA
ATOM     10  C   ALA A   2     -35.408  21.930   5.473  0.00  0.00    +0.332 C 
BRANCH  10  11
ATOM     11  O   ALA A   2     -35.291  20.618   5.791  0.00  0.00    -0.479 OA
ATOM     12  H   ALA A   2     -35.667  19.966   5.233  0.00  0.00    +0.295 HD
ENDBRANCH  10  11
ENDBRANCH   7  10
ENDBRANCH   4   7
ENDBRANCH   1   5
BRANCH   1  14
ATOM     13  O   ALA A   1     -35.799  26.431   5.474  0.00  0.00    -0.273 OA
ATOM     14  N   ALA A   1     -36.231  26.100   3.218  0.00  0.00    -0.297 N 
ATOM     15  C   ALA A   1     -35.441  26.466   4.298  0.00  0.00    +0.241 C 
ATOM     16  H   ALA A   1     -35.851  26.163   2.312  0.00  0.00    +0.150 HD
BRANCH  15  17
ATOM     17  CA  ALA A   1     -34.039  26.879   3.870  0.00  0.00    +0.149 C 
ATOM     18  CB  ALA A   1     -33.333  25.741   3.150  0.00  0.00    +0.031 C 
BRANCH  17  20
ATOM     19  O   UNK A   0     -32.023  28.959   4.071  0.00  0.00    -0.275 OA
ATOM     20  N   ALA A   1     -33.315  27.284   5.045  0.00  0.00    -0.298 N 
ATOM     21  C   UNK A   0     -32.364  28.294   5.047  0.00  0.00    +0.223 C 
ATOM     22  C   UNK A   0     -31.779  28.532   6.413  0.00  0.00    +0.095 C 
ATOM     23  H   ALA A   1     -33.505  26.820   5.893  0.00  0.00    +0.150 HD
ENDBRANCH  17  20
ENDBRANCH  15  17
ENDBRANCH   1  14
TORSDOF 7
ENDMDL
