MODEL 1
REMARK VINA RESULT:      -5.0      0.000      0.000
REMARK  Name = 20107
REMARK  15 active torsions:
REMARK  status: ('A' for Active; 'I' for Inactive)
REMARK    1  A    between atoms: C_1  and  O_2
REMARK    2  A    between atoms: C_1  and  C_4
REMARK    3  A    between atoms: C_1  and  C_18
REMARK    4  A    between atoms: C_4  and  O_5
REMARK    5  A    between atoms: C_4  and  C_7
REMARK    6  A    between atoms: C_7  and  N_8
REMARK    7  A    between atoms: N_8  and  C_11
REMARK    8  A    between atoms: C_11  and  C_12
REMARK    9  A    between atoms: C_12  and  O_13
REMARK   10  A    between atoms: O_13  and  S_14
REMARK   11  A    between atoms: C_18  and  N_19
REMARK   12  A    between atoms: N_19  and  C_22
REMARK   13  A    between atoms: C_22  and  C_23
REMARK   14  A    between atoms: C_23  and  O_24
REMARK   15  A    between atoms: O_24  and  S_25
REMARK                            x       y       z     vdW  Elec       q    Type
REMARK                         _______ _______ _______ _____ _____    ______ ____
ROOT
ATOM      1  C   UNL     1     -41.849  26.795   3.518  0.00  0.00    +0.114 C 
ENDROOT
BRANCH   1   2
ATOM      2  O   UNL     1     -41.231  27.644   4.489  0.00  0.00    -0.384 OA
ATOM      3  H   UNL     1     -40.276  27.476   4.505  0.00  0.00    +0.210 HD
ENDBRANCH   1   2
BRANCH   1   4
ATOM      4  C   UNL     1     -42.813  27.644   2.662  0.00  0.00    +0.114 C 
BRANCH   4   5
ATOM      5  O   UNL     1     -42.378  29.006   2.639  0.00  0.00    -0.384 OA
ATOM      6  H   UNL     1     -42.731  29.444   1.849  0.00  0.00    +0.210 HD
ENDBRANCH   4   5
BRANCH   4   7
ATOM      7  C   UNL     1     -44.263  27.656   3.170  0.00  0.00    -0.049 C 
BRANCH   7   8
ATOM      8  N   UNL     1     -44.402  27.143   4.526  0.00  0.00    +0.387 N 
ATOM      9  H   UNL     1     -43.650  27.517   5.104  0.00  0.00    -0.084 HD
ATOM     10  H   UNL     1     -44.356  26.125   4.496  0.00  0.00    -0.084 HD
BRANCH   8  11
ATOM     11  C   UNL     1     -45.683  27.533   5.100  0.00  0.00    -0.046 C 
BRANCH  11  12
ATOM     12  C   UNL     1     -45.479  28.306   6.394  0.00  0.00    +0.149 C 
BRANCH  12  13
ATOM     13  O   UNL     1     -45.218  29.668   6.076  0.00  0.00    -0.244 OA
BRANCH  13  14
ATOM     14  S   UNL     1     -43.746  30.284   6.420  0.00  0.00    -0.005 S 
ATOM     15  O   UNL     1     -42.774  29.757   5.484  0.00  0.00    -0.072 OA
ATOM     16  O   UNL     1     -43.531  30.249   7.852  0.00  0.00    -0.072 OA
ATOM     17  C   UNL     1     -44.109  31.957   5.956  0.00  0.00    +0.181 C 
ENDBRANCH  13  14
ENDBRANCH  12  13
ENDBRANCH  11  12
ENDBRANCH   8  11
ENDBRANCH   7   8
ENDBRANCH   4   7
ENDBRANCH   1   4
BRANCH   1  18
ATOM     18  C   UNL     1     -40.733  26.093   2.732  0.00  0.00    -0.049 C 
BRANCH  18  19
ATOM     19  N   UNL     1     -39.656  25.621   3.589  0.00  0.00    +0.387 N 
ATOM     20  H   UNL     1     -39.796  24.631   3.787  0.00  0.00    -0.084 HD
ATOM     21  H   UNL     1     -39.668  26.163   4.454  0.00  0.00    -0.084 HD
BRANCH  19  22
ATOM     22  C   UNL     1     -38.361  25.800   2.947  0.00  0.00    -0.046 C 
BRANCH  22  23
ATOM     23  C   UNL     1     -37.492  24.568   3.136  0.00  0.00    +0.149 C 
BRANCH  23  24
ATOM     24  O   UNL     1     -37.140  24.463   4.509  0.00  0.00    -0.244 OA
BRANCH  24  25
ATOM     25  S   UNL     1     -35.733  23.735   4.903  0.00  0.00    -0.005 S 
ATOM     26  O   UNL     1     -35.045  23.330   3.694  0.00  0.00    -0.072 OA
ATOM     27  O   UNL     1     -35.955  22.820   6.003  0.00  0.00    -0.072 OA
ATOM     28  C   UNL     1     -34.924  25.181   5.541  0.00  0.00    +0.181 C 
ENDBRANCH  24  25
ENDBRANCH  23  24
ENDBRANCH  22  23
ENDBRANCH  19  22
ENDBRANCH  18  19
ENDBRANCH   1  18
TORSDOF 15
ENDMDL
MODEL 2
REMARK VINA RESULT:      -4.9      5.390      7.497
REMARK  Name = 20107
REMARK  15 active torsions:
REMARK  status: ('A' for Active; 'I' for Inactive)
REMARK    1  A    between atoms: C_1  and  O_2
REMARK    2  A    between atoms: C_1  and  C_4
REMARK    3  A    between atoms: C_1  and  C_18
REMARK    4  A    between atoms: C_4  and  O_5
REMARK    5  A    between atoms: C_4  and  C_7
REMARK    6  A    between atoms: C_7  and  N_8
REMARK    7  A    between atoms: N_8  and  C_11
REMARK    8  A    between atoms: C_11  and  C_12
REMARK    9  A    between atoms: C_12  and  O_13
REMARK   10  A    between atoms: O_13  and  S_14
REMARK   11  A    between atoms: C_18  and  N_19
REMARK   12  A    between atoms: N_19  and  C_22
REMARK   13  A    between atoms: C_22  and  C_23
REMARK   14  A    between atoms: C_23  and  O_24
REMARK   15  A    between atoms: O_24  and  S_25
REMARK                            x       y       z     vdW  Elec       q    Type
REMARK                         _______ _______ _______ _____ _____    ______ ____
ROOT
ATOM      1  C   UNL     1     -35.914  25.582   4.828  0.00  0.00    +0.114 C 
ENDROOT
BRANCH   1   2
ATOM      2  O   UNL     1     -37.269  25.128   4.896  0.00  0.00    -0.384 OA
ATOM      3  H   UNL     1     -37.769  25.490   4.148  0.00  0.00    +0.210 HD
ENDBRANCH   1   2
BRANCH   1   4
ATOM      4  C   UNL     1     -34.979  24.354   4.871  0.00  0.00    +0.114 C 
BRANCH   4   5
ATOM      5  O   UNL     1     -33.619  24.769   4.725  0.00  0.00    -0.384 OA
ATOM      6  H   UNL     1     -33.578  25.539   4.136  0.00  0.00    +0.210 HD
ENDBRANCH   4   5
BRANCH   4   7
ATOM      7  C   UNL     1     -35.244  23.322   3.765  0.00  0.00    -0.049 C 
BRANCH   7   8
ATOM      8  N   UNL     1     -36.509  22.618   3.924  0.00  0.00    +0.387 N 
ATOM      9  H   UNL     1     -37.184  23.240   4.369  0.00  0.00    -0.084 HD
ATOM     10  H   UNL     1     -36.352  21.791   4.499  0.00  0.00    -0.084 HD
BRANCH   8  11
ATOM     11  C   UNL     1     -37.033  22.193   2.633  0.00  0.00    -0.046 C 
BRANCH  11  12
ATOM     12  C   UNL     1     -38.419  22.773   2.398  0.00  0.00    +0.149 C 
BRANCH  12  13
ATOM     13  O   UNL     1     -38.297  24.170   2.164  0.00  0.00    -0.244 OA
BRANCH  13  14
ATOM     14  S   UNL     1     -39.540  25.144   2.576  0.00  0.00    -0.005 S 
ATOM     15  O   UNL     1     -39.211  26.513   2.236  0.00  0.00    -0.072 OA
ATOM     16  O   UNL     1     -40.028  24.775   3.889  0.00  0.00    -0.072 OA
ATOM     17  C   UNL     1     -40.688  24.535   1.369  0.00  0.00    +0.181 C 
ENDBRANCH  13  14
ENDBRANCH  12  13
ENDBRANCH  11  12
ENDBRANCH   8  11
ENDBRANCH   7   8
ENDBRANCH   4   7
ENDBRANCH   1   4
BRANCH   1  18
ATOM     18  C   UNL     1     -35.775  26.457   3.575  0.00  0.00    -0.049 C 
BRANCH  18  19
ATOM     19  N   UNL     1     -35.069  27.703   3.837  0.00  0.00    +0.387 N 
ATOM     20  H   UNL     1     -34.440  27.569   4.628  0.00  0.00    -0.084 HD
ATOM     21  H   UNL     1     -35.756  28.428   4.046  0.00  0.00    -0.084 HD
BRANCH  19  22
ATOM     22  C   UNL     1     -34.294  28.118   2.676  0.00  0.00    -0.046 C 
BRANCH  22  23
ATOM     23  C   UNL     1     -33.021  28.829   3.106  0.00  0.00    +0.149 C 
BRANCH  23  24
ATOM     24  O   UNL     1     -33.073  29.050   4.509  0.00  0.00    -0.244 OA
BRANCH  24  25
ATOM     25  S   UNL     1     -32.101  28.166   5.478  0.00  0.00    -0.005 S 
ATOM     26  O   UNL     1     -30.897  27.808   4.755  0.00  0.00    -0.072 OA
ATOM     27  O   UNL     1     -32.893  27.181   6.186  0.00  0.00    -0.072 OA
ATOM     28  C   UNL     1     -31.697  29.471   6.611  0.00  0.00    +0.181 C 
ENDBRANCH  24  25
ENDBRANCH  23  24
ENDBRANCH  22  23
ENDBRANCH  19  22
ENDBRANCH  18  19
ENDBRANCH   1  18
TORSDOF 15
ENDMDL
MODEL 3
REMARK VINA RESULT:      -4.9      5.295      8.974
REMARK  Name = 20107
REMARK  15 active torsions:
REMARK  status: ('A' for Active; 'I' for Inactive)
REMARK    1  A    between atoms: C_1  and  O_2
REMARK    2  A    between atoms: C_1  and  C_4
REMARK    3  A    between atoms: C_1  and  C_18
REMARK    4  A    between atoms: C_4  and  O_5
REMARK    5  A    between atoms: C_4  and  C_7
REMARK    6  A    between atoms: C_7  and  N_8
REMARK    7  A    between atoms: N_8  and  C_11
REMARK    8  A    between atoms: C_11  and  C_12
REMARK    9  A    between atoms: C_12  and  O_13
REMARK   10  A    between atoms: O_13  and  S_14
REMARK   11  A    between atoms: C_18  and  N_19
REMARK   12  A    between atoms: N_19  and  C_22
REMARK   13  A    between atoms: C_22  and  C_23
REMARK   14  A    between atoms: C_23  and  O_24
REMARK   15  A    between atoms: O_24  and  S_25
REMARK                            x       y       z     vdW  Elec       q    Type
REMARK                         _______ _______ _______ _____ _____    ______ ____
ROOT
ATOM      1  C   UNL     1     -36.610  25.872   3.229  0.00  0.00    +0.114 C 
ENDROOT
BRANCH   1   2
ATOM      2  O   UNL     1     -35.984  27.158   3.197  0.00  0.00    -0.384 OA
ATOM      3  H   UNL     1     -36.501  27.783   3.730  0.00  0.00    +0.210 HD
ENDBRANCH   1   2
BRANCH   1   4
ATOM      4  C   UNL     1     -36.631  25.369   4.688  0.00  0.00    +0.114 C 
BRANCH   4   5
ATOM      5  O   UNL     1     -36.534  26.474   5.589  0.00  0.00    -0.384 OA
ATOM      6  H   UNL     1     -37.255  27.099   5.412  0.00  0.00    +0.210 HD
ENDBRANCH   4   5
BRANCH   4   7
ATOM      7  C   UNL     1     -35.480  24.414   5.041  0.00  0.00    -0.049 C 
BRANCH   7   8
ATOM      8  N   UNL     1     -35.904  23.270   5.837  0.00  0.00    +0.387 N 
ATOM      9  H   UNL     1     -36.919  23.185   5.788  0.00  0.00    -0.084 HD
ATOM     10  H   UNL     1     -35.605  23.416   6.802  0.00  0.00    -0.084 HD
BRANCH   8  11
ATOM     11  C   UNL     1     -35.298  22.040   5.345  0.00  0.00    -0.046 C 
BRANCH  11  12
ATOM     12  C   UNL     1     -35.390  21.965   3.829  0.00  0.00    +0.149 C 
BRANCH  12  13
ATOM     13  O   UNL     1     -35.440  20.598   3.442  0.00  0.00    -0.244 OA
BRANCH  13  14
ATOM     14  S   UNL     1     -35.273  20.226   1.861  0.00  0.00    -0.005 S 
ATOM     15  O   UNL     1     -36.554  19.811   1.326  0.00  0.00    -0.072 OA
ATOM     16  O   UNL     1     -34.071  19.438   1.675  0.00  0.00    -0.072 OA
ATOM     17  C   UNL     1     -34.945  21.875   1.294  0.00  0.00    +0.181 C 
ENDBRANCH  13  14
ENDBRANCH  12  13
ENDBRANCH  11  12
ENDBRANCH   8  11
ENDBRANCH   7   8
ENDBRANCH   4   7
ENDBRANCH   1   4
BRANCH   1  18
ATOM     18  C   UNL     1     -37.991  26.007   2.571  0.00  0.00    -0.049 C 
BRANCH  18  19
ATOM     19  N   UNL     1     -39.060  26.177   3.544  0.00  0.00    +0.387 N 
ATOM     20  H   UNL     1     -39.195  27.171   3.721  0.00  0.00    -0.084 HD
ATOM     21  H   UNL     1     -38.797  25.693   4.404  0.00  0.00    -0.084 HD
BRANCH  19  22
ATOM     22  C   UNL     1     -40.307  25.605   3.055  0.00  0.00    -0.046 C 
BRANCH  22  23
ATOM     23  C   UNL     1     -40.090  24.901   1.725  0.00  0.00    +0.149 C 
BRANCH  23  24
ATOM     24  O   UNL     1     -40.561  23.564   1.834  0.00  0.00    -0.244 OA
BRANCH  24  25
ATOM     25  S   UNL     1     -39.470  22.350   1.862  0.00  0.00    -0.005 S 
ATOM     26  O   UNL     1     -40.160  21.080   1.759  0.00  0.00    -0.072 OA
ATOM     27  O   UNL     1     -38.487  22.608   2.894  0.00  0.00    -0.072 OA
ATOM     28  C   UNL     1     -38.727  22.703   0.289  0.00  0.00    +0.181 C 
ENDBRANCH  24  25
ENDBRANCH  23  24
ENDBRANCH  22  23
ENDBRANCH  19  22
ENDBRANCH  18  19
ENDBRANCH   1  18
TORSDOF 15
ENDMDL
MODEL 4
REMARK VINA RESULT:      -4.8      6.926      8.671
REMARK  Name = 20107
REMARK  15 active torsions:
REMARK  status: ('A' for Active; 'I' for Inactive)
REMARK    1  A    between atoms: C_1  and  O_2
REMARK    2  A    between atoms: C_1  and  C_4
REMARK    3  A    between atoms: C_1  and  C_18
REMARK    4  A    between atoms: C_4  and  O_5
REMARK    5  A    between atoms: C_4  and  C_7
REMARK    6  A    between atoms: C_7  and  N_8
REMARK    7  A    between atoms: N_8  and  C_11
REMARK    8  A    between atoms: C_11  and  C_12
REMARK    9  A    between atoms: C_12  and  O_13
REMARK   10  A    between atoms: O_13  and  S_14
REMARK   11  A    between atoms: C_18  and  N_19
REMARK   12  A    between atoms: N_19  and  C_22
REMARK   13  A    between atoms: C_22  and  C_23
REMARK   14  A    between atoms: C_23  and  O_24
REMARK   15  A    between atoms: O_24  and  S_25
REMARK                            x       y       z     vdW  Elec       q    Type
REMARK                         _______ _______ _______ _____ _____    ______ ____
ROOT
ATOM      1  C   UNL     1     -36.361  25.186   4.569  0.00  0.00    +0.114 C 
ENDROOT
BRANCH   1   2
ATOM      2  O   UNL     1     -36.677  26.348   5.341  0.00  0.00    -0.384 OA
ATOM      3  H   UNL     1     -37.256  26.932   4.826  0.00  0.00    +0.210 HD
ENDBRANCH   1   2
BRANCH   1   4
ATOM      4  C   UNL     1     -35.430  25.602   3.410  0.00  0.00    +0.114 C 
BRANCH   4   5
ATOM      5  O   UNL     1     -34.070  25.599   3.848  0.00  0.00    -0.384 OA
ATOM      6  H   UNL     1     -33.765  26.512   3.962  0.00  0.00    +0.210 HD
ENDBRANCH   4   5
BRANCH   4   7
ATOM      7  C   UNL     1     -35.707  27.006   2.852  0.00  0.00    -0.049 C 
BRANCH   7   8
ATOM      8  N   UNL     1     -35.021  28.063   3.583  0.00  0.00    +0.387 N 
ATOM      9  H   UNL     1     -34.344  27.643   4.220  0.00  0.00    -0.084 HD
ATOM     10  H   UNL     1     -35.714  28.601   4.104  0.00  0.00    -0.084 HD
BRANCH   8  11
ATOM     11  C   UNL     1     -34.326  28.960   2.671  0.00  0.00    -0.046 C 
BRANCH  11  12
ATOM     12  C   UNL     1     -32.912  29.234   3.160  0.00  0.00    +0.149 C 
BRANCH  12  13
ATOM     13  O   UNL     1     -32.935  29.359   4.576  0.00  0.00    -0.244 OA
BRANCH  13  14
ATOM     14  S   UNL     1     -32.132  28.255   5.472  0.00  0.00    -0.005 S 
ATOM     15  O   UNL     1     -30.932  27.848   4.771  0.00  0.00    -0.072 OA
ATOM     16  O   UNL     1     -33.073  27.293   6.008  0.00  0.00    -0.072 OA
ATOM     17  C   UNL     1     -31.661  29.356   6.781  0.00  0.00    +0.181 C 
ENDBRANCH  13  14
ENDBRANCH  12  13
ENDBRANCH  11  12
ENDBRANCH   8  11
ENDBRANCH   7   8
ENDBRANCH   4   7
ENDBRANCH   1   4
BRANCH   1  18
ATOM     18  C   UNL     1     -35.777  24.134   5.522  0.00  0.00    -0.049 C 
BRANCH  18  19
ATOM     19  N   UNL     1     -36.277  22.794   5.249  0.00  0.00    +0.387 N 
ATOM     20  H   UNL     1     -37.084  22.858   4.630  0.00  0.00    -0.084 HD
ATOM     21  H   UNL     1     -36.538  22.358   6.134  0.00  0.00    -0.084 HD
BRANCH  19  22
ATOM     22  C   UNL     1     -35.253  21.975   4.614  0.00  0.00    -0.046 C 
BRANCH  22  23
ATOM     23  C   UNL     1     -35.702  21.529   3.232  0.00  0.00    +0.149 C 
BRANCH  23  24
ATOM     24  O   UNL     1     -35.141  20.252   2.959  0.00  0.00    -0.244 OA
BRANCH  24  25
ATOM     25  S   UNL     1     -34.460  19.993   1.498  0.00  0.00    -0.005 S 
ATOM     26  O   UNL     1     -33.582  18.842   1.573  0.00  0.00    -0.072 OA
ATOM     27  O   UNL     1     -34.024  21.255   0.938  0.00  0.00    -0.072 OA
ATOM     28  C   UNL     1     -35.946  19.500   0.662  0.00  0.00    +0.181 C 
ENDBRANCH  24  25
ENDBRANCH  23  24
ENDBRANCH  22  23
ENDBRANCH  19  22
ENDBRANCH  18  19
ENDBRANCH   1  18
TORSDOF 15
ENDMDL
MODEL 5
REMARK VINA RESULT:      -4.8      6.091      7.538
REMARK  Name = 20107
REMARK  15 active torsions:
REMARK  status: ('A' for Active; 'I' for Inactive)
REMARK    1  A    between atoms: C_1  and  O_2
REMARK    2  A    between atoms: C_1  and  C_4
REMARK    3  A    between atoms: C_1  and  C_18
REMARK    4  A    between atoms: C_4  and  O_5
REMARK    5  A    between atoms: C_4  and  C_7
REMARK    6  A    between atoms: C_7  and  N_8
REMARK    7  A    between atoms: N_8  and  C_11
REMARK    8  A    between atoms: C_11  and  C_12
REMARK    9  A    between atoms: C_12  and  O_13
REMARK   10  A    between atoms: O_13  and  S_14
REMARK   11  A    between atoms: C_18  and  N_19
REMARK   12  A    between atoms: N_19  and  C_22
REMARK   13  A    between atoms: C_22  and  C_23
REMARK   14  A    between atoms: C_23  and  O_24
REMARK   15  A    between atoms: O_24  and  S_25
REMARK                            x       y       z     vdW  Elec       q    Type
REMARK                         _______ _______ _______ _____ _____    ______ ____
ROOT
ATOM      1  C   UNL     1     -39.954  21.996   1.443  0.00  0.00    +0.114 C 
ENDROOT
BRANCH   1   2
ATOM      2  O   UNL     1     -40.260  20.989   2.411  0.00  0.00    -0.384 OA
ATOM      3  H   UNL     1     -40.970  20.421   2.075  0.00  0.00    +0.210 HD
ENDBRANCH   1   2
BRANCH   1   4
ATOM      4  C   UNL     1     -38.980  23.012   2.077  0.00  0.00    +0.114 C 
BRANCH   4   5
ATOM      5  O   UNL     1     -38.065  22.337   2.944  0.00  0.00    -0.384 OA
ATOM      6  H   UNL     1     -38.061  22.773   3.810  0.00  0.00    +0.210 HD
ENDBRANCH   4   5
BRANCH   4   7
ATOM      7  C   UNL     1     -39.664  24.098   2.920  0.00  0.00    -0.049 C 
BRANCH   7   8
ATOM      8  N   UNL     1     -38.730  24.886   3.713  0.00  0.00    +0.387 N 
ATOM      9  H   UNL     1     -37.994  24.275   4.067  0.00  0.00    -0.084 HD
ATOM     10  H   UNL     1     -39.239  25.315   4.486  0.00  0.00    -0.084 HD
BRANCH   8  11
ATOM     11  C   UNL     1     -38.128  25.942   2.910  0.00  0.00    -0.046 C 
BRANCH  11  12
ATOM     12  C   UNL     1     -36.632  26.029   3.171  0.00  0.00    +0.149 C 
BRANCH  12  13
ATOM     13  O   UNL     1     -36.114  24.712   3.303  0.00  0.00    -0.244 OA
BRANCH  13  14
ATOM     14  S   UNL     1     -35.516  24.249   4.750  0.00  0.00    -0.005 S 
ATOM     15  O   UNL     1     -34.081  24.078   4.645  0.00  0.00    -0.072 OA
ATOM     16  O   UNL     1     -36.371  23.228   5.321  0.00  0.00    -0.072 OA
ATOM     17  C   UNL     1     -35.830  25.773   5.601  0.00  0.00    +0.181 C 
ENDBRANCH  13  14
ENDBRANCH  12  13
ENDBRANCH  11  12
ENDBRANCH   8  11
ENDBRANCH   7   8
ENDBRANCH   4   7
ENDBRANCH   1   4
BRANCH   1  18
ATOM     18  C   UNL     1     -39.427  21.292   0.185  0.00  0.00    -0.049 C 
BRANCH  18  19
ATOM     19  N   UNL     1     -38.553  20.170   0.496  0.00  0.00    +0.387 N 
ATOM     20  H   UNL     1     -39.122  19.372   0.777  0.00  0.00    -0.084 HD
ATOM     21  H   UNL     1     -37.926  20.446   1.253  0.00  0.00    -0.084 HD
BRANCH  19  22
ATOM     22  C   UNL     1     -37.749  19.798  -0.660  0.00  0.00    -0.046 C 
BRANCH  22  23
ATOM     23  C   UNL     1     -36.398  20.495  -0.620  0.00  0.00    +0.149 C 
BRANCH  23  24
ATOM     24  O   UNL     1     -35.471  19.656   0.056  0.00  0.00    -0.244 OA
BRANCH  24  25
ATOM     25  S   UNL     1     -34.999  20.067   1.563  0.00  0.00    -0.005 S 
ATOM     26  O   UNL     1     -33.773  19.368   1.892  0.00  0.00    -0.072 OA
ATOM     27  O   UNL     1     -36.146  20.061   2.446  0.00  0.00    -0.072 OA
ATOM     28  C   UNL     1     -34.589  21.756   1.198  0.00  0.00    +0.181 C 
ENDBRANCH  24  25
ENDBRANCH  23  24
ENDBRANCH  22  23
ENDBRANCH  19  22
ENDBRANCH  18  19
ENDBRANCH   1  18
TORSDOF 15
ENDMDL
MODEL 6
REMARK VINA RESULT:      -4.7      4.184      7.126
REMARK  Name = 20107
REMARK  15 active torsions:
REMARK  status: ('A' for Active; 'I' for Inactive)
REMARK    1  A    between atoms: C_1  and  O_2
REMARK    2  A    between atoms: C_1  and  C_4
REMARK    3  A    between atoms: C_1  and  C_18
REMARK    4  A    between atoms: C_4  and  O_5
REMARK    5  A    between atoms: C_4  and  C_7
REMARK    6  A    between atoms: C_7  and  N_8
REMARK    7  A    between atoms: N_8  and  C_11
REMARK    8  A    between atoms: C_11  and  C_12
REMARK    9  A    between atoms: C_12  and  O_13
REMARK   10  A    between atoms: O_13  and  S_14
REMARK   11  A    between atoms: C_18  and  N_19
REMARK   12  A    between atoms: N_19  and  C_22
REMARK   13  A    between atoms: C_22  and  C_23
REMARK   14  A    between atoms: C_23  and  O_24
REMARK   15  A    between atoms: O_24  and  S_25
REMARK                            x       y       z     vdW  Elec       q    Type
REMARK                         _______ _______ _______ _____ _____    ______ ____
ROOT
ATOM      1  C   UNL     1     -36.323  22.239   2.864  0.00  0.00    +0.114 C 
ENDROOT
BRANCH   1   2
ATOM      2  O   UNL     1     -37.749  22.166   2.950  0.00  0.00    -0.384 OA
ATOM      3  H   UNL     1     -38.061  21.374   2.484  0.00  0.00    +0.210 HD
ENDBRANCH   1   2
BRANCH   1   4
ATOM      4  C   UNL     1     -35.793  23.014   4.090  0.00  0.00    +0.114 C 
BRANCH   4   5
ATOM      5  O   UNL     1     -36.380  22.497   5.287  0.00  0.00    -0.384 OA
ATOM      6  H   UNL     1     -35.718  22.498   5.996  0.00  0.00    +0.210 HD
ENDBRANCH   4   5
BRANCH   4   7
ATOM      7  C   UNL     1     -36.103  24.519   4.065  0.00  0.00    -0.049 C 
BRANCH   7   8
ATOM      8  N   UNL     1     -37.500  24.825   4.340  0.00  0.00    +0.387 N 
ATOM      9  H   UNL     1     -37.560  25.366   5.202  0.00  0.00    -0.084 HD
ATOM     10  H   UNL     1     -38.013  23.948   4.432  0.00  0.00    -0.084 HD
BRANCH   8  11
ATOM     11  C   UNL     1     -38.088  25.594   3.252  0.00  0.00    -0.046 C 
BRANCH  11  12
ATOM     12  C   UNL     1     -39.568  25.277   3.108  0.00  0.00    +0.149 C 
BRANCH  12  13
ATOM     13  O   UNL     1     -40.306  26.488   3.203  0.00  0.00    -0.244 OA
BRANCH  13  14
ATOM     14  S   UNL     1     -41.640  26.667   2.278  0.00  0.00    -0.005 S 
ATOM     15  O   UNL     1     -41.933  25.415   1.611  0.00  0.00    -0.072 OA
ATOM     16  O   UNL     1     -41.563  27.922   1.558  0.00  0.00    -0.072 OA
ATOM     17  C   UNL     1     -42.792  26.865   3.612  0.00  0.00    +0.181 C 
ENDBRANCH  13  14
ENDBRANCH  12  13
ENDBRANCH  11  12
ENDBRANCH   8  11
ENDBRANCH   7   8
ENDBRANCH   4   7
ENDBRANCH   1   4
BRANCH   1  18
ATOM     18  C   UNL     1     -35.788  20.807   2.724  0.00  0.00    -0.049 C 
BRANCH  18  19
ATOM     19  N   UNL     1     -36.787  19.885   2.204  0.00  0.00    +0.387 N 
ATOM     20  H   UNL     1     -37.711  20.304   2.302  0.00  0.00    -0.084 HD
ATOM     21  H   UNL     1     -36.732  19.013   2.733  0.00  0.00    -0.084 HD
BRANCH  19  22
ATOM     22  C   UNL     1     -36.543  19.590   0.798  0.00  0.00    -0.046 C 
BRANCH  22  23
ATOM     23  C   UNL     1     -37.810  19.784  -0.018  0.00  0.00    +0.149 C 
BRANCH  23  24
ATOM     24  O   UNL     1     -38.366  21.055   0.293  0.00  0.00    -0.244 OA
BRANCH  24  25
ATOM     25  S   UNL     1     -39.980  21.173   0.505  0.00  0.00    -0.005 S 
ATOM     26  O   UNL     1     -40.284  21.140   1.921  0.00  0.00    -0.072 OA
ATOM     27  O   UNL     1     -40.655  20.316  -0.447  0.00  0.00    -0.072 OA
ATOM     28  C   UNL     1     -40.138  22.851  -0.054  0.00  0.00    +0.181 C 
ENDBRANCH  24  25
ENDBRANCH  23  24
ENDBRANCH  22  23
ENDBRANCH  19  22
ENDBRANCH  18  19
ENDBRANCH   1  18
TORSDOF 15
ENDMDL
MODEL 7
REMARK VINA RESULT:      -4.7      6.673     11.351
REMARK  Name = 20107
REMARK  15 active torsions:
REMARK  status: ('A' for Active; 'I' for Inactive)
REMARK    1  A    between atoms: C_1  and  O_2
REMARK    2  A    between atoms: C_1  and  C_4
REMARK    3  A    between atoms: C_1  and  C_18
REMARK    4  A    between atoms: C_4  and  O_5
REMARK    5  A    between atoms: C_4  and  C_7
REMARK    6  A    between atoms: C_7  and  N_8
REMARK    7  A    between atoms: N_8  and  C_11
REMARK    8  A    between atoms: C_11  and  C_12
REMARK    9  A    between atoms: C_12  and  O_13
REMARK   10  A    between atoms: O_13  and  S_14
REMARK   11  A    between atoms: C_18  and  N_19
REMARK   12  A    between atoms: N_19  and  C_22
REMARK   13  A    between atoms: C_22  and  C_23
REMARK   14  A    between atoms: C_23  and  O_24
REMARK   15  A    between atoms: O_24  and  S_25
REMARK                            x       y       z     vdW  Elec       q    Type
REMARK                         _______ _______ _______ _____ _____    ______ ____
ROOT
ATOM      1  C   UNL     1     -35.832  21.824   3.047  0.00  0.00    +0.114 C 
ENDROOT
BRANCH   1   2
ATOM      2  O   UNL     1     -35.671  20.587   3.749  0.00  0.00    -0.384 OA
ATOM      3  H   UNL     1     -36.543  20.239   3.994  0.00  0.00    +0.210 HD
ENDBRANCH   1   2
BRANCH   1   4
ATOM      4  C   UNL     1     -36.892  21.630   1.942  0.00  0.00    +0.114 C 
BRANCH   4   5
ATOM      5  O   UNL     1     -38.038  20.961   2.473  0.00  0.00    -0.384 OA
ATOM      6  H   UNL     1     -38.342  21.425   3.269  0.00  0.00    +0.210 HD
ENDBRANCH   4   5
BRANCH   4   7
ATOM      7  C   UNL     1     -36.410  20.791   0.748  0.00  0.00    -0.049 C 
BRANCH   7   8
ATOM      8  N   UNL     1     -36.231  19.382   1.068  0.00  0.00    +0.387 N 
ATOM      9  H   UNL     1     -37.057  18.863   0.771  0.00  0.00    -0.084 HD
ATOM     10  H   UNL     1     -36.096  19.291   2.075  0.00  0.00    -0.084 HD
BRANCH   8  11
ATOM     11  C   UNL     1     -35.059  18.840   0.393  0.00  0.00    -0.046 C 
BRANCH  11  12
ATOM     12  C   UNL     1     -33.782  19.323   1.062  0.00  0.00    +0.149 C 
BRANCH  12  13
ATOM     13  O   UNL     1     -33.026  18.192   1.474  0.00  0.00    -0.244 OA
BRANCH  13  14
ATOM     14  S   UNL     1     -31.672  17.810   0.644  0.00  0.00    -0.005 S 
ATOM     15  O   UNL     1     -30.605  17.511   1.576  0.00  0.00    -0.072 OA
ATOM     16  O   UNL     1     -31.498  18.745  -0.450  0.00  0.00    -0.072 OA
ATOM     17  C   UNL     1     -32.266  16.279  -0.027  0.00  0.00    +0.181 C 
ENDBRANCH  13  14
ENDBRANCH  12  13
ENDBRANCH  11  12
ENDBRANCH   8  11
ENDBRANCH   7   8
ENDBRANCH   4   7
ENDBRANCH   1   4
BRANCH   1  18
ATOM     18  C   UNL     1     -36.166  22.909   4.080  0.00  0.00    -0.049 C 
BRANCH  18  19
ATOM     19  N   UNL     1     -37.349  23.678   3.721  0.00  0.00    +0.387 N 
ATOM     20  H   UNL     1     -38.147  23.328   4.249  0.00  0.00    -0.084 HD
ATOM     21  H   UNL     1     -37.511  23.576   2.718  0.00  0.00    -0.084 HD
BRANCH  19  22
ATOM     22  C   UNL     1     -37.162  25.091   4.019  0.00  0.00    -0.046 C 
BRANCH  22  23
ATOM     23  C   UNL     1     -36.261  25.271   5.230  0.00  0.00    +0.149 C 
BRANCH  23  24
ATOM     24  O   UNL     1     -35.496  26.457   5.059  0.00  0.00    -0.244 OA
BRANCH  24  25
ATOM     25  S   UNL     1     -33.868  26.347   5.072  0.00  0.00    -0.005 S 
ATOM     26  O   UNL     1     -33.471  25.017   4.654  0.00  0.00    -0.072 OA
ATOM     27  O   UNL     1     -33.353  26.958   6.280  0.00  0.00    -0.072 OA
ATOM     28  C   UNL     1     -33.575  27.460   3.721  0.00  0.00    +0.181 C 
ENDBRANCH  24  25
ENDBRANCH  23  24
ENDBRANCH  22  23
ENDBRANCH  19  22
ENDBRANCH  18  19
ENDBRANCH   1  18
TORSDOF 15
ENDMDL
MODEL 8
REMARK VINA RESULT:      -4.7      2.706      8.289
REMARK  Name = 20107
REMARK  15 active torsions:
REMARK  status: ('A' for Active; 'I' for Inactive)
REMARK    1  A    between atoms: C_1  and  O_2
REMARK    2  A    between atoms: C_1  and  C_4
REMARK    3  A    between atoms: C_1  and  C_18
REMARK    4  A    between atoms: C_4  and  O_5
REMARK    5  A    between atoms: C_4  and  C_7
REMARK    6  A    between atoms: C_7  and  N_8
REMARK    7  A    between atoms: N_8  and  C_11
REMARK    8  A    between atoms: C_11  and  C_12
REMARK    9  A    between atoms: C_12  and  O_13
REMARK   10  A    between atoms: O_13  and  S_14
REMARK   11  A    between atoms: C_18  and  N_19
REMARK   12  A    between atoms: N_19  and  C_22
REMARK   13  A    between atoms: C_22  and  C_23
REMARK   14  A    between atoms: C_23  and  O_24
REMARK   15  A    between atoms: O_24  and  S_25
REMARK                            x       y       z     vdW  Elec       q    Type
REMARK                         _______ _______ _______ _____ _____    ______ ____
ROOT
ATOM      1  C   UNL     1     -38.855  25.111   2.735  0.00  0.00    +0.114 C 
ENDROOT
BRANCH   1   2
ATOM      2  O   UNL     1     -39.486  24.893   4.000  0.00  0.00    -0.384 OA
ATOM      3  H   UNL     1     -39.932  24.031   3.995  0.00  0.00    +0.210 HD
ENDBRANCH   1   2
BRANCH   1   4
ATOM      4  C   UNL     1     -37.458  24.455   2.760  0.00  0.00    +0.114 C 
BRANCH   4   5
ATOM      5  O   UNL     1     -37.464  23.324   3.633  0.00  0.00    -0.384 OA
ATOM      6  H   UNL     1     -37.919  23.555   4.458  0.00  0.00    +0.210 HD
ENDBRANCH   4   5
BRANCH   4   7
ATOM      7  C   UNL     1     -36.336  25.382   3.250  0.00  0.00    -0.049 C 
BRANCH   7   8
ATOM      8  N   UNL     1     -36.745  26.257   4.340  0.00  0.00    +0.387 N 
ATOM      9  H   UNL     1     -37.760  26.218   4.436  0.00  0.00    -0.084 HD
ATOM     10  H   UNL     1     -36.443  27.207   4.126  0.00  0.00    -0.084 HD
BRANCH   8  11
ATOM     11  C   UNL     1     -36.131  25.846   5.595  0.00  0.00    -0.046 C 
BRANCH  11  12
ATOM     12  C   UNL     1     -34.666  25.495   5.387  0.00  0.00    +0.149 C 
BRANCH  12  13
ATOM     13  O   UNL     1     -33.884  26.668   5.568  0.00  0.00    -0.244 OA
BRANCH  13  14
ATOM     14  S   UNL     1     -33.245  27.394   4.253  0.00  0.00    -0.005 S 
ATOM     15  O   UNL     1     -34.235  28.267   3.656  0.00  0.00    -0.072 OA
ATOM     16  O   UNL     1     -32.512  26.417   3.472  0.00  0.00    -0.072 OA
ATOM     17  C   UNL     1     -32.071  28.401   5.122  0.00  0.00    +0.181 C 
ENDBRANCH  13  14
ENDBRANCH  12  13
ENDBRANCH  11  12
ENDBRANCH   8  11
ENDBRANCH   7   8
ENDBRANCH   4   7
ENDBRANCH   1   4
BRANCH   1  18
ATOM     18  C   UNL     1     -39.798  24.584   1.644  0.00  0.00    -0.049 C 
BRANCH  18  19
ATOM     19  N   UNL     1     -41.102  25.231   1.671  0.00  0.00    +0.387 N 
ATOM     20  H   UNL     1     -41.341  25.459   2.635  0.00  0.00    -0.084 HD
ATOM     21  H   UNL     1     -41.791  24.592   1.273  0.00  0.00    -0.084 HD
BRANCH  19  22
ATOM     22  C   UNL     1     -41.094  26.454   0.880  0.00  0.00    -0.046 C 
BRANCH  22  23
ATOM     23  C   UNL     1     -42.259  27.351   1.266  0.00  0.00    +0.149 C 
BRANCH  23  24
ATOM     24  O   UNL     1     -41.850  28.197   2.333  0.00  0.00    -0.244 OA
BRANCH  24  25
ATOM     25  S   UNL     1     -42.371  27.859   3.843  0.00  0.00    -0.005 S 
ATOM     26  O   UNL     1     -42.101  28.989   4.710  0.00  0.00    -0.072 OA
ATOM     27  O   UNL     1     -41.983  26.510   4.197  0.00  0.00    -0.072 OA
ATOM     28  C   UNL     1     -44.106  27.855   3.466  0.00  0.00    +0.181 C 
ENDBRANCH  24  25
ENDBRANCH  23  24
ENDBRANCH  22  23
ENDBRANCH  19  22
ENDBRANCH  18  19
ENDBRANCH   1  18
TORSDOF 15
ENDMDL
MODEL 9
REMARK VINA RESULT:      -4.7      5.980      8.324
REMARK  Name = 20107
REMARK  15 active torsions:
REMARK  status: ('A' for Active; 'I' for Inactive)
REMARK    1  A    between atoms: C_1  and  O_2
REMARK    2  A    between atoms: C_1  and  C_4
REMARK    3  A    between atoms: C_1  and  C_18
REMARK    4  A    between atoms: C_4  and  O_5
REMARK    5  A    between atoms: C_4  and  C_7
REMARK    6  A    between atoms: C_7  and  N_8
REMARK    7  A    between atoms: N_8  and  C_11
REMARK    8  A    between atoms: C_11  and  C_12
REMARK    9  A    between atoms: C_12  and  O_13
REMARK   10  A    between atoms: O_13  and  S_14
REMARK   11  A    between atoms: C_18  and  N_19
REMARK   12  A    between atoms: N_19  and  C_22
REMARK   13  A    between atoms: C_22  and  C_23
REMARK   14  A    between atoms: C_23  and  O_24
REMARK   15  A    between atoms: O_24  and  S_25
REMARK                            x       y       z     vdW  Elec       q    Type
REMARK                         _______ _______ _______ _____ _____    ______ ____
ROOT
ATOM      1  C   UNL     1     -34.197  26.157   4.541  0.00  0.00    +0.114 C 
ENDROOT
BRANCH   1   2
ATOM      2  O   UNL     1     -33.851  26.885   5.723  0.00  0.00    -0.384 OA
ATOM      3  H   UNL     1     -33.193  26.384   6.230  0.00  0.00    +0.210 HD
ENDBRANCH   1   2
BRANCH   1   4
ATOM      4  C   UNL     1     -35.609  25.559   4.725  0.00  0.00    +0.114 C 
BRANCH   4   5
ATOM      5  O   UNL     1     -36.478  26.528   5.315  0.00  0.00    -0.384 OA
ATOM      6  H   UNL     1     -36.171  26.734   6.211  0.00  0.00    +0.210 HD
ENDBRANCH   4   5
BRANCH   4   7
ATOM      7  C   UNL     1     -35.654  24.320   5.632  0.00  0.00    -0.049 C 
BRANCH   7   8
ATOM      8  N   UNL     1     -36.255  23.158   4.992  0.00  0.00    +0.387 N 
ATOM      9  H   UNL     1     -37.235  23.357   4.792  0.00  0.00    -0.084 HD
ATOM     10  H   UNL     1     -36.175  22.360   5.623  0.00  0.00    -0.084 HD
BRANCH   8  11
ATOM     11  C   UNL     1     -35.570  22.837   3.748  0.00  0.00    -0.046 C 
BRANCH  11  12
ATOM     12  C   UNL     1     -36.549  22.286   2.722  0.00  0.00    +0.149 C 
BRANCH  12  13
ATOM     13  O   UNL     1     -37.869  22.637   3.115  0.00  0.00    -0.244 OA
BRANCH  13  14
ATOM     14  S   UNL     1     -38.454  24.098   2.680  0.00  0.00    -0.005 S 
ATOM     15  O   UNL     1     -37.606  24.668   1.653  0.00  0.00    -0.072 OA
ATOM     16  O   UNL     1     -38.828  24.841   3.867  0.00  0.00    -0.072 OA
ATOM     17  C   UNL     1     -39.936  23.506   1.908  0.00  0.00    +0.181 C 
ENDBRANCH  13  14
ENDBRANCH  12  13
ENDBRANCH  11  12
ENDBRANCH   8  11
ENDBRANCH   7   8
ENDBRANCH   4   7
ENDBRANCH   1   4
BRANCH   1  18
ATOM     18  C   UNL     1     -34.049  27.107   3.345  0.00  0.00    -0.049 C 
BRANCH  18  19
ATOM     19  N   UNL     1     -34.215  28.505   3.716  0.00  0.00    +0.387 N 
ATOM     20  H   UNL     1     -34.067  28.603   4.720  0.00  0.00    -0.084 HD
ATOM     21  H   UNL     1     -35.160  28.798   3.464  0.00  0.00    -0.084 HD
BRANCH  19  22
ATOM     22  C   UNL     1     -33.263  29.350   3.009  0.00  0.00    -0.046 C 
BRANCH  22  23
ATOM     23  C   UNL     1     -32.489  30.221   3.985  0.00  0.00    +0.149 C 
BRANCH  23  24
ATOM     24  O   UNL     1     -32.703  29.732   5.303  0.00  0.00    -0.244 OA
BRANCH  24  25
ATOM     25  S   UNL     1     -31.412  29.252   6.179  0.00  0.00    -0.005 S 
ATOM     26  O   UNL     1     -31.096  27.875   5.855  0.00  0.00    -0.072 OA
ATOM     27  O   UNL     1     -31.562  29.705   7.546  0.00  0.00    -0.072 OA
ATOM     28  C   UNL     1     -30.220  30.295   5.377  0.00  0.00    +0.181 C 
ENDBRANCH  24  25
ENDBRANCH  23  24
ENDBRANCH  22  23
ENDBRANCH  19  22
ENDBRANCH  18  19
ENDBRANCH   1  18
TORSDOF 15
ENDMDL
