MODEL 1
REMARK VINA RESULT:      -5.5      0.000      0.000
REMARK  Name = 5281471
REMARK  9 active torsions:
REMARK  status: ('A' for Active; 'I' for Inactive)
REMARK    1  A    between atoms: C_4  and  O_18
REMARK    2  A    between atoms: C_12  and  O_29
REMARK    3  A    between atoms: O_18  and  C_20
REMARK    4  A    between atoms: C_20  and  C_21
REMARK    5  A    between atoms: C_21  and  C_23
REMARK    6  A    between atoms: C_22  and  C_26
REMARK    7  A    between atoms: C_23  and  O_24
REMARK    8  A    between atoms: C_26  and  O_27
REMARK    9  A    between atoms: O_29  and  C_31
REMARK                            x       y       z     vdW  Elec       q    Type
REMARK                         _______ _______ _______ _____ _____    ______ ____
ROOT
ATOM      1  O   UNL     1     -35.984  20.517   2.685  0.00  0.00    -0.444 OA
ATOM      2  O   UNL     1     -36.274  22.151   4.272  0.00  0.00    -0.245 OA
ATOM      3  C   UNL     1     -35.056  21.809   0.891  0.00  0.00    +0.113 C 
ATOM      4  C   UNL     1     -36.042  22.309  -0.199  0.00  0.00    +0.181 C 
ATOM      5  C   UNL     1     -35.314  20.382   1.412  0.00  0.00    +0.198 C 
ATOM      6  C   UNL     1     -35.690  21.858  -1.639  0.00  0.00    +0.066 C 
ATOM      7  C   UNL     1     -35.201  22.590   2.158  0.00  0.00    +0.060 C 
ATOM      8  C   UNL     1     -34.038  19.599   1.628  0.00  0.00    +0.012 C 
ATOM      9  C   UNL     1     -35.576  20.360  -1.829  0.00  0.00    -0.044 C 
ATOM     10  C   UNL     1     -33.589  18.506   0.972  0.00  0.00    -0.005 C 
ATOM     11  C   UNL     1     -35.876  21.778   3.183  0.00  0.00    +0.338 C 
ATOM     12  C   UNL     1     -34.298  17.734  -0.133  0.00  0.00    +0.191 C 
ATOM     13  C   UNL     1     -34.095  18.293  -1.560  0.00  0.00    +0.073 C 
ATOM     14  C   UNL     1     -34.379  19.765  -1.657  0.00  0.00    -0.030 C 
ATOM     15  C   UNL     1     -34.764  23.826   2.416  0.00  0.00    +0.002 C 
ATOM     16  C   UNL     1     -36.857  19.638  -2.137  0.00  0.00    +0.026 C 
ATOM     17  C   UNL     1     -32.232  17.945   1.329  0.00  0.00    +0.030 C 
ENDROOT
BRANCH   4  18
ATOM     18  O   UNL     1     -37.380  21.933   0.123  0.00  0.00    -0.449 OA
BRANCH  18  20
ATOM     19  O   UNL     1     -38.663  23.515  -0.951  0.00  0.00    -0.245 OA
ATOM     20  C   UNL     1     -38.308  22.930   0.063  0.00  0.00    +0.339 C 
BRANCH  20  21
ATOM     21  C   UNL     1     -38.842  23.208   1.432  0.00  0.00    +0.081 C 
ATOM     22  C   UNL     1     -38.486  24.389   1.970  0.00  0.00    +0.010 C 
BRANCH  21  23
ATOM     23  C   UNL     1     -39.666  22.154   2.117  0.00  0.00    +0.170 C 
BRANCH  23  24
ATOM     24  O   UNL     1     -38.914  20.950   2.198  0.00  0.00    -0.377 OA
ATOM     25  H   UNL     1     -37.971  21.150   2.087  0.00  0.00    +0.211 HD
ENDBRANCH  23  24
ENDBRANCH  21  23
BRANCH  22  26
ATOM     26  C   UNL     1     -38.884  24.930   3.307  0.00  0.00    +0.163 C 
BRANCH  26  27
ATOM     27  O   UNL     1     -37.838  24.668   4.233  0.00  0.00    -0.377 OA
ATOM     28  H   UNL     1     -38.179  24.750   5.137  0.00  0.00    +0.211 HD
ENDBRANCH  26  27
ENDBRANCH  22  26
ENDBRANCH  20  21
ENDBRANCH  18  20
ENDBRANCH   4  18
BRANCH  12  29
ATOM     29  O   UNL     1     -35.686  17.591   0.159  0.00  0.00    -0.448 OA
BRANCH  29  31
ATOM     30  O   UNL     1     -35.599  15.288  -0.006  0.00  0.00    -0.250 OA
ATOM     31  C   UNL     1     -36.209  16.348  -0.054  0.00  0.00    +0.318 C 
ATOM     32  C   UNL     1     -37.672  16.460  -0.364  0.00  0.00    +0.121 C 
ENDBRANCH  29  31
ENDBRANCH  12  29
TORSDOF 9
ENDMDL
MODEL 2
REMARK VINA RESULT:      -5.5      3.250      7.281
REMARK  Name = 5281471
REMARK  9 active torsions:
REMARK  status: ('A' for Active; 'I' for Inactive)
REMARK    1  A    between atoms: C_4  and  O_18
REMARK    2  A    between atoms: C_12  and  O_29
REMARK    3  A    between atoms: O_18  and  C_20
REMARK    4  A    between atoms: C_20  and  C_21
REMARK    5  A    between atoms: C_21  and  C_23
REMARK    6  A    between atoms: C_22  and  C_26
REMARK    7  A    between atoms: C_23  and  O_24
REMARK    8  A    between atoms: C_26  and  O_27
REMARK    9  A    between atoms: O_29  and  C_31
REMARK                            x       y       z     vdW  Elec       q    Type
REMARK                         _______ _______ _______ _____ _____    ______ ____
ROOT
ATOM      1  O   UNL     1     -35.304  25.175   0.776  0.00  0.00    -0.444 OA
ATOM      2  O   UNL     1     -35.702  23.710  -0.947  0.00  0.00    -0.245 OA
ATOM      3  C   UNL     1     -34.702  23.645   2.521  0.00  0.00    +0.113 C 
ATOM      4  C   UNL     1     -35.827  23.223   3.505  0.00  0.00    +0.181 C 
ATOM      5  C   UNL     1     -34.717  25.126   2.096  0.00  0.00    +0.198 C 
ATOM      6  C   UNL     1     -35.522  23.521   4.994  0.00  0.00    +0.066 C 
ATOM      7  C   UNL     1     -34.861  22.980   1.191  0.00  0.00    +0.060 C 
ATOM      8  C   UNL     1     -33.331  25.728   2.022  0.00  0.00    +0.012 C 
ATOM      9  C   UNL     1     -35.212  24.970   5.306  0.00  0.00    -0.044 C 
ATOM     10  C   UNL     1     -32.782  26.697   2.786  0.00  0.00    -0.005 C 
ATOM     11  C   UNL     1     -35.337  23.947   0.191  0.00  0.00    +0.338 C 
ATOM     12  C   UNL     1     -33.456  27.489   3.900  0.00  0.00    +0.191 C 
ATOM     13  C   UNL     1     -33.440  26.812   5.290  0.00  0.00    +0.073 C 
ATOM     14  C   UNL     1     -33.934  25.395   5.256  0.00  0.00    -0.030 C 
ATOM     15  C   UNL     1     -34.584  21.713   0.868  0.00  0.00    +0.002 C 
ATOM     16  C   UNL     1     -36.399  25.850   5.585  0.00  0.00    +0.026 C 
ATOM     17  C   UNL     1     -31.337  27.077   2.560  0.00  0.00    +0.030 C 
ENDROOT
BRANCH   4  18
ATOM     18  O   UNL     1     -37.071  23.810   3.127  0.00  0.00    -0.449 OA
BRANCH  18  20
ATOM     19  O   UNL     1     -37.858  21.748   2.472  0.00  0.00    -0.245 OA
ATOM     20  C   UNL     1     -38.003  22.954   2.621  0.00  0.00    +0.339 C 
BRANCH  20  21
ATOM     21  C   UNL     1     -39.247  23.707   2.274  0.00  0.00    +0.081 C 
ATOM     22  C   UNL     1     -39.501  24.794   3.027  0.00  0.00    +0.010 C 
BRANCH  21  23
ATOM     23  C   UNL     1     -40.132  23.181   1.181  0.00  0.00    +0.170 C 
BRANCH  23  24
ATOM     24  O   UNL     1     -40.485  21.835   1.470  0.00  0.00    -0.377 OA
ATOM     25  H   UNL     1     -39.881  21.235   1.004  0.00  0.00    +0.211 HD
ENDBRANCH  23  24
ENDBRANCH  21  23
BRANCH  22  26
ATOM     26  C   UNL     1     -40.657  25.735   2.894  0.00  0.00    +0.163 C 
BRANCH  26  27
ATOM     27  O   UNL     1     -40.527  26.756   3.873  0.00  0.00    -0.377 OA
ATOM     28  H   UNL     1     -41.010  26.499   4.674  0.00  0.00    +0.211 HD
ENDBRANCH  26  27
ENDBRANCH  22  26
ENDBRANCH  20  21
ENDBRANCH  18  20
ENDBRANCH   4  18
BRANCH  12  29
ATOM     29  O   UNL     1     -34.784  27.852   3.532  0.00  0.00    -0.448 OA
BRANCH  29  31
ATOM     30  O   UNL     1     -34.517  30.137   3.324  0.00  0.00    -0.250 OA
ATOM     31  C   UNL     1     -34.914  29.058   2.906  0.00  0.00    +0.318 C 
ATOM     32  C   UNL     1     -35.630  28.875   1.601  0.00  0.00    +0.121 C 
ENDBRANCH  29  31
ENDBRANCH  12  29
TORSDOF 9
ENDMDL
MODEL 3
REMARK VINA RESULT:      -5.4      1.771      2.893
REMARK  Name = 5281471
REMARK  9 active torsions:
REMARK  status: ('A' for Active; 'I' for Inactive)
REMARK    1  A    between atoms: C_4  and  O_18
REMARK    2  A    between atoms: C_12  and  O_29
REMARK    3  A    between atoms: O_18  and  C_20
REMARK    4  A    between atoms: C_20  and  C_21
REMARK    5  A    between atoms: C_21  and  C_23
REMARK    6  A    between atoms: C_22  and  C_26
REMARK    7  A    between atoms: C_23  and  O_24
REMARK    8  A    between atoms: C_26  and  O_27
REMARK    9  A    between atoms: O_29  and  C_31
REMARK                            x       y       z     vdW  Elec       q    Type
REMARK                         _______ _______ _______ _____ _____    ______ ____
ROOT
ATOM      1  O   UNL     1     -36.079  21.045   3.891  0.00  0.00    -0.444 OA
ATOM      2  O   UNL     1     -35.864  22.075   5.931  0.00  0.00    -0.245 OA
ATOM      3  C   UNL     1     -35.276  22.776   2.440  0.00  0.00    +0.113 C 
ATOM      4  C   UNL     1     -36.343  23.694   1.782  0.00  0.00    +0.181 C 
ATOM      5  C   UNL     1     -35.652  21.286   2.531  0.00  0.00    +0.198 C 
ATOM      6  C   UNL     1     -36.299  23.721   0.234  0.00  0.00    +0.066 C 
ATOM      7  C   UNL     1     -35.097  23.100   3.889  0.00  0.00    +0.060 C 
ATOM      8  C   UNL     1     -34.488  20.369   2.230  0.00  0.00    +0.012 C 
ATOM      9  C   UNL     1     -36.439  22.368  -0.433  0.00  0.00    -0.044 C 
ATOM     10  C   UNL     1     -34.316  19.523   1.191  0.00  0.00    -0.005 C 
ATOM     11  C   UNL     1     -35.708  22.054   4.724  0.00  0.00    +0.338 C 
ATOM     12  C   UNL     1     -35.301  19.227   0.067  0.00  0.00    +0.191 C 
ATOM     13  C   UNL     1     -35.254  20.211  -1.125  0.00  0.00    +0.073 C 
ATOM     14  C   UNL     1     -35.331  21.650  -0.700  0.00  0.00    -0.030 C 
ATOM     15  C   UNL     1     -34.447  24.137   4.425  0.00  0.00    +0.002 C 
ATOM     16  C   UNL     1     -37.845  21.902  -0.684  0.00  0.00    +0.026 C 
ATOM     17  C   UNL     1     -33.016  18.761   1.074  0.00  0.00    +0.030 C 
ENDROOT
BRANCH   4  18
ATOM     18  O   UNL     1     -37.651  23.348   2.235  0.00  0.00    -0.449 OA
BRANCH  18  20
ATOM     19  O   UNL     1     -38.185  24.648   4.058  0.00  0.00    -0.245 OA
ATOM     20  C   UNL     1     -38.334  24.332   2.886  0.00  0.00    +0.339 C 
BRANCH  20  21
ATOM     21  C   UNL     1     -39.302  24.981   1.949  0.00  0.00    +0.081 C 
ATOM     22  C   UNL     1     -40.336  24.215   1.553  0.00  0.00    +0.010 C 
BRANCH  21  23
ATOM     23  C   UNL     1     -39.029  26.382   1.481  0.00  0.00    +0.170 C 
BRANCH  23  24
ATOM     24  O   UNL     1     -37.970  26.936   2.251  0.00  0.00    -0.377 OA
ATOM     25  H   UNL     1     -37.916  27.891   2.087  0.00  0.00    +0.211 HD
ENDBRANCH  23  24
ENDBRANCH  21  23
BRANCH  22  26
ATOM     26  C   UNL     1     -41.453  24.608   0.639  0.00  0.00    +0.163 C 
BRANCH  26  27
ATOM     27  O   UNL     1     -42.233  23.455   0.352  0.00  0.00    -0.377 OA
ATOM     28  H   UNL     1     -41.664  22.767  -0.028  0.00  0.00    +0.211 HD
ENDBRANCH  26  27
ENDBRANCH  22  26
ENDBRANCH  20  21
ENDBRANCH  18  20
ENDBRANCH   4  18
BRANCH  12  29
ATOM     29  O   UNL     1     -36.629  19.114   0.573  0.00  0.00    -0.448 OA
BRANCH  29  31
ATOM     30  O   UNL     1     -38.594  18.515  -0.484  0.00  0.00    -0.250 OA
ATOM     31  C   UNL     1     -37.453  18.271  -0.115  0.00  0.00    +0.318 C 
ATOM     32  C   UNL     1     -36.750  16.971  -0.366  0.00  0.00    +0.121 C 
ENDBRANCH  29  31
ENDBRANCH  12  29
TORSDOF 9
ENDMDL
MODEL 4
REMARK VINA RESULT:      -5.3      1.812      2.596
REMARK  Name = 5281471
REMARK  9 active torsions:
REMARK  status: ('A' for Active; 'I' for Inactive)
REMARK    1  A    between atoms: C_4  and  O_18
REMARK    2  A    between atoms: C_12  and  O_29
REMARK    3  A    between atoms: O_18  and  C_20
REMARK    4  A    between atoms: C_20  and  C_21
REMARK    5  A    between atoms: C_21  and  C_23
REMARK    6  A    between atoms: C_22  and  C_26
REMARK    7  A    between atoms: C_23  and  O_24
REMARK    8  A    between atoms: C_26  and  O_27
REMARK    9  A    between atoms: O_29  and  C_31
REMARK                            x       y       z     vdW  Elec       q    Type
REMARK                         _______ _______ _______ _____ _____    ______ ____
ROOT
ATOM      1  O   UNL     1     -36.041  21.030   3.938  0.00  0.00    -0.444 OA
ATOM      2  O   UNL     1     -35.803  22.001   6.005  0.00  0.00    -0.245 OA
ATOM      3  C   UNL     1     -35.260  22.805   2.528  0.00  0.00    +0.113 C 
ATOM      4  C   UNL     1     -36.337  23.738   1.910  0.00  0.00    +0.181 C 
ATOM      5  C   UNL     1     -35.631  21.311   2.581  0.00  0.00    +0.198 C 
ATOM      6  C   UNL     1     -36.312  23.809   0.363  0.00  0.00    +0.066 C 
ATOM      7  C   UNL     1     -35.064  23.087   3.984  0.00  0.00    +0.060 C 
ATOM      8  C   UNL     1     -34.468  20.406   2.240  0.00  0.00    +0.012 C 
ATOM      9  C   UNL     1     -36.456  22.476  -0.341  0.00  0.00    -0.044 C 
ATOM     10  C   UNL     1     -34.307  19.591   1.174  0.00  0.00    -0.005 C 
ATOM     11  C   UNL     1     -35.662  22.016   4.795  0.00  0.00    +0.338 C 
ATOM     12  C   UNL     1     -35.305  19.326   0.054  0.00  0.00    +0.191 C 
ATOM     13  C   UNL     1     -35.274  20.343  -1.109  0.00  0.00    +0.073 C 
ATOM     14  C   UNL     1     -35.349  21.769  -0.642  0.00  0.00    -0.030 C 
ATOM     15  C   UNL     1     -34.410  24.110   4.541  0.00  0.00    +0.002 C 
ATOM     16  C   UNL     1     -37.865  22.013  -0.589  0.00  0.00    +0.026 C 
ATOM     17  C   UNL     1     -33.007  18.837   1.020  0.00  0.00    +0.030 C 
ENDROOT
BRANCH   4  18
ATOM     18  O   UNL     1     -37.638  23.375   2.368  0.00  0.00    -0.449 OA
BRANCH  18  20
ATOM     19  O   UNL     1     -37.848  24.831   4.139  0.00  0.00    -0.245 OA
ATOM     20  C   UNL     1     -38.284  24.309   3.123  0.00  0.00    +0.339 C 
BRANCH  20  21
ATOM     21  C   UNL     1     -39.618  24.612   2.520  0.00  0.00    +0.081 C 
ATOM     22  C   UNL     1     -40.226  25.724   2.975  0.00  0.00    +0.010 C 
BRANCH  21  23
ATOM     23  C   UNL     1     -40.199  23.651   1.522  0.00  0.00    +0.170 C 
BRANCH  23  24
ATOM     24  O   UNL     1     -40.276  22.357   2.107  0.00  0.00    -0.377 OA
ATOM     25  H   UNL     1     -39.538  22.237   2.725  0.00  0.00    +0.211 HD
ENDBRANCH  23  24
ENDBRANCH  21  23
BRANCH  22  26
ATOM     26  C   UNL     1     -41.549  26.272   2.541  0.00  0.00    +0.163 C 
BRANCH  26  27
ATOM     27  O   UNL     1     -41.335  27.519   1.894  0.00  0.00    -0.377 OA
ATOM     28  H   UNL     1     -40.498  27.902   2.200  0.00  0.00    +0.211 HD
ENDBRANCH  26  27
ENDBRANCH  22  26
ENDBRANCH  20  21
ENDBRANCH  18  20
ENDBRANCH   4  18
BRANCH  12  29
ATOM     29  O   UNL     1     -36.626  19.194   0.573  0.00  0.00    -0.448 OA
BRANCH  29  31
ATOM     30  O   UNL     1     -38.594  18.600  -0.481  0.00  0.00    -0.250 OA
ATOM     31  C   UNL     1     -37.451  18.356  -0.120  0.00  0.00    +0.318 C 
ATOM     32  C   UNL     1     -36.746  17.059  -0.386  0.00  0.00    +0.121 C 
ENDBRANCH  29  31
ENDBRANCH  12  29
TORSDOF 9
ENDMDL
MODEL 5
REMARK VINA RESULT:      -5.2      2.664      4.377
REMARK  Name = 5281471
REMARK  9 active torsions:
REMARK  status: ('A' for Active; 'I' for Inactive)
REMARK    1  A    between atoms: C_4  and  O_18
REMARK    2  A    between atoms: C_12  and  O_29
REMARK    3  A    between atoms: O_18  and  C_20
REMARK    4  A    between atoms: C_20  and  C_21
REMARK    5  A    between atoms: C_21  and  C_23
REMARK    6  A    between atoms: C_22  and  C_26
REMARK    7  A    between atoms: C_23  and  O_24
REMARK    8  A    between atoms: C_26  and  O_27
REMARK    9  A    between atoms: O_29  and  C_31
REMARK                            x       y       z     vdW  Elec       q    Type
REMARK                         _______ _______ _______ _____ _____    ______ ____
ROOT
ATOM      1  O   UNL     1     -33.705  24.366   1.514  0.00  0.00    -0.444 OA
ATOM      2  O   UNL     1     -33.713  26.571   2.154  0.00  0.00    -0.245 OA
ATOM      3  C   UNL     1     -35.960  24.129   0.734  0.00  0.00    +0.113 C 
ATOM      4  C   UNL     1     -36.994  23.550   1.737  0.00  0.00    +0.181 C 
ATOM      5  C   UNL     1     -34.566  23.475   0.770  0.00  0.00    +0.198 C 
ATOM      6  C   UNL     1     -37.722  22.274   1.244  0.00  0.00    +0.066 C 
ATOM      7  C   UNL     1     -35.605  25.542   1.071  0.00  0.00    +0.060 C 
ATOM      8  C   UNL     1     -33.974  23.284  -0.609  0.00  0.00    +0.012 C 
ATOM      9  C   UNL     1     -36.811  21.125   0.867  0.00  0.00    -0.044 C 
ATOM     10  C   UNL     1     -33.705  22.136  -1.269  0.00  0.00    -0.005 C 
ATOM     11  C   UNL     1     -34.252  25.604   1.646  0.00  0.00    +0.338 C 
ATOM     12  C   UNL     1     -33.878  20.712  -0.756  0.00  0.00    +0.191 C 
ATOM     13  C   UNL     1     -35.295  20.119  -0.929  0.00  0.00    +0.073 C 
ATOM     14  C   UNL     1     -36.376  21.020  -0.404  0.00  0.00    -0.030 C 
ATOM     15  C   UNL     1     -36.332  26.644   0.863  0.00  0.00    +0.002 C 
ATOM     16  C   UNL     1     -36.407  20.212   1.991  0.00  0.00    +0.026 C 
ATOM     17  C   UNL     1     -33.177  22.211  -2.683  0.00  0.00    +0.030 C 
ENDROOT
BRANCH   4  18
ATOM     18  O   UNL     1     -36.386  23.313   3.006  0.00  0.00    -0.449 OA
BRANCH  18  20
ATOM     19  O   UNL     1     -37.928  24.586   4.146  0.00  0.00    -0.245 OA
ATOM     20  C   UNL     1     -36.805  24.115   4.025  0.00  0.00    +0.339 C 
BRANCH  20  21
ATOM     21  C   UNL     1     -35.685  24.335   4.990  0.00  0.00    +0.081 C 
ATOM     22  C   UNL     1     -35.241  25.602   5.092  0.00  0.00    +0.010 C 
BRANCH  21  23
ATOM     23  C   UNL     1     -35.109  23.151   5.715  0.00  0.00    +0.170 C 
BRANCH  23  24
ATOM     24  O   UNL     1     -36.114  22.156   5.861  0.00  0.00    -0.377 OA
ATOM     25  H   UNL     1     -36.676  22.146   5.070  0.00  0.00    +0.211 HD
ENDBRANCH  23  24
ENDBRANCH  21  23
BRANCH  22  26
ATOM     26  C   UNL     1     -34.150  26.108   5.983  0.00  0.00    +0.163 C 
BRANCH  26  27
ATOM     27  O   UNL     1     -33.053  26.510   5.174  0.00  0.00    -0.377 OA
ATOM     28  H   UNL     1     -32.233  26.138   5.534  0.00  0.00    +0.211 HD
ENDBRANCH  26  27
ENDBRANCH  22  26
ENDBRANCH  20  21
ENDBRANCH  18  20
ENDBRANCH   4  18
BRANCH  12  29
ATOM     29  O   UNL     1     -33.451  20.606   0.600  0.00  0.00    -0.448 OA
BRANCH  29  31
ATOM     30  O   UNL     1     -33.160  18.568   1.648  0.00  0.00    -0.250 OA
ATOM     31  C   UNL     1     -32.769  19.467   0.916  0.00  0.00    +0.318 C 
ATOM     32  C   UNL     1     -31.438  19.465   0.223  0.00  0.00    +0.121 C 
ENDBRANCH  29  31
ENDBRANCH  12  29
TORSDOF 9
ENDMDL
MODEL 6
REMARK VINA RESULT:      -5.1      3.608      7.472
REMARK  Name = 5281471
REMARK  9 active torsions:
REMARK  status: ('A' for Active; 'I' for Inactive)
REMARK    1  A    between atoms: C_4  and  O_18
REMARK    2  A    between atoms: C_12  and  O_29
REMARK    3  A    between atoms: O_18  and  C_20
REMARK    4  A    between atoms: C_20  and  C_21
REMARK    5  A    between atoms: C_21  and  C_23
REMARK    6  A    between atoms: C_22  and  C_26
REMARK    7  A    between atoms: C_23  and  O_24
REMARK    8  A    between atoms: C_26  and  O_27
REMARK    9  A    between atoms: O_29  and  C_31
REMARK                            x       y       z     vdW  Elec       q    Type
REMARK                         _______ _______ _______ _____ _____    ______ ____
ROOT
ATOM      1  O   UNL     1     -40.263  23.194   1.904  0.00  0.00    -0.444 OA
ATOM      2  O   UNL     1     -40.404  20.947   2.351  0.00  0.00    -0.245 OA
ATOM      3  C   UNL     1     -38.303  23.244   0.525  0.00  0.00    +0.113 C 
ATOM      4  C   UNL     1     -36.958  23.578   1.227  0.00  0.00    +0.181 C 
ATOM      5  C   UNL     1     -39.520  24.053   1.010  0.00  0.00    +0.198 C 
ATOM      6  C   UNL     1     -36.215  24.804   0.639  0.00  0.00    +0.066 C 
ATOM      7  C   UNL     1     -38.755  21.855   0.846  0.00  0.00    +0.060 C 
ATOM      8  C   UNL     1     -40.436  24.467  -0.120  0.00  0.00    +0.012 C 
ATOM      9  C   UNL     1     -37.015  26.090   0.627  0.00  0.00    -0.044 C 
ATOM     10  C   UNL     1     -40.704  25.706  -0.588  0.00  0.00    -0.005 C 
ATOM     11  C   UNL     1     -39.889  21.892   1.782  0.00  0.00    +0.338 C 
ATOM     12  C   UNL     1     -40.188  27.032  -0.044  0.00  0.00    +0.191 C 
ATOM     13  C   UNL     1     -38.803  27.466  -0.576  0.00  0.00    +0.073 C 
ATOM     14  C   UNL     1     -37.764  26.388  -0.453  0.00  0.00    -0.030 C 
ATOM     15  C   UNL     1     -38.284  20.705   0.357  0.00  0.00    +0.002 C 
ATOM     16  C   UNL     1     -36.954  26.913   1.883  0.00  0.00    +0.026 C 
ATOM     17  C   UNL     1     -41.607  25.854  -1.791  0.00  0.00    +0.030 C 
ENDROOT
BRANCH   4  18
ATOM     18  O   UNL     1     -37.150  23.743   2.630  0.00  0.00    -0.449 OA
BRANCH  18  20
ATOM     19  O   UNL     1     -36.126  21.761   3.198  0.00  0.00    -0.245 OA
ATOM     20  C   UNL     1     -36.407  22.928   3.432  0.00  0.00    +0.339 C 
BRANCH  20  21
ATOM     21  C   UNL     1     -35.974  23.677   4.652  0.00  0.00    +0.081 C 
ATOM     22  C   UNL     1     -36.217  25.001   4.642  0.00  0.00    +0.010 C 
BRANCH  21  23
ATOM     23  C   UNL     1     -35.264  22.931   5.746  0.00  0.00    +0.170 C 
BRANCH  23  24
ATOM     24  O   UNL     1     -36.128  21.931   6.269  0.00  0.00    -0.377 OA
ATOM     25  H   UNL     1     -37.033  22.090   5.956  0.00  0.00    +0.211 HD
ENDBRANCH  23  24
ENDBRANCH  21  23
BRANCH  22  26
ATOM     26  C   UNL     1     -35.907  25.984   5.726  0.00  0.00    +0.163 C 
BRANCH  26  27
ATOM     27  O   UNL     1     -34.608  26.515   5.500  0.00  0.00    -0.377 OA
ATOM     28  H   UNL     1     -34.413  26.498   4.550  0.00  0.00    +0.211 HD
ENDBRANCH  26  27
ENDBRANCH  22  26
ENDBRANCH  20  21
ENDBRANCH  18  20
ENDBRANCH   4  18
BRANCH  12  29
ATOM     29  O   UNL     1     -40.204  27.036   1.381  0.00  0.00    -0.448 OA
BRANCH  29  31
ATOM     30  O   UNL     1     -42.081  28.345   1.700  0.00  0.00    -0.250 OA
ATOM     31  C   UNL     1     -41.398  27.362   1.957  0.00  0.00    +0.318 C 
ATOM     32  C   UNL     1     -41.769  26.324   2.973  0.00  0.00    +0.121 C 
ENDBRANCH  29  31
ENDBRANCH  12  29
TORSDOF 9
ENDMDL
MODEL 7
REMARK VINA RESULT:      -5.0      4.643      8.101
REMARK  Name = 5281471
REMARK  9 active torsions:
REMARK  status: ('A' for Active; 'I' for Inactive)
REMARK    1  A    between atoms: C_4  and  O_18
REMARK    2  A    between atoms: C_12  and  O_29
REMARK    3  A    between atoms: O_18  and  C_20
REMARK    4  A    between atoms: C_20  and  C_21
REMARK    5  A    between atoms: C_21  and  C_23
REMARK    6  A    between atoms: C_22  and  C_26
REMARK    7  A    between atoms: C_23  and  O_24
REMARK    8  A    between atoms: C_26  and  O_27
REMARK    9  A    between atoms: O_29  and  C_31
REMARK                            x       y       z     vdW  Elec       q    Type
REMARK                         _______ _______ _______ _____ _____    ______ ____
ROOT
ATOM      1  O   UNL     1     -33.137  25.437   4.144  0.00  0.00    -0.444 OA
ATOM      2  O   UNL     1     -34.177  23.801   5.373  0.00  0.00    -0.245 OA
ATOM      3  C   UNL     1     -34.929  27.011   3.905  0.00  0.00    +0.113 C 
ATOM      4  C   UNL     1     -35.759  26.937   2.594  0.00  0.00    +0.181 C 
ATOM      5  C   UNL     1     -33.413  26.797   3.739  0.00  0.00    +0.198 C 
ATOM      6  C   UNL     1     -35.792  28.255   1.780  0.00  0.00    +0.066 C 
ATOM      7  C   UNL     1     -35.264  25.882   4.826  0.00  0.00    +0.060 C 
ATOM      8  C   UNL     1     -32.593  27.726   4.607  0.00  0.00    +0.012 C 
ATOM      9  C   UNL     1     -34.434  28.798   1.388  0.00  0.00    -0.044 C 
ATOM     10  C   UNL     1     -31.765  28.727   4.236  0.00  0.00    -0.005 C 
ATOM     11  C   UNL     1     -34.171  24.897   4.844  0.00  0.00    +0.338 C 
ATOM     12  C   UNL     1     -31.393  29.143   2.818  0.00  0.00    +0.191 C 
ATOM     13  C   UNL     1     -32.379  30.121   2.140  0.00  0.00    +0.073 C 
ATOM     14  C   UNL     1     -33.807  29.659   2.214  0.00  0.00    -0.030 C 
ATOM     15  C   UNL     1     -36.349  25.742   5.593  0.00  0.00    +0.002 C 
ATOM     16  C   UNL     1     -33.856  28.262   0.108  0.00  0.00    +0.026 C 
ATOM     17  C   UNL     1     -31.110  29.569   5.307  0.00  0.00    +0.030 C 
ENDROOT
BRANCH   4  18
ATOM     18  O   UNL     1     -35.309  25.860   1.774  0.00  0.00    -0.449 OA
BRANCH  18  20
ATOM     19  O   UNL     1     -36.651  25.510  -0.064  0.00  0.00    -0.245 OA
ATOM     20  C   UNL     1     -36.274  25.212   1.061  0.00  0.00    +0.339 C 
BRANCH  20  21
ATOM     21  C   UNL     1     -36.809  24.067   1.860  0.00  0.00    +0.081 C 
ATOM     22  C   UNL     1     -35.900  23.159   2.261  0.00  0.00    +0.010 C 
BRANCH  21  23
ATOM     23  C   UNL     1     -38.290  23.981   2.101  0.00  0.00    +0.170 C 
BRANCH  23  24
ATOM     24  O   UNL     1     -38.563  24.298   3.459  0.00  0.00    -0.377 OA
ATOM     25  H   UNL     1     -39.385  24.811   3.513  0.00  0.00    +0.211 HD
ENDBRANCH  23  24
ENDBRANCH  21  23
BRANCH  22  26
ATOM     26  C   UNL     1     -36.151  21.931   3.079  0.00  0.00    +0.163 C 
BRANCH  26  27
ATOM     27  O   UNL     1     -36.500  22.328   4.399  0.00  0.00    -0.377 OA
ATOM     28  H   UNL     1     -36.828  23.241   4.386  0.00  0.00    +0.211 HD
ENDBRANCH  26  27
ENDBRANCH  22  26
ENDBRANCH  20  21
ENDBRANCH  18  20
ENDBRANCH   4  18
BRANCH  12  29
ATOM     29  O   UNL     1     -31.174  28.000   1.996  0.00  0.00    -0.448 OA
BRANCH  29  31
ATOM     30  O   UNL     1     -29.908  26.153   2.570  0.00  0.00    -0.250 OA
ATOM     31  C   UNL     1     -30.010  27.323   2.225  0.00  0.00    +0.318 C 
ATOM     32  C   UNL     1     -28.841  28.233   1.989  0.00  0.00    +0.121 C 
ENDBRANCH  29  31
ENDBRANCH  12  29
TORSDOF 9
ENDMDL
MODEL 8
REMARK VINA RESULT:      -5.0      5.647      8.421
REMARK  Name = 5281471
REMARK  9 active torsions:
REMARK  status: ('A' for Active; 'I' for Inactive)
REMARK    1  A    between atoms: C_4  and  O_18
REMARK    2  A    between atoms: C_12  and  O_29
REMARK    3  A    between atoms: O_18  and  C_20
REMARK    4  A    between atoms: C_20  and  C_21
REMARK    5  A    between atoms: C_21  and  C_23
REMARK    6  A    between atoms: C_22  and  C_26
REMARK    7  A    between atoms: C_23  and  O_24
REMARK    8  A    between atoms: C_26  and  O_27
REMARK    9  A    between atoms: O_29  and  C_31
REMARK                            x       y       z     vdW  Elec       q    Type
REMARK                         _______ _______ _______ _____ _____    ______ ____
ROOT
ATOM      1  O   UNL     1     -30.287  27.403   3.792  0.00  0.00    -0.444 OA
ATOM      2  O   UNL     1     -29.698  28.011   5.926  0.00  0.00    -0.245 OA
ATOM      3  C   UNL     1     -32.354  28.594   3.553  0.00  0.00    +0.113 C 
ATOM      4  C   UNL     1     -33.659  27.804   3.845  0.00  0.00    +0.181 C 
ATOM      5  C   UNL     1     -31.261  27.810   2.804  0.00  0.00    +0.198 C 
ATOM      6  C   UNL     1     -34.667  27.773   2.669  0.00  0.00    +0.066 C 
ATOM      7  C   UNL     1     -31.628  28.934   4.816  0.00  0.00    +0.060 C 
ATOM      8  C   UNL     1     -30.555  28.645   1.759  0.00  0.00    +0.012 C 
ATOM      9  C   UNL     1     -34.119  27.216   1.372  0.00  0.00    -0.044 C 
ATOM     10  C   UNL     1     -30.564  28.512   0.414  0.00  0.00    -0.005 C 
ATOM     11  C   UNL     1     -30.430  28.092   4.956  0.00  0.00    +0.338 C 
ATOM     12  C   UNL     1     -31.253  27.426  -0.403  0.00  0.00    +0.191 C 
ATOM     13  C   UNL     1     -32.741  27.693  -0.728  0.00  0.00    +0.073 C 
ATOM     14  C   UNL     1     -33.549  28.055   0.485  0.00  0.00    -0.030 C 
ATOM     15  C   UNL     1     -31.930  29.882   5.707  0.00  0.00    +0.002 C 
ATOM     16  C   UNL     1     -34.200  25.724   1.212  0.00  0.00    +0.026 C 
ATOM     17  C   UNL     1     -29.829  29.529  -0.427  0.00  0.00    +0.030 C 
ENDROOT
BRANCH   4  18
ATOM     18  O   UNL     1     -33.358  26.477   4.274  0.00  0.00    -0.449 OA
BRANCH  18  20
ATOM     19  O   UNL     1     -33.674  26.510   6.554  0.00  0.00    -0.245 OA
ATOM     20  C   UNL     1     -33.943  26.082   5.440  0.00  0.00    +0.339 C 
BRANCH  20  21
ATOM     21  C   UNL     1     -34.978  25.040   5.159  0.00  0.00    +0.081 C 
ATOM     22  C   UNL     1     -34.547  23.765   5.189  0.00  0.00    +0.010 C 
BRANCH  21  23
ATOM     23  C   UNL     1     -36.373  25.479   4.814  0.00  0.00    +0.170 C 
BRANCH  23  24
ATOM     24  O   UNL     1     -36.661  26.698   5.486  0.00  0.00    -0.377 OA
ATOM     25  H   UNL     1     -35.832  27.114   5.769  0.00  0.00    +0.211 HD
ENDBRANCH  23  24
ENDBRANCH  21  23
BRANCH  22  26
ATOM     26  C   UNL     1     -35.363  22.531   4.963  0.00  0.00    +0.163 C 
BRANCH  26  27
ATOM     27  O   UNL     1     -36.021  22.192   6.176  0.00  0.00    -0.377 OA
ATOM     28  H   UNL     1     -35.373  22.162   6.898  0.00  0.00    +0.211 HD
ENDBRANCH  26  27
ENDBRANCH  22  26
ENDBRANCH  20  21
ENDBRANCH  18  20
ENDBRANCH   4  18
BRANCH  12  29
ATOM     29  O   UNL     1     -31.094  26.150   0.212  0.00  0.00    -0.448 OA
BRANCH  29  31
ATOM     30  O   UNL     1     -31.448  23.995  -0.541  0.00  0.00    -0.250 OA
ATOM     31  C   UNL     1     -30.930  25.099  -0.643  0.00  0.00    +0.318 C 
ATOM     32  C   UNL     1     -30.007  25.493  -1.757  0.00  0.00    +0.121 C 
ENDBRANCH  29  31
ENDBRANCH  12  29
TORSDOF 9
ENDMDL
MODEL 9
REMARK VINA RESULT:      -4.9      3.975      6.737
REMARK  Name = 5281471
REMARK  9 active torsions:
REMARK  status: ('A' for Active; 'I' for Inactive)
REMARK    1  A    between atoms: C_4  and  O_18
REMARK    2  A    between atoms: C_12  and  O_29
REMARK    3  A    between atoms: O_18  and  C_20
REMARK    4  A    between atoms: C_20  and  C_21
REMARK    5  A    between atoms: C_21  and  C_23
REMARK    6  A    between atoms: C_22  and  C_26
REMARK    7  A    between atoms: C_23  and  O_24
REMARK    8  A    between atoms: C_26  and  O_27
REMARK    9  A    between atoms: O_29  and  C_31
REMARK                            x       y       z     vdW  Elec       q    Type
REMARK                         _______ _______ _______ _____ _____    ______ ____
ROOT
ATOM      1  O   UNL     1     -33.736  25.386   2.493  0.00  0.00    -0.444 OA
ATOM      2  O   UNL     1     -31.955  26.499   1.564  0.00  0.00    -0.245 OA
ATOM      3  C   UNL     1     -35.280  25.425   0.660  0.00  0.00    +0.113 C 
ATOM      4  C   UNL     1     -36.342  26.559   0.658  0.00  0.00    +0.181 C 
ATOM      5  C   UNL     1     -34.978  24.805   2.037  0.00  0.00    +0.198 C 
ATOM      6  C   UNL     1     -37.809  26.064   0.614  0.00  0.00    +0.066 C 
ATOM      7  C   UNL     1     -33.927  25.944   0.293  0.00  0.00    +0.060 C 
ATOM      8  C   UNL     1     -34.805  23.303   1.977  0.00  0.00    +0.012 C 
ATOM      9  C   UNL     1     -38.200  25.123   1.734  0.00  0.00    -0.044 C 
ATOM     10  C   UNL     1     -35.581  22.335   2.511  0.00  0.00    -0.005 C 
ATOM     11  C   UNL     1     -33.063  25.999   1.482  0.00  0.00    +0.338 C 
ATOM     12  C   UNL     1     -36.820  22.517   3.380  0.00  0.00    +0.191 C 
ATOM     13  C   UNL     1     -38.142  22.720   2.605  0.00  0.00    +0.073 C 
ATOM     14  C   UNL     1     -38.049  23.796   1.561  0.00  0.00    -0.030 C 
ATOM     15  C   UNL     1     -33.477  26.281  -0.919  0.00  0.00    +0.002 C 
ATOM     16  C   UNL     1     -38.673  25.774   3.004  0.00  0.00    +0.026 C 
ATOM     17  C   UNL     1     -35.234  20.889   2.245  0.00  0.00    +0.030 C 
ENDROOT
BRANCH   4  18
ATOM     18  O   UNL     1     -36.147  27.431   1.770  0.00  0.00    -0.449 OA
BRANCH  18  20
ATOM     19  O   UNL     1     -37.061  29.440   1.116  0.00  0.00    -0.245 OA
ATOM     20  C   UNL     1     -36.110  28.763   1.481  0.00  0.00    +0.339 C 
BRANCH  20  21
ATOM     21  C   UNL     1     -34.724  29.287   1.682  0.00  0.00    +0.081 C 
ATOM     22  C   UNL     1     -34.056  29.619   0.561  0.00  0.00    +0.010 C 
BRANCH  21  23
ATOM     23  C   UNL     1     -34.167  29.348   3.076  0.00  0.00    +0.170 C 
BRANCH  23  24
ATOM     24  O   UNL     1     -34.454  28.129   3.749  0.00  0.00    -0.377 OA
ATOM     25  H   UNL     1     -35.059  28.303   4.488  0.00  0.00    +0.211 HD
ENDBRANCH  23  24
ENDBRANCH  21  23
BRANCH  22  26
ATOM     26  C   UNL     1     -32.671  30.177   0.467  0.00  0.00    +0.163 C 
BRANCH  26  27
ATOM     27  O   UNL     1     -31.757  29.101   0.314  0.00  0.00    -0.377 OA
ATOM     28  H   UNL     1     -32.245  28.289   0.103  0.00  0.00    +0.211 HD
ENDBRANCH  26  27
ENDBRANCH  22  26
ENDBRANCH  20  21
ENDBRANCH  18  20
ENDBRANCH   4  18
BRANCH  12  29
ATOM     29  O   UNL     1     -36.625  23.564   4.327  0.00  0.00    -0.448 OA
BRANCH  29  31
ATOM     30  O   UNL     1     -35.938  22.244   6.095  0.00  0.00    -0.250 OA
ATOM     31  C   UNL     1     -35.845  23.249   5.403  0.00  0.00    +0.318 C 
ATOM     32  C   UNL     1     -34.831  24.331   5.625  0.00  0.00    +0.121 C 
ENDBRANCH  29  31
ENDBRANCH  12  29
TORSDOF 9
ENDMDL
