MODEL 1
REMARK VINA RESULT:      -6.5      0.000      0.000
REMARK  Name = 197399
REMARK  11 active torsions:
REMARK  status: ('A' for Active; 'I' for Inactive)
REMARK    1  A    between atoms: N_1  and  C_4
REMARK    2  A    between atoms: N_1  and  C_20
REMARK    3  A    between atoms: C_4  and  C_5
REMARK    4  A    between atoms: C_5  and  C_6
REMARK    5  A    between atoms: C_6  and  O_7
REMARK    6  A    between atoms: O_7  and  C_8
REMARK    7  A    between atoms: C_11  and  N_14
REMARK    8  A    between atoms: N_14  and  S_16
REMARK    9  A    between atoms: C_20  and  C_22
REMARK   10  A    between atoms: C_28  and  N_31
REMARK   11  A    between atoms: N_31  and  S_33
REMARK                            x       y       z     vdW  Elec       q    Type
REMARK                         _______ _______ _______ _____ _____    ______ ____
ROOT
ATOM      1  N   UNL     1     -36.540  24.685   2.268  0.00  0.00    +0.390 N 
ATOM      2  C   UNL     1     -36.841  25.959   1.619  0.00  0.00    -0.100 C 
ATOM      3  H   UNL     1     -35.527  24.583   2.328  0.00  0.00    -0.079 HD
ENDROOT
BRANCH   1   4
ATOM      4  C   UNL     1     -37.088  24.658   3.624  0.00  0.00    -0.073 C 
BRANCH   4   5
ATOM      5  C   UNL     1     -36.061  24.094   4.600  0.00  0.00    +0.025 C 
BRANCH   5   6
ATOM      6  C   UNL     1     -34.661  24.613   4.298  0.00  0.00    +0.203 C 
BRANCH   6   7
ATOM      7  O   UNL     1     -34.712  26.026   4.170  0.00  0.00    -0.476 OA
BRANCH   7   8
ATOM      8  C   UNL     1     -33.767  26.744   4.857  0.00  0.00    +0.139 C 
ATOM      9  C   UNL     1     -33.583  26.527   6.223  0.00  0.00    +0.038 C 
ATOM     10  C   UNL     1     -32.990  27.691   4.191  0.00  0.00    +0.038 C 
ATOM     11  C   UNL     1     -31.846  28.205   6.256  0.00  0.00    +0.065 C 
ATOM     12  C   UNL     1     -32.622  27.257   6.922  0.00  0.00    +0.019 C 
ATOM     13  C   UNL     1     -32.029  28.422   4.890  0.00  0.00    +0.019 C 
BRANCH  11  14
ATOM     14  N   UNL     1     -30.862  28.953   6.971  0.00  0.00    -0.219 N 
ATOM     15  H   UNL     1     -31.120  29.554   7.707  0.00  0.00    +0.173 HD
BRANCH  14  16
ATOM     16  S   UNL     1     -29.212  28.776   6.511  0.00  0.00    +0.056 S 
ATOM     17  O   UNL     1     -28.927  27.361   6.362  0.00  0.00    -0.154 OA
ATOM     18  O   UNL     1     -28.864  29.713   5.461  0.00  0.00    -0.154 OA
ATOM     19  C   UNL     1     -28.410  29.309   8.007  0.00  0.00    +0.200 C 
ENDBRANCH  14  16
ENDBRANCH  11  14
ENDBRANCH   7   8
ENDBRANCH   6   7
ENDBRANCH   5   6
ENDBRANCH   4   5
ENDBRANCH   1   4
BRANCH   1  20
ATOM     20  C   UNL     1     -37.072  23.572   1.481  0.00  0.00    -0.017 C 
BRANCH  20  22
ATOM     21  N   UNL     1     -35.029  22.469   0.795  0.00  0.00    -0.412 NA
ATOM     22  C   UNL     1     -36.177  22.378   1.506  0.00  0.00    +0.087 C 
ATOM     23  C   UNL     1     -34.491  20.231   1.505  0.00  0.00    +0.097 C 
ATOM     24  C   UNL     1     -34.196  21.413   0.793  0.00  0.00    +0.116 C 
ATOM     25  C   UNL     1     -36.551  21.266   2.233  0.00  0.00    +0.022 C 
ATOM     26  C   UNL     1     -35.690  20.178   2.228  0.00  0.00    -0.013 C 
ATOM     27  C   UNL     1     -33.598  19.146   1.482  0.00  0.00    +0.001 C 
ATOM     28  C   UNL     1     -32.413  19.225   0.755  0.00  0.00    +0.061 C 
ATOM     29  C   UNL     1     -33.004  21.464   0.075  0.00  0.00    +0.029 C 
ATOM     30  C   UNL     1     -32.116  20.386   0.052  0.00  0.00    +0.018 C 
BRANCH  28  31
ATOM     31  N   UNL     1     -31.508  18.122   0.734  0.00  0.00    -0.219 N 
ATOM     32  H   UNL     1     -30.745  18.083   1.356  0.00  0.00    +0.173 HD
BRANCH  31  33
ATOM     33  S   UNL     1     -31.785  16.863  -0.408  0.00  0.00    +0.056 S 
ATOM     34  O   UNL     1     -31.797  15.596   0.301  0.00  0.00    -0.154 OA
ATOM     35  O   UNL     1     -32.862  17.212  -1.311  0.00  0.00    -0.154 OA
ATOM     36  C   UNL     1     -30.262  16.928  -1.323  0.00  0.00    +0.200 C 
ENDBRANCH  31  33
ENDBRANCH  28  31
ENDBRANCH  20  22
ENDBRANCH   1  20
TORSDOF 11
ENDMDL
MODEL 2
REMARK VINA RESULT:      -6.3      5.518     11.074
REMARK  Name = 197399
REMARK  11 active torsions:
REMARK  status: ('A' for Active; 'I' for Inactive)
REMARK    1  A    between atoms: N_1  and  C_4
REMARK    2  A    between atoms: N_1  and  C_20
REMARK    3  A    between atoms: C_4  and  C_5
REMARK    4  A    between atoms: C_5  and  C_6
REMARK    5  A    between atoms: C_6  and  O_7
REMARK    6  A    between atoms: O_7  and  C_8
REMARK    7  A    between atoms: C_11  and  N_14
REMARK    8  A    between atoms: N_14  and  S_16
REMARK    9  A    between atoms: C_20  and  C_22
REMARK   10  A    between atoms: C_28  and  N_31
REMARK   11  A    between atoms: N_31  and  S_33
REMARK                            x       y       z     vdW  Elec       q    Type
REMARK                         _______ _______ _______ _____ _____    ______ ____
ROOT
ATOM      1  N   UNL     1     -30.854  29.312   4.510  0.00  0.00    +0.390 N 
ATOM      2  C   UNL     1     -29.825  28.999   3.520  0.00  0.00    -0.100 C 
ATOM      3  H   UNL     1     -31.751  28.974   4.162  0.00  0.00    -0.079 HD
ENDROOT
BRANCH   1   4
ATOM      4  C   UNL     1     -30.567  28.640   5.778  0.00  0.00    -0.073 C 
BRANCH   4   5
ATOM      5  C   UNL     1     -31.785  28.698   6.694  0.00  0.00    +0.025 C 
BRANCH   5   6
ATOM      6  C   UNL     1     -32.585  27.403   6.642  0.00  0.00    +0.203 C 
BRANCH   6   7
ATOM      7  O   UNL     1     -32.650  26.956   5.296  0.00  0.00    -0.476 OA
BRANCH   7   8
ATOM      8  C   UNL     1     -33.748  26.215   4.942  0.00  0.00    +0.139 C 
ATOM      9  C   UNL     1     -33.853  25.696   3.652  0.00  0.00    +0.038 C 
ATOM     10  C   UNL     1     -34.759  25.979   5.873  0.00  0.00    +0.038 C 
ATOM     11  C   UNL     1     -35.982  24.707   4.223  0.00  0.00    +0.065 C 
ATOM     12  C   UNL     1     -34.970  24.942   3.292  0.00  0.00    +0.019 C 
ATOM     13  C   UNL     1     -35.876  25.226   5.514  0.00  0.00    +0.019 C 
BRANCH  11  14
ATOM     14  N   UNL     1     -37.126  23.936   3.855  0.00  0.00    -0.219 N 
ATOM     15  H   UNL     1     -37.194  22.984   4.099  0.00  0.00    +0.173 HD
BRANCH  14  16
ATOM     16  S   UNL     1     -38.383  24.715   2.972  0.00  0.00    +0.056 S 
ATOM     17  O   UNL     1     -39.652  24.138   3.377  0.00  0.00    -0.154 OA
ATOM     18  O   UNL     1     -38.195  26.152   2.963  0.00  0.00    -0.154 OA
ATOM     19  C   UNL     1     -38.040  24.108   1.336  0.00  0.00    +0.200 C 
ENDBRANCH  14  16
ENDBRANCH  11  14
ENDBRANCH   7   8
ENDBRANCH   6   7
ENDBRANCH   5   6
ENDBRANCH   4   5
ENDBRANCH   1   4
BRANCH   1  20
ATOM     20  C   UNL     1     -30.948  30.758   4.710  0.00  0.00    -0.017 C 
BRANCH  20  22
ATOM     21  N   UNL     1     -33.164  30.752   3.738  0.00  0.00    -0.412 NA
ATOM     22  C   UNL     1     -31.974  31.388   3.827  0.00  0.00    +0.087 C 
ATOM     23  C   UNL     1     -33.897  32.482   2.229  0.00  0.00    +0.097 C 
ATOM     24  C   UNL     1     -34.115  31.290   2.951  0.00  0.00    +0.116 C 
ATOM     25  C   UNL     1     -31.667  32.557   3.159  0.00  0.00    +0.022 C 
ATOM     26  C   UNL     1     -32.650  33.108   2.349  0.00  0.00    -0.013 C 
ATOM     27  C   UNL     1     -34.913  33.016   1.416  0.00  0.00    +0.001 C 
ATOM     28  C   UNL     1     -36.143  32.373   1.316  0.00  0.00    +0.061 C 
ATOM     29  C   UNL     1     -35.356  30.669   2.832  0.00  0.00    +0.029 C 
ATOM     30  C   UNL     1     -36.365  31.199   2.024  0.00  0.00    +0.018 C 
BRANCH  28  31
ATOM     31  N   UNL     1     -37.172  32.919   0.490  0.00  0.00    -0.219 N 
ATOM     32  H   UNL     1     -37.016  33.086  -0.468  0.00  0.00    +0.173 HD
BRANCH  31  33
ATOM     33  S   UNL     1     -38.692  33.280   1.215  0.00  0.00    +0.056 S 
ATOM     34  O   UNL     1     -39.466  32.054   1.291  0.00  0.00    -0.154 OA
ATOM     35  O   UNL     1     -38.521  34.117   2.386  0.00  0.00    -0.154 OA
ATOM     36  C   UNL     1     -39.424  34.274  -0.065  0.00  0.00    +0.200 C 
ENDBRANCH  31  33
ENDBRANCH  28  31
ENDBRANCH  20  22
ENDBRANCH   1  20
TORSDOF 11
ENDMDL
MODEL 3
REMARK VINA RESULT:      -6.3      1.580     10.034
REMARK  Name = 197399
REMARK  11 active torsions:
REMARK  status: ('A' for Active; 'I' for Inactive)
REMARK    1  A    between atoms: N_1  and  C_4
REMARK    2  A    between atoms: N_1  and  C_20
REMARK    3  A    between atoms: C_4  and  C_5
REMARK    4  A    between atoms: C_5  and  C_6
REMARK    5  A    between atoms: C_6  and  O_7
REMARK    6  A    between atoms: O_7  and  C_8
REMARK    7  A    between atoms: C_11  and  N_14
REMARK    8  A    between atoms: N_14  and  S_16
REMARK    9  A    between atoms: C_20  and  C_22
REMARK   10  A    between atoms: C_28  and  N_31
REMARK   11  A    between atoms: N_31  and  S_33
REMARK                            x       y       z     vdW  Elec       q    Type
REMARK                         _______ _______ _______ _____ _____    ______ ____
ROOT
ATOM      1  N   UNL     1     -35.704  23.753   2.394  0.00  0.00    +0.390 N 
ATOM      2  C   UNL     1     -36.616  22.647   2.682  0.00  0.00    -0.100 C 
ATOM      3  H   UNL     1     -34.800  23.545   2.818  0.00  0.00    -0.079 HD
ENDROOT
BRANCH   1   4
ATOM      4  C   UNL     1     -35.515  23.898   0.950  0.00  0.00    -0.073 C 
BRANCH   4   5
ATOM      5  C   UNL     1     -34.032  23.824   0.601  0.00  0.00    +0.025 C 
BRANCH   5   6
ATOM      6  C   UNL     1     -33.706  22.558  -0.182  0.00  0.00    +0.203 C 
BRANCH   6   7
ATOM      7  O   UNL     1     -34.130  21.430   0.569  0.00  0.00    -0.476 OA
BRANCH   7   8
ATOM      8  C   UNL     1     -33.265  20.369   0.633  0.00  0.00    +0.139 C 
ATOM      9  C   UNL     1     -33.635  19.207   1.310  0.00  0.00    +0.038 C 
ATOM     10  C   UNL     1     -32.014  20.451   0.021  0.00  0.00    +0.038 C 
ATOM     11  C   UNL     1     -31.504  18.209   0.763  0.00  0.00    +0.065 C 
ATOM     12  C   UNL     1     -32.755  18.127   1.375  0.00  0.00    +0.019 C 
ATOM     13  C   UNL     1     -31.134  19.371   0.086  0.00  0.00    +0.019 C 
BRANCH  11  14
ATOM     14  N   UNL     1     -30.602  17.104   0.830  0.00  0.00    -0.219 N 
ATOM     15  H   UNL     1     -29.894  17.069   1.514  0.00  0.00    +0.173 HD
BRANCH  14  16
ATOM     16  S   UNL     1     -30.786  15.834  -0.318  0.00  0.00    +0.056 S 
ATOM     17  O   UNL     1     -31.074  14.605   0.399  0.00  0.00    -0.154 OA
ATOM     18  O   UNL     1     -31.619  16.254  -1.426  0.00  0.00    -0.154 OA
ATOM     19  C   UNL     1     -29.113  15.703  -0.912  0.00  0.00    +0.200 C 
ENDBRANCH  14  16
ENDBRANCH  11  14
ENDBRANCH   7   8
ENDBRANCH   6   7
ENDBRANCH   5   6
ENDBRANCH   4   5
ENDBRANCH   1   4
BRANCH   1  20
ATOM     20  C   UNL     1     -36.213  24.998   2.970  0.00  0.00    -0.017 C 
BRANCH  20  22
ATOM     21  N   UNL     1     -34.361  26.492   3.413  0.00  0.00    -0.412 NA
ATOM     22  C   UNL     1     -35.251  25.615   3.930  0.00  0.00    +0.087 C 
ATOM     23  C   UNL     1     -33.460  26.779   5.629  0.00  0.00    +0.097 C 
ATOM     24  C   UNL     1     -33.477  27.068   4.248  0.00  0.00    +0.116 C 
ATOM     25  C   UNL     1     -35.311  25.268   5.265  0.00  0.00    +0.022 C 
ATOM     26  C   UNL     1     -34.398  25.864   6.123  0.00  0.00    -0.013 C 
ATOM     27  C   UNL     1     -32.522  27.400   6.473  0.00  0.00    +0.001 C 
ATOM     28  C   UNL     1     -31.601  28.305   5.956  0.00  0.00    +0.061 C 
ATOM     29  C   UNL     1     -32.544  27.978   3.758  0.00  0.00    +0.029 C 
ATOM     30  C   UNL     1     -31.612  28.595   4.597  0.00  0.00    +0.018 C 
BRANCH  28  31
ATOM     31  N   UNL     1     -30.651  28.934   6.816  0.00  0.00    -0.219 N 
ATOM     32  H   UNL     1     -30.941  29.576   7.504  0.00  0.00    +0.173 HD
BRANCH  31  33
ATOM     33  S   UNL     1     -28.986  28.542   6.616  0.00  0.00    +0.056 S 
ATOM     34  O   UNL     1     -28.823  27.115   6.828  0.00  0.00    -0.154 OA
ATOM     35  O   UNL     1     -28.444  29.177   5.432  0.00  0.00    -0.154 OA
ATOM     36  C   UNL     1     -28.297  29.357   8.038  0.00  0.00    +0.200 C 
ENDBRANCH  31  33
ENDBRANCH  28  31
ENDBRANCH  20  22
ENDBRANCH   1  20
TORSDOF 11
ENDMDL
MODEL 4
REMARK VINA RESULT:      -6.3      4.127      8.999
REMARK  Name = 197399
REMARK  11 active torsions:
REMARK  status: ('A' for Active; 'I' for Inactive)
REMARK    1  A    between atoms: N_1  and  C_4
REMARK    2  A    between atoms: N_1  and  C_20
REMARK    3  A    between atoms: C_4  and  C_5
REMARK    4  A    between atoms: C_5  and  C_6
REMARK    5  A    between atoms: C_6  and  O_7
REMARK    6  A    between atoms: O_7  and  C_8
REMARK    7  A    between atoms: C_11  and  N_14
REMARK    8  A    between atoms: N_14  and  S_16
REMARK    9  A    between atoms: C_20  and  C_22
REMARK   10  A    between atoms: C_28  and  N_31
REMARK   11  A    between atoms: N_31  and  S_33
REMARK                            x       y       z     vdW  Elec       q    Type
REMARK                         _______ _______ _______ _____ _____    ______ ____
ROOT
ATOM      1  N   UNL     1     -35.942  21.218   1.922  0.00  0.00    +0.390 N 
ATOM      2  C   UNL     1     -34.927  20.264   1.479  0.00  0.00    -0.100 C 
ATOM      3  H   UNL     1     -35.690  22.143   1.574  0.00  0.00    -0.079 HD
ENDROOT
BRANCH   1   4
ATOM      4  C   UNL     1     -37.253  20.862   1.379  0.00  0.00    -0.073 C 
BRANCH   4   5
ATOM      5  C   UNL     1     -37.547  21.679   0.126  0.00  0.00    +0.025 C 
BRANCH   5   6
ATOM      6  C   UNL     1     -37.175  23.144   0.315  0.00  0.00    +0.203 C 
BRANCH   6   7
ATOM      7  O   UNL     1     -38.279  23.952  -0.068  0.00  0.00    -0.476 OA
BRANCH   7   8
ATOM      8  C   UNL     1     -38.986  24.551   0.943  0.00  0.00    +0.139 C 
ATOM      9  C   UNL     1     -40.381  24.508   0.939  0.00  0.00    +0.038 C 
ATOM     10  C   UNL     1     -38.312  25.206   1.973  0.00  0.00    +0.038 C 
ATOM     11  C   UNL     1     -40.425  25.773   2.997  0.00  0.00    +0.065 C 
ATOM     12  C   UNL     1     -41.099  25.118   1.966  0.00  0.00    +0.019 C 
ATOM     13  C   UNL     1     -39.030  25.816   3.000  0.00  0.00    +0.019 C 
BRANCH  11  14
ATOM     14  N   UNL     1     -41.161  26.398   4.049  0.00  0.00    -0.219 N 
ATOM     15  H   UNL     1     -41.113  26.058   4.971  0.00  0.00    +0.173 HD
BRANCH  14  16
ATOM     16  S   UNL     1     -42.135  27.764   3.659  0.00  0.00    +0.056 S 
ATOM     17  O   UNL     1     -42.030  28.725   4.741  0.00  0.00    -0.154 OA
ATOM     18  O   UNL     1     -41.926  28.174   2.285  0.00  0.00    -0.154 OA
ATOM     19  C   UNL     1     -43.755  27.036   3.772  0.00  0.00    +0.200 C 
ENDBRANCH  14  16
ENDBRANCH  11  14
ENDBRANCH   7   8
ENDBRANCH   6   7
ENDBRANCH   5   6
ENDBRANCH   4   5
ENDBRANCH   1   4
BRANCH   1  20
ATOM     20  C   UNL     1     -35.992  21.269   3.384  0.00  0.00    -0.017 C 
BRANCH  20  22
ATOM     21  N   UNL     1     -34.943  23.422   3.031  0.00  0.00    -0.412 NA
ATOM     22  C   UNL     1     -35.496  22.569   3.924  0.00  0.00    +0.087 C 
ATOM     23  C   UNL     1     -34.565  24.964   4.843  0.00  0.00    +0.097 C 
ATOM     24  C   UNL     1     -34.484  24.604   3.482  0.00  0.00    +0.116 C 
ATOM     25  C   UNL     1     -35.618  22.832   5.274  0.00  0.00    +0.022 C 
ATOM     26  C   UNL     1     -35.144  24.051   5.734  0.00  0.00    -0.013 C 
ATOM     27  C   UNL     1     -34.075  26.208   5.279  0.00  0.00    +0.001 C 
ATOM     28  C   UNL     1     -33.504  27.096   4.372  0.00  0.00    +0.061 C 
ATOM     29  C   UNL     1     -33.908  25.512   2.597  0.00  0.00    +0.029 C 
ATOM     30  C   UNL     1     -33.422  26.748   3.029  0.00  0.00    +0.018 C 
BRANCH  28  31
ATOM     31  N   UNL     1     -33.009  28.358   4.818  0.00  0.00    -0.219 N 
ATOM     32  H   UNL     1     -33.611  29.133   4.911  0.00  0.00    +0.173 HD
BRANCH  31  33
ATOM     33  S   UNL     1     -31.332  28.491   5.187  0.00  0.00    +0.056 S 
ATOM     34  O   UNL     1     -31.060  27.700   6.373  0.00  0.00    -0.154 OA
ATOM     35  O   UNL     1     -30.526  28.330   3.994  0.00  0.00    -0.154 OA
ATOM     36  C   UNL     1     -31.251  30.199   5.675  0.00  0.00    +0.200 C 
ENDBRANCH  31  33
ENDBRANCH  28  31
ENDBRANCH  20  22
ENDBRANCH   1  20
TORSDOF 11
ENDMDL
MODEL 5
REMARK VINA RESULT:      -6.3      5.781      9.943
REMARK  Name = 197399
REMARK  11 active torsions:
REMARK  status: ('A' for Active; 'I' for Inactive)
REMARK    1  A    between atoms: N_1  and  C_4
REMARK    2  A    between atoms: N_1  and  C_20
REMARK    3  A    between atoms: C_4  and  C_5
REMARK    4  A    between atoms: C_5  and  C_6
REMARK    5  A    between atoms: C_6  and  O_7
REMARK    6  A    between atoms: O_7  and  C_8
REMARK    7  A    between atoms: C_11  and  N_14
REMARK    8  A    between atoms: N_14  and  S_16
REMARK    9  A    between atoms: C_20  and  C_22
REMARK   10  A    between atoms: C_28  and  N_31
REMARK   11  A    between atoms: N_31  and  S_33
REMARK                            x       y       z     vdW  Elec       q    Type
REMARK                         _______ _______ _______ _____ _____    ______ ____
ROOT
ATOM      1  N   UNL     1     -40.249  22.441   1.115  0.00  0.00    +0.390 N 
ATOM      2  C   UNL     1     -40.078  21.538  -0.021  0.00  0.00    -0.100 C 
ATOM      3  H   UNL     1     -41.203  22.348   1.463  0.00  0.00    -0.079 HD
ENDROOT
BRANCH   1   4
ATOM      4  C   UNL     1     -39.327  22.088   2.195  0.00  0.00    -0.073 C 
BRANCH   4   5
ATOM      5  C   UNL     1     -37.999  21.608   1.621  0.00  0.00    +0.025 C 
BRANCH   5   6
ATOM      6  C   UNL     1     -36.824  22.055   2.482  0.00  0.00    +0.203 C 
BRANCH   6   7
ATOM      7  O   UNL     1     -37.319  22.809   3.579  0.00  0.00    -0.476 OA
BRANCH   7   8
ATOM      8  C   UNL     1     -36.480  23.756   4.108  0.00  0.00    +0.139 C 
ATOM      9  C   UNL     1     -35.230  23.382   4.601  0.00  0.00    +0.038 C 
ATOM     10  C   UNL     1     -36.876  25.092   4.153  0.00  0.00    +0.038 C 
ATOM     11  C   UNL     1     -34.773  25.681   5.185  0.00  0.00    +0.065 C 
ATOM     12  C   UNL     1     -34.377  24.345   5.139  0.00  0.00    +0.019 C 
ATOM     13  C   UNL     1     -36.023  26.055   4.691  0.00  0.00    +0.019 C 
BRANCH  11  14
ATOM     14  N   UNL     1     -33.900  26.667   5.736  0.00  0.00    -0.219 N 
ATOM     15  H   UNL     1     -33.861  26.822   6.708  0.00  0.00    +0.173 HD
BRANCH  14  16
ATOM     16  S   UNL     1     -32.916  27.578   4.656  0.00  0.00    +0.056 S 
ATOM     17  O   UNL     1     -32.227  26.654   3.773  0.00  0.00    -0.154 OA
ATOM     18  O   UNL     1     -33.647  28.706   4.116  0.00  0.00    -0.154 OA
ATOM     19  C   UNL     1     -31.701  28.207   5.792  0.00  0.00    +0.200 C 
ENDBRANCH  14  16
ENDBRANCH  11  14
ENDBRANCH   7   8
ENDBRANCH   6   7
ENDBRANCH   5   6
ENDBRANCH   4   5
ENDBRANCH   1   4
BRANCH   1  20
ATOM     20  C   UNL     1     -40.040  23.829   0.700  0.00  0.00    -0.017 C 
BRANCH  20  22
ATOM     21  N   UNL     1     -42.038  24.926   1.513  0.00  0.00    -0.412 NA
ATOM     22  C   UNL     1     -40.695  24.803   1.621  0.00  0.00    +0.087 C 
ATOM     23  C   UNL     1     -41.961  26.568   3.274  0.00  0.00    +0.097 C 
ATOM     24  C   UNL     1     -42.665  25.795   2.328  0.00  0.00    +0.116 C 
ATOM     25  C   UNL     1     -39.921  25.516   2.515  0.00  0.00    +0.022 C 
ATOM     26  C   UNL     1     -40.571  26.411   3.352  0.00  0.00    -0.013 C 
ATOM     27  C   UNL     1     -42.648  27.467   4.109  0.00  0.00    +0.001 C 
ATOM     28  C   UNL     1     -44.029  27.603   4.010  0.00  0.00    +0.061 C 
ATOM     29  C   UNL     1     -44.046  25.951   2.251  0.00  0.00    +0.029 C 
ATOM     30  C   UNL     1     -44.729  26.844   3.081  0.00  0.00    +0.018 C 
BRANCH  28  31
ATOM     31  N   UNL     1     -44.724  28.516   4.860  0.00  0.00    -0.219 N 
ATOM     32  H   UNL     1     -45.527  28.233   5.356  0.00  0.00    +0.173 HD
BRANCH  31  33
ATOM     33  S   UNL     1     -44.121  30.124   4.994  0.00  0.00    +0.056 S 
ATOM     34  O   UNL     1     -43.063  30.136   5.986  0.00  0.00    -0.154 OA
ATOM     35  O   UNL     1     -43.910  30.707   3.684  0.00  0.00    -0.154 OA
ATOM     36  C   UNL     1     -45.527  30.927   5.728  0.00  0.00    +0.200 C 
ENDBRANCH  31  33
ENDBRANCH  28  31
ENDBRANCH  20  22
ENDBRANCH   1  20
TORSDOF 11
ENDMDL
MODEL 6
REMARK VINA RESULT:      -6.2      2.448      3.575
REMARK  Name = 197399
REMARK  11 active torsions:
REMARK  status: ('A' for Active; 'I' for Inactive)
REMARK    1  A    between atoms: N_1  and  C_4
REMARK    2  A    between atoms: N_1  and  C_20
REMARK    3  A    between atoms: C_4  and  C_5
REMARK    4  A    between atoms: C_5  and  C_6
REMARK    5  A    between atoms: C_6  and  O_7
REMARK    6  A    between atoms: O_7  and  C_8
REMARK    7  A    between atoms: C_11  and  N_14
REMARK    8  A    between atoms: N_14  and  S_16
REMARK    9  A    between atoms: C_20  and  C_22
REMARK   10  A    between atoms: C_28  and  N_31
REMARK   11  A    between atoms: N_31  and  S_33
REMARK                            x       y       z     vdW  Elec       q    Type
REMARK                         _______ _______ _______ _____ _____    ______ ____
ROOT
ATOM      1  N   UNL     1     -37.999  22.002  -0.019  0.00  0.00    +0.390 N 
ATOM      2  C   UNL     1     -38.168  21.837  -1.461  0.00  0.00    -0.100 C 
ATOM      3  H   UNL     1     -37.088  22.426   0.154  0.00  0.00    -0.079 HD
ENDROOT
BRANCH   1   4
ATOM      4  C   UNL     1     -39.031  22.888   0.521  0.00  0.00    -0.073 C 
BRANCH   4   5
ATOM      5  C   UNL     1     -39.196  22.657   2.019  0.00  0.00    +0.025 C 
BRANCH   5   6
ATOM      6  C   UNL     1     -38.495  23.738   2.831  0.00  0.00    +0.203 C 
BRANCH   6   7
ATOM      7  O   UNL     1     -37.412  23.153   3.539  0.00  0.00    -0.476 OA
BRANCH   7   8
ATOM      8  C   UNL     1     -36.492  24.011   4.083  0.00  0.00    +0.139 C 
ATOM      9  C   UNL     1     -36.802  25.364   4.230  0.00  0.00    +0.038 C 
ATOM     10  C   UNL     1     -35.246  23.534   4.488  0.00  0.00    +0.038 C 
ATOM     11  C   UNL     1     -34.619  25.759   5.187  0.00  0.00    +0.065 C 
ATOM     12  C   UNL     1     -35.865  26.237   4.782  0.00  0.00    +0.019 C 
ATOM     13  C   UNL     1     -34.310  24.407   5.040  0.00  0.00    +0.019 C 
BRANCH  11  14
ATOM     14  N   UNL     1     -33.660  26.654   5.752  0.00  0.00    -0.219 N 
ATOM     15  H   UNL     1     -33.502  26.678   6.724  0.00  0.00    +0.173 HD
BRANCH  14  16
ATOM     16  S   UNL     1     -32.789  27.691   4.688  0.00  0.00    +0.056 S 
ATOM     17  O   UNL     1     -32.028  26.867   3.766  0.00  0.00    -0.154 OA
ATOM     18  O   UNL     1     -33.636  28.758   4.195  0.00  0.00    -0.154 OA
ATOM     19  C   UNL     1     -31.622  28.401   5.828  0.00  0.00    +0.200 C 
ENDBRANCH  14  16
ENDBRANCH  11  14
ENDBRANCH   7   8
ENDBRANCH   6   7
ENDBRANCH   5   6
ENDBRANCH   4   5
ENDBRANCH   1   4
BRANCH   1  20
ATOM     20  C   UNL     1     -38.041  20.702   0.652  0.00  0.00    -0.017 C 
BRANCH  20  22
ATOM     21  N   UNL     1     -36.318  19.103   0.076  0.00  0.00    -0.412 NA
ATOM     22  C   UNL     1     -36.680  20.133   0.875  0.00  0.00    +0.087 C 
ATOM     23  C   UNL     1     -34.203  19.042   1.227  0.00  0.00    +0.097 C 
ATOM     24  C   UNL     1     -35.097  18.563   0.247  0.00  0.00    +0.116 C 
ATOM     25  C   UNL     1     -35.875  20.669   1.860  0.00  0.00    +0.022 C 
ATOM     26  C   UNL     1     -34.617  20.110   2.034  0.00  0.00    -0.013 C 
ATOM     27  C   UNL     1     -32.934  18.454   1.379  0.00  0.00    +0.001 C 
ATOM     28  C   UNL     1     -32.549  17.394   0.564  0.00  0.00    +0.061 C 
ATOM     29  C   UNL     1     -34.684  17.502  -0.554  0.00  0.00    +0.029 C 
ATOM     30  C   UNL     1     -33.424  16.918  -0.404  0.00  0.00    +0.018 C 
BRANCH  28  31
ATOM     31  N   UNL     1     -31.260  16.801   0.721  0.00  0.00    -0.219 N 
ATOM     32  H   UNL     1     -31.127  16.030   1.320  0.00  0.00    +0.173 HD
BRANCH  31  33
ATOM     33  S   UNL     1     -29.942  17.469  -0.165  0.00  0.00    +0.056 S 
ATOM     34  O   UNL     1     -30.100  17.109  -1.562  0.00  0.00    -0.154 OA
ATOM     35  O   UNL     1     -29.708  18.847   0.219  0.00  0.00    -0.154 OA
ATOM     36  C   UNL     1     -28.603  16.489   0.473  0.00  0.00    +0.200 C 
ENDBRANCH  31  33
ENDBRANCH  28  31
ENDBRANCH  20  22
ENDBRANCH   1  20
TORSDOF 11
ENDMDL
MODEL 7
REMARK VINA RESULT:      -6.2      4.780      7.298
REMARK  Name = 197399
REMARK  11 active torsions:
REMARK  status: ('A' for Active; 'I' for Inactive)
REMARK    1  A    between atoms: N_1  and  C_4
REMARK    2  A    between atoms: N_1  and  C_20
REMARK    3  A    between atoms: C_4  and  C_5
REMARK    4  A    between atoms: C_5  and  C_6
REMARK    5  A    between atoms: C_6  and  O_7
REMARK    6  A    between atoms: O_7  and  C_8
REMARK    7  A    between atoms: C_11  and  N_14
REMARK    8  A    between atoms: N_14  and  S_16
REMARK    9  A    between atoms: C_20  and  C_22
REMARK   10  A    between atoms: C_28  and  N_31
REMARK   11  A    between atoms: N_31  and  S_33
REMARK                            x       y       z     vdW  Elec       q    Type
REMARK                         _______ _______ _______ _____ _____    ______ ____
ROOT
ATOM      1  N   UNL     1     -38.653  22.120   0.825  0.00  0.00    +0.390 N 
ATOM      2  C   UNL     1     -38.297  21.032  -0.084  0.00  0.00    -0.100 C 
ATOM      3  H   UNL     1     -38.138  22.955   0.547  0.00  0.00    -0.079 HD
ENDROOT
BRANCH   1   4
ATOM      4  C   UNL     1     -40.084  22.410   0.743  0.00  0.00    -0.073 C 
BRANCH   4   5
ATOM      5  C   UNL     1     -40.308  23.814   0.191  0.00  0.00    +0.025 C 
BRANCH   5   6
ATOM      6  C   UNL     1     -38.991  24.488  -0.173  0.00  0.00    +0.203 C 
BRANCH   6   7
ATOM      7  O   UNL     1     -38.734  25.529   0.759  0.00  0.00    -0.476 OA
BRANCH   7   8
ATOM      8  C   UNL     1     -37.435  25.953   0.869  0.00  0.00    +0.139 C 
ATOM      9  C   UNL     1     -36.445  25.384   0.068  0.00  0.00    +0.038 C 
ATOM     10  C   UNL     1     -37.103  26.951   1.784  0.00  0.00    +0.038 C 
ATOM     11  C   UNL     1     -34.792  26.814   1.096  0.00  0.00    +0.065 C 
ATOM     12  C   UNL     1     -35.124  25.815   0.181  0.00  0.00    +0.019 C 
ATOM     13  C   UNL     1     -35.782  27.382   1.898  0.00  0.00    +0.019 C 
BRANCH  11  14
ATOM     14  N   UNL     1     -33.438  27.255   1.212  0.00  0.00    -0.219 N 
ATOM     15  H   UNL     1     -32.807  26.796   1.813  0.00  0.00    +0.173 HD
BRANCH  14  16
ATOM     16  S   UNL     1     -32.941  28.611   0.274  0.00  0.00    +0.056 S 
ATOM     17  O   UNL     1     -34.050  29.015  -0.571  0.00  0.00    -0.154 OA
ATOM     18  O   UNL     1     -32.248  29.582   1.095  0.00  0.00    -0.154 OA
ATOM     19  C   UNL     1     -31.742  27.836  -0.787  0.00  0.00    +0.200 C 
ENDBRANCH  14  16
ENDBRANCH  11  14
ENDBRANCH   7   8
ENDBRANCH   6   7
ENDBRANCH   5   6
ENDBRANCH   4   5
ENDBRANCH   1   4
BRANCH   1  20
ATOM     20  C   UNL     1     -38.279  21.779   2.199  0.00  0.00    -0.017 C 
BRANCH  20  22
ATOM     21  N   UNL     1     -37.451  23.542   3.636  0.00  0.00    -0.412 NA
ATOM     22  C   UNL     1     -37.147  22.611   2.702  0.00  0.00    +0.087 C 
ATOM     23  C   UNL     1     -35.126  24.172   3.668  0.00  0.00    +0.097 C 
ATOM     24  C   UNL     1     -36.457  24.312   4.114  0.00  0.00    +0.116 C 
ATOM     25  C   UNL     1     -35.877  22.401   2.204  0.00  0.00    +0.022 C 
ATOM     26  C   UNL     1     -34.855  23.197   2.699  0.00  0.00    -0.013 C 
ATOM     27  C   UNL     1     -34.111  24.994   4.189  0.00  0.00    +0.001 C 
ATOM     28  C   UNL     1     -34.409  25.954   5.150  0.00  0.00    +0.061 C 
ATOM     29  C   UNL     1     -36.725  25.281   5.077  0.00  0.00    +0.029 C 
ATOM     30  C   UNL     1     -35.717  26.098   5.596  0.00  0.00    +0.018 C 
BRANCH  28  31
ATOM     31  N   UNL     1     -33.376  26.786   5.678  0.00  0.00    -0.219 N 
ATOM     32  H   UNL     1     -33.094  26.707   6.619  0.00  0.00    +0.173 HD
BRANCH  31  33
ATOM     33  S   UNL     1     -32.637  27.934   4.627  0.00  0.00    +0.056 S 
ATOM     34  O   UNL     1     -31.654  27.243   3.814  0.00  0.00    -0.154 OA
ATOM     35  O   UNL     1     -33.633  28.787   4.012  0.00  0.00    -0.154 OA
ATOM     36  C   UNL     1     -31.737  28.910   5.809  0.00  0.00    +0.200 C 
ENDBRANCH  31  33
ENDBRANCH  28  31
ENDBRANCH  20  22
ENDBRANCH   1  20
TORSDOF 11
ENDMDL
MODEL 8
REMARK VINA RESULT:      -6.2      2.101      9.212
REMARK  Name = 197399
REMARK  11 active torsions:
REMARK  status: ('A' for Active; 'I' for Inactive)
REMARK    1  A    between atoms: N_1  and  C_4
REMARK    2  A    between atoms: N_1  and  C_20
REMARK    3  A    between atoms: C_4  and  C_5
REMARK    4  A    between atoms: C_5  and  C_6
REMARK    5  A    between atoms: C_6  and  O_7
REMARK    6  A    between atoms: O_7  and  C_8
REMARK    7  A    between atoms: C_11  and  N_14
REMARK    8  A    between atoms: N_14  and  S_16
REMARK    9  A    between atoms: C_20  and  C_22
REMARK   10  A    between atoms: C_28  and  N_31
REMARK   11  A    between atoms: N_31  and  S_33
REMARK                            x       y       z     vdW  Elec       q    Type
REMARK                         _______ _______ _______ _____ _____    ______ ____
ROOT
ATOM      1  N   UNL     1     -37.548  21.334   0.554  0.00  0.00    +0.390 N 
ATOM      2  C   UNL     1     -38.124  20.035   0.212  0.00  0.00    -0.100 C 
ATOM      3  H   UNL     1     -36.642  21.180   0.996  0.00  0.00    -0.079 HD
ENDROOT
BRANCH   1   4
ATOM      4  C   UNL     1     -37.345  22.139  -0.650  0.00  0.00    -0.073 C 
BRANCH   4   5
ATOM      5  C   UNL     1     -36.059  21.721  -1.356  0.00  0.00    +0.025 C 
BRANCH   5   6
ATOM      6  C   UNL     1     -34.840  22.392  -0.736  0.00  0.00    +0.203 C 
BRANCH   6   7
ATOM      7  O   UNL     1     -34.630  21.856   0.562  0.00  0.00    -0.476 OA
BRANCH   7   8
ATOM      8  C   UNL     1     -33.752  20.808   0.664  0.00  0.00    +0.139 C 
ATOM      9  C   UNL     1     -32.491  20.894   0.073  0.00  0.00    +0.038 C 
ATOM     10  C   UNL     1     -34.119  19.655   1.357  0.00  0.00    +0.038 C 
ATOM     11  C   UNL     1     -31.966  18.674   0.869  0.00  0.00    +0.065 C 
ATOM     12  C   UNL     1     -31.599  19.827   0.176  0.00  0.00    +0.019 C 
ATOM     13  C   UNL     1     -33.227  18.588   1.460  0.00  0.00    +0.019 C 
BRANCH  11  14
ATOM     14  N   UNL     1     -31.052  17.582   0.974  0.00  0.00    -0.219 N 
ATOM     15  H   UNL     1     -30.390  17.545   1.702  0.00  0.00    +0.173 HD
BRANCH  14  16
ATOM     16  S   UNL     1     -31.140  16.332  -0.207  0.00  0.00    +0.056 S 
ATOM     17  O   UNL     1     -32.084  15.330   0.255  0.00  0.00    -0.154 OA
ATOM     18  O   UNL     1     -31.248  16.886  -1.541  0.00  0.00    -0.154 OA
ATOM     19  C   UNL     1     -29.516  15.625  -0.037  0.00  0.00    +0.200 C 
ENDBRANCH  14  16
ENDBRANCH  11  14
ENDBRANCH   7   8
ENDBRANCH   6   7
ENDBRANCH   5   6
ENDBRANCH   4   5
ENDBRANCH   1   4
BRANCH   1  20
ATOM     20  C   UNL     1     -38.412  22.041   1.501  0.00  0.00    -0.017 C 
BRANCH  20  22
ATOM     21  N   UNL     1     -36.640  22.821   2.954  0.00  0.00    -0.412 NA
ATOM     22  C   UNL     1     -37.703  23.160   2.189  0.00  0.00    +0.087 C 
ATOM     23  C   UNL     1     -36.360  25.156   3.480  0.00  0.00    +0.097 C 
ATOM     24  C   UNL     1     -35.975  23.803   3.590  0.00  0.00    +0.116 C 
ATOM     25  C   UNL     1     -38.155  24.454   2.021  0.00  0.00    +0.022 C 
ATOM     26  C   UNL     1     -37.468  25.463   2.679  0.00  0.00    -0.013 C 
ATOM     27  C   UNL     1     -35.644  26.157   4.159  0.00  0.00    +0.001 C 
ATOM     28  C   UNL     1     -34.547  25.823   4.948  0.00  0.00    +0.061 C 
ATOM     29  C   UNL     1     -34.874  23.499   4.387  0.00  0.00    +0.029 C 
ATOM     30  C   UNL     1     -34.161  24.493   5.062  0.00  0.00    +0.018 C 
BRANCH  28  31
ATOM     31  N   UNL     1     -33.821  26.842   5.636  0.00  0.00    -0.219 N 
ATOM     32  H   UNL     1     -33.936  26.978   6.605  0.00  0.00    +0.173 HD
BRANCH  31  33
ATOM     33  S   UNL     1     -32.739  27.827   4.726  0.00  0.00    +0.056 S 
ATOM     34  O   UNL     1     -31.901  26.961   3.918  0.00  0.00    -0.154 OA
ATOM     35  O   UNL     1     -33.439  28.944   4.125  0.00  0.00    -0.154 OA
ATOM     36  C   UNL     1     -31.717  28.463   6.034  0.00  0.00    +0.200 C 
ENDBRANCH  31  33
ENDBRANCH  28  31
ENDBRANCH  20  22
ENDBRANCH   1  20
TORSDOF 11
ENDMDL
MODEL 9
REMARK VINA RESULT:      -6.2      2.302      3.230
REMARK  Name = 197399
REMARK  11 active torsions:
REMARK  status: ('A' for Active; 'I' for Inactive)
REMARK    1  A    between atoms: N_1  and  C_4
REMARK    2  A    between atoms: N_1  and  C_20
REMARK    3  A    between atoms: C_4  and  C_5
REMARK    4  A    between atoms: C_5  and  C_6
REMARK    5  A    between atoms: C_6  and  O_7
REMARK    6  A    between atoms: O_7  and  C_8
REMARK    7  A    between atoms: C_11  and  N_14
REMARK    8  A    between atoms: N_14  and  S_16
REMARK    9  A    between atoms: C_20  and  C_22
REMARK   10  A    between atoms: C_28  and  N_31
REMARK   11  A    between atoms: N_31  and  S_33
REMARK                            x       y       z     vdW  Elec       q    Type
REMARK                         _______ _______ _______ _____ _____    ______ ____
ROOT
ATOM      1  N   UNL     1     -38.254  22.993   0.820  0.00  0.00    +0.390 N 
ATOM      2  C   UNL     1     -37.699  23.666  -0.352  0.00  0.00    -0.100 C 
ATOM      3  H   UNL     1     -37.643  23.173   1.616  0.00  0.00    -0.079 HD
ENDROOT
BRANCH   1   4
ATOM      4  C   UNL     1     -39.584  23.518   1.131  0.00  0.00    -0.073 C 
BRANCH   4   5
ATOM      5  C   UNL     1     -39.726  23.743   2.633  0.00  0.00    +0.025 C 
BRANCH   5   6
ATOM      6  C   UNL     1     -38.635  24.663   3.165  0.00  0.00    +0.203 C 
BRANCH   6   7
ATOM      7  O   UNL     1     -37.531  23.874   3.582  0.00  0.00    -0.476 OA
BRANCH   7   8
ATOM      8  C   UNL     1     -36.440  24.546   4.069  0.00  0.00    +0.139 C 
ATOM      9  C   UNL     1     -35.192  24.379   3.468  0.00  0.00    +0.038 C 
ATOM     10  C   UNL     1     -36.576  25.394   5.168  0.00  0.00    +0.038 C 
ATOM     11  C   UNL     1     -34.219  25.911   5.063  0.00  0.00    +0.065 C 
ATOM     12  C   UNL     1     -34.082  25.062   3.965  0.00  0.00    +0.019 C 
ATOM     13  C   UNL     1     -35.467  26.077   5.665  0.00  0.00    +0.019 C 
BRANCH  11  14
ATOM     14  N   UNL     1     -33.083  26.609   5.572  0.00  0.00    -0.219 N 
ATOM     15  H   UNL     1     -32.653  26.331   6.414  0.00  0.00    +0.173 HD
BRANCH  14  16
ATOM     16  S   UNL     1     -32.484  27.952   4.676  0.00  0.00    +0.056 S 
ATOM     17  O   UNL     1     -31.382  27.496   3.848  0.00  0.00    -0.154 OA
ATOM     18  O   UNL     1     -33.572  28.716   4.099  0.00  0.00    -0.154 OA
ATOM     19  C   UNL     1     -31.775  28.917   5.991  0.00  0.00    +0.200 C 
ENDBRANCH  14  16
ENDBRANCH  11  14
ENDBRANCH   7   8
ENDBRANCH   6   7
ENDBRANCH   5   6
ENDBRANCH   4   5
ENDBRANCH   1   4
BRANCH   1  20
ATOM     20  C   UNL     1     -38.316  21.548   0.598  0.00  0.00    -0.017 C 
BRANCH  20  22
ATOM     21  N   UNL     1     -36.582  19.961   0.018  0.00  0.00    -0.412 NA
ATOM     22  C   UNL     1     -37.026  20.868   0.919  0.00  0.00    +0.087 C 
ATOM     23  C   UNL     1     -34.674  19.585   1.440  0.00  0.00    +0.097 C 
ATOM     24  C   UNL     1     -35.423  19.327   0.273  0.00  0.00    +0.116 C 
ATOM     25  C   UNL     1     -36.365  21.187   2.088  0.00  0.00    +0.022 C 
ATOM     26  C   UNL     1     -35.170  20.531   2.347  0.00  0.00    -0.013 C 
ATOM     27  C   UNL     1     -33.466  18.904   1.675  0.00  0.00    +0.001 C 
ATOM     28  C   UNL     1     -32.997  17.969   0.758  0.00  0.00    +0.061 C 
ATOM     29  C   UNL     1     -34.929  18.387  -0.627  0.00  0.00    +0.029 C 
ATOM     30  C   UNL     1     -33.729  17.711  -0.395  0.00  0.00    +0.018 C 
BRANCH  28  31
ATOM     31  N   UNL     1     -31.770  17.280   0.998  0.00  0.00    -0.219 N 
ATOM     32  H   UNL     1     -31.758  16.425   1.486  0.00  0.00    +0.173 HD
BRANCH  31  33
ATOM     33  S   UNL     1     -30.312  17.987   0.414  0.00  0.00    +0.056 S 
ATOM     34  O   UNL     1     -30.580  19.370   0.067  0.00  0.00    -0.154 OA
ATOM     35  O   UNL     1     -29.193  17.646   1.270  0.00  0.00    -0.154 OA
ATOM     36  C   UNL     1     -30.121  17.098  -1.114  0.00  0.00    +0.200 C 
ENDBRANCH  31  33
ENDBRANCH  28  31
ENDBRANCH  20  22
ENDBRANCH   1  20
TORSDOF 11
ENDMDL
