MODEL 1
REMARK VINA RESULT:      -7.6      0.000      0.000
REMARK  Name = 198084
REMARK  4 active torsions:
REMARK  status: ('A' for Active; 'I' for Inactive)
REMARK    1  A    between atoms: C_4  and  O_26
REMARK    2  A    between atoms: C_19  and  O_28
REMARK    3  A    between atoms: C_21  and  O_30
REMARK    4  A    between atoms: C_22  and  O_32
REMARK                            x       y       z     vdW  Elec       q    Type
REMARK                         _______ _______ _______ _____ _____    ______ ____
ROOT
ATOM      1  O   UNL     1     -40.360  20.734  -0.202  0.00  0.00    -0.291 OA
ATOM      2  O   UNL     1     -38.162  26.684   2.976  0.00  0.00    -0.286 OA
ATOM      3  O   UNL     1     -34.954  20.404   3.894  0.00  0.00    -0.287 OA
ATOM      4  C   UNL     1     -37.347  22.958   1.670  0.00  0.00    +0.142 C 
ATOM      5  C   UNL     1     -37.980  20.950   0.132  0.00  0.00    +0.073 C 
ATOM      6  C   UNL     1     -37.236  21.467   1.376  0.00  0.00    -0.003 C 
ATOM      7  C   UNL     1     -38.748  23.495   1.449  0.00  0.00    +0.021 C 
ATOM      8  C   UNL     1     -36.834  23.362   3.042  0.00  0.00    +0.018 C 
ATOM      9  C   UNL     1     -39.715  22.800   0.713  0.00  0.00    +0.068 C 
ATOM     10  C   UNL     1     -39.434  21.438   0.194  0.00  0.00    +0.178 C 
ATOM     11  C   UNL     1     -39.084  24.768   1.947  0.00  0.00    +0.072 C 
ATOM     12  C   UNL     1     -35.996  22.534   3.790  0.00  0.00    +0.034 C 
ATOM     13  C   UNL     1     -37.129  24.641   3.544  0.00  0.00    +0.072 C 
ATOM     14  C   UNL     1     -36.493  20.664   2.161  0.00  0.00    +0.037 C 
ATOM     15  C   UNL     1     -37.998  19.406   0.016  0.00  0.00    +0.012 C 
ATOM     16  C   UNL     1     -37.358  21.488  -1.174  0.00  0.00    +0.012 C 
ATOM     17  C   UNL     1     -38.128  25.470   2.834  0.00  0.00    +0.201 C 
ATOM     18  C   UNL     1     -35.741  21.158   3.336  0.00  0.00    +0.195 C 
ATOM     19  C   UNL     1     -40.971  23.373   0.466  0.00  0.00    +0.139 C 
ATOM     20  C   UNL     1     -35.422  22.988   4.985  0.00  0.00    -0.016 C 
ATOM     21  C   UNL     1     -40.327  25.351   1.687  0.00  0.00    +0.139 C 
ATOM     22  C   UNL     1     -36.557  25.105   4.731  0.00  0.00    +0.136 C 
ATOM     23  C   UNL     1     -41.268  24.649   0.942  0.00  0.00    +0.073 C 
ATOM     24  C   UNL     1     -35.695  24.275   5.445  0.00  0.00    +0.033 C 
ATOM     25  C   UNL     1     -34.515  22.159   5.837  0.00  0.00    +0.031 C 
ENDROOT
BRANCH   4  26
ATOM     26  O   UNL     1     -36.517  23.630   0.704  0.00  0.00    -0.375 OA
ATOM     27  H   UNL     1     -36.805  23.393  -0.192  0.00  0.00    +0.211 HD
ENDBRANCH   4  26
BRANCH  19  28
ATOM     28  O   UNL     1     -41.940  22.746  -0.263  0.00  0.00    -0.505 OA
ATOM     29  H   UNL     1     -42.249  21.901  -0.001  0.00  0.00    +0.292 HD
ENDBRANCH  19  28
BRANCH  21  30
ATOM     30  O   UNL     1     -40.680  26.575   2.168  0.00  0.00    -0.505 OA
ATOM     31  H   UNL     1     -41.306  27.099   1.705  0.00  0.00    +0.292 HD
ENDBRANCH  21  30
BRANCH  22  32
ATOM     32  O   UNL     1     -36.833  26.335   5.247  0.00  0.00    -0.505 OA
ATOM     33  H   UNL     1     -37.708  26.550   5.505  0.00  0.00    +0.292 HD
ENDBRANCH  22  32
TORSDOF 4
ENDMDL
MODEL 2
REMARK VINA RESULT:      -7.1      3.707      5.340
REMARK  Name = 198084
REMARK  4 active torsions:
REMARK  status: ('A' for Active; 'I' for Inactive)
REMARK    1  A    between atoms: C_4  and  O_26
REMARK    2  A    between atoms: C_19  and  O_28
REMARK    3  A    between atoms: C_21  and  O_30
REMARK    4  A    between atoms: C_22  and  O_32
REMARK                            x       y       z     vdW  Elec       q    Type
REMARK                         _______ _______ _______ _____ _____    ______ ____
ROOT
ATOM      1  O   UNL     1     -35.296  20.590   4.066  0.00  0.00    -0.291 OA
ATOM      2  O   UNL     1     -35.135  27.513   2.524  0.00  0.00    -0.286 OA
ATOM      3  O   UNL     1     -31.770  22.609  -1.375  0.00  0.00    -0.287 OA
ATOM      4  C   UNL     1     -34.743  23.690   1.307  0.00  0.00    +0.142 C 
ATOM      5  C   UNL     1     -35.223  21.161   1.722  0.00  0.00    +0.073 C 
ATOM      6  C   UNL     1     -34.368  22.238   1.031  0.00  0.00    -0.003 C 
ATOM      7  C   UNL     1     -35.096  23.937   2.761  0.00  0.00    +0.021 C 
ATOM      8  C   UNL     1     -33.712  24.700   0.831  0.00  0.00    +0.018 C 
ATOM      9  C   UNL     1     -35.403  22.900   3.649  0.00  0.00    +0.068 C 
ATOM     10  C   UNL     1     -35.296  21.483   3.222  0.00  0.00    +0.178 C 
ATOM     11  C   UNL     1     -35.180  25.261   3.233  0.00  0.00    +0.072 C 
ATOM     12  C   UNL     1     -32.727  24.368  -0.100  0.00  0.00    +0.034 C 
ATOM     13  C   UNL     1     -33.798  26.034   1.264  0.00  0.00    +0.072 C 
ATOM     14  C   UNL     1     -33.356  21.935   0.197  0.00  0.00    +0.037 C 
ATOM     15  C   UNL     1     -34.657  19.727   1.568  0.00  0.00    +0.012 C 
ATOM     16  C   UNL     1     -36.665  21.133   1.175  0.00  0.00    +0.012 C 
ATOM     17  C   UNL     1     -34.739  26.369   2.355  0.00  0.00    +0.201 C 
ATOM     18  C   UNL     1     -32.554  22.964  -0.503  0.00  0.00    +0.195 C 
ATOM     19  C   UNL     1     -35.804  23.182   4.963  0.00  0.00    +0.139 C 
ATOM     20  C   UNL     1     -31.880  25.350  -0.629  0.00  0.00    -0.016 C 
ATOM     21  C   UNL     1     -35.597  25.547   4.536  0.00  0.00    +0.139 C 
ATOM     22  C   UNL     1     -32.962  27.023   0.738  0.00  0.00    +0.136 C 
ATOM     23  C   UNL     1     -35.911  24.503   5.398  0.00  0.00    +0.073 C 
ATOM     24  C   UNL     1     -32.009  26.676  -0.217  0.00  0.00    +0.033 C 
ATOM     25  C   UNL     1     -30.806  25.069  -1.629  0.00  0.00    +0.031 C 
ENDROOT
BRANCH   4  26
ATOM     26  O   UNL     1     -35.950  23.950   0.564  0.00  0.00    -0.375 OA
ATOM     27  H   UNL     1     -35.791  24.667  -0.070  0.00  0.00    +0.211 HD
ENDBRANCH   4  26
BRANCH  19  28
ATOM     28  O   UNL     1     -36.134  22.210   5.861  0.00  0.00    -0.505 OA
ATOM     29  H   UNL     1     -36.912  21.702   5.737  0.00  0.00    +0.292 HD
ENDBRANCH  19  28
BRANCH  21  30
ATOM     30  O   UNL     1     -35.675  26.818   5.020  0.00  0.00    -0.505 OA
ATOM     31  H   UNL     1     -34.892  27.280   5.253  0.00  0.00    +0.292 HD
ENDBRANCH  21  30
BRANCH  22  32
ATOM     32  O   UNL     1     -33.015  28.322   1.146  0.00  0.00    -0.505 OA
ATOM     33  H   UNL     1     -32.712  29.004   0.579  0.00  0.00    +0.292 HD
ENDBRANCH  22  32
TORSDOF 4
ENDMDL
MODEL 3
REMARK VINA RESULT:      -7.1      2.389      6.539
REMARK  Name = 198084
REMARK  4 active torsions:
REMARK  status: ('A' for Active; 'I' for Inactive)
REMARK    1  A    between atoms: C_4  and  O_26
REMARK    2  A    between atoms: C_19  and  O_28
REMARK    3  A    between atoms: C_21  and  O_30
REMARK    4  A    between atoms: C_22  and  O_32
REMARK                            x       y       z     vdW  Elec       q    Type
REMARK                         _______ _______ _______ _____ _____    ______ ____
ROOT
ATOM      1  O   UNL     1     -35.625  26.969   4.434  0.00  0.00    -0.291 OA
ATOM      2  O   UNL     1     -35.251  20.031   3.000  0.00  0.00    -0.286 OA
ATOM      3  O   UNL     1     -38.056  24.759  -1.510  0.00  0.00    -0.287 OA
ATOM      4  C   UNL     1     -35.565  23.823   1.671  0.00  0.00    +0.142 C 
ATOM      5  C   UNL     1     -35.261  26.373   2.123  0.00  0.00    +0.073 C 
ATOM      6  C   UNL     1     -35.939  25.256   1.310  0.00  0.00    -0.003 C 
ATOM      7  C   UNL     1     -35.465  23.604   3.169  0.00  0.00    +0.021 C 
ATOM      8  C   UNL     1     -36.457  22.769   1.038  0.00  0.00    +0.018 C 
ATOM      9  C   UNL     1     -35.359  24.661   4.080  0.00  0.00    +0.068 C 
ATOM     10  C   UNL     1     -35.441  26.068   3.617  0.00  0.00    +0.178 C 
ATOM     11  C   UNL     1     -35.416  22.289   3.670  0.00  0.00    +0.072 C 
ATOM     12  C   UNL     1     -37.273  23.053  -0.058  0.00  0.00    +0.034 C 
ATOM     13  C   UNL     1     -36.399  21.443   1.501  0.00  0.00    +0.072 C 
ATOM     14  C   UNL     1     -36.799  25.511   0.306  0.00  0.00    +0.037 C 
ATOM     15  C   UNL     1     -35.844  27.781   1.848  0.00  0.00    +0.012 C 
ATOM     16  C   UNL     1     -33.747  26.453   1.839  0.00  0.00    +0.012 C 
ATOM     17  C   UNL     1     -35.654  21.156   2.746  0.00  0.00    +0.201 C 
ATOM     18  C   UNL     1     -37.425  24.445  -0.508  0.00  0.00    +0.195 C 
ATOM     19  C   UNL     1     -35.186  24.407   5.448  0.00  0.00    +0.139 C 
ATOM     20  C   UNL     1     -37.976  22.032  -0.711  0.00  0.00    -0.016 C 
ATOM     21  C   UNL     1     -35.226  22.031   5.030  0.00  0.00    +0.139 C 
ATOM     22  C   UNL     1     -37.091  20.417   0.852  0.00  0.00    +0.136 C 
ATOM     23  C   UNL     1     -35.108  23.096   5.917  0.00  0.00    +0.073 C 
ATOM     24  C   UNL     1     -37.873  20.716  -0.261  0.00  0.00    +0.033 C 
ATOM     25  C   UNL     1     -38.867  22.261  -1.890  0.00  0.00    +0.031 C 
ENDROOT
BRANCH   4  26
ATOM     26  O   UNL     1     -34.237  23.604   1.157  0.00  0.00    -0.375 OA
ATOM     27  H   UNL     1     -33.867  22.798   1.550  0.00  0.00    +0.211 HD
ENDBRANCH   4  26
BRANCH  19  28
ATOM     28  O   UNL     1     -35.057  25.400   6.375  0.00  0.00    -0.505 OA
ATOM     29  H   UNL     1     -34.249  25.506   6.839  0.00  0.00    +0.292 HD
ENDBRANCH  19  28
BRANCH  21  30
ATOM     30  O   UNL     1     -35.187  20.770   5.541  0.00  0.00    -0.505 OA
ATOM     31  H   UNL     1     -34.830  20.068   5.032  0.00  0.00    +0.292 HD
ENDBRANCH  21  30
BRANCH  22  32
ATOM     32  O   UNL     1     -37.063  19.125   1.284  0.00  0.00    -0.505 OA
ATOM     33  H   UNL     1     -36.246  18.668   1.342  0.00  0.00    +0.292 HD
ENDBRANCH  22  32
TORSDOF 4
ENDMDL
MODEL 4
REMARK VINA RESULT:      -7.0      1.658      1.700
REMARK  Name = 198084
REMARK  4 active torsions:
REMARK  status: ('A' for Active; 'I' for Inactive)
REMARK    1  A    between atoms: C_4  and  O_26
REMARK    2  A    between atoms: C_19  and  O_28
REMARK    3  A    between atoms: C_21  and  O_30
REMARK    4  A    between atoms: C_22  and  O_32
REMARK                            x       y       z     vdW  Elec       q    Type
REMARK                         _______ _______ _______ _____ _____    ______ ____
ROOT
ATOM      1  O   UNL     1     -38.524  21.654  -1.478  0.00  0.00    -0.291 OA
ATOM      2  O   UNL     1     -36.743  27.246   2.508  0.00  0.00    -0.286 OA
ATOM      3  O   UNL     1     -35.094  20.559   4.279  0.00  0.00    -0.287 OA
ATOM      4  C   UNL     1     -36.093  23.413   1.441  0.00  0.00    +0.142 C 
ATOM      5  C   UNL     1     -36.424  21.500  -0.298  0.00  0.00    +0.073 C 
ATOM      6  C   UNL     1     -36.112  21.917   1.150  0.00  0.00    -0.003 C 
ATOM      7  C   UNL     1     -37.217  24.160   0.749  0.00  0.00    +0.021 C 
ATOM      8  C   UNL     1     -36.057  23.759   2.920  0.00  0.00    +0.018 C 
ATOM      9  C   UNL     1     -37.945  23.611  -0.313  0.00  0.00    +0.068 C 
ATOM     10  C   UNL     1     -37.708  22.212  -0.747  0.00  0.00    +0.178 C 
ATOM     11  C   UNL     1     -37.511  25.480   1.142  0.00  0.00    +0.072 C 
ATOM     12  C   UNL     1     -35.686  22.824   3.888  0.00  0.00    +0.034 C 
ATOM     13  C   UNL     1     -36.314  25.078   3.331  0.00  0.00    +0.072 C 
ATOM     14  C   UNL     1     -35.839  21.024   2.118  0.00  0.00    +0.037 C 
ATOM     15  C   UNL     1     -36.636  19.975  -0.473  0.00  0.00    +0.012 C 
ATOM     16  C   UNL     1     -35.296  21.908  -1.269  0.00  0.00    +0.012 C 
ATOM     17  C   UNL     1     -36.847  26.040   2.341  0.00  0.00    +0.201 C 
ATOM     18  C   UNL     1     -35.499  21.417   3.504  0.00  0.00    +0.195 C 
ATOM     19  C   UNL     1     -38.921  24.369  -0.975  0.00  0.00    +0.139 C 
ATOM     20  C   UNL     1     -35.523  23.206   5.227  0.00  0.00    -0.016 C 
ATOM     21  C   UNL     1     -38.469  26.246   0.472  0.00  0.00    +0.139 C 
ATOM     22  C   UNL     1     -36.148  25.469   4.662  0.00  0.00    +0.136 C 
ATOM     23  C   UNL     1     -39.171  25.686  -0.589  0.00  0.00    +0.073 C 
ATOM     24  C   UNL     1     -35.743  24.529   5.606  0.00  0.00    +0.033 C 
ATOM     25  C   UNL     1     -35.126  22.262   6.316  0.00  0.00    +0.031 C 
ENDROOT
BRANCH   4  26
ATOM     26  O   UNL     1     -34.875  23.927   0.867  0.00  0.00    -0.375 OA
ATOM     27  H   UNL     1     -34.356  23.195   0.500  0.00  0.00    +0.211 HD
ENDBRANCH   4  26
BRANCH  19  28
ATOM     28  O   UNL     1     -39.643  23.889  -2.028  0.00  0.00    -0.505 OA
ATOM     29  H   UNL     1     -40.415  23.379  -1.873  0.00  0.00    +0.292 HD
ENDBRANCH  19  28
BRANCH  21  30
ATOM     30  O   UNL     1     -38.780  27.519   0.840  0.00  0.00    -0.505 OA
ATOM     31  H   UNL     1     -38.243  28.234   0.557  0.00  0.00    +0.292 HD
ENDBRANCH  21  30
BRANCH  22  32
ATOM     32  O   UNL     1     -36.400  26.738   5.090  0.00  0.00    -0.505 OA
ATOM     33  H   UNL     1     -36.890  26.878   5.877  0.00  0.00    +0.292 HD
ENDBRANCH  22  32
TORSDOF 4
ENDMDL
MODEL 5
REMARK VINA RESULT:      -6.9      2.080      6.656
REMARK  Name = 198084
REMARK  4 active torsions:
REMARK  status: ('A' for Active; 'I' for Inactive)
REMARK    1  A    between atoms: C_4  and  O_26
REMARK    2  A    between atoms: C_19  and  O_28
REMARK    3  A    between atoms: C_21  and  O_30
REMARK    4  A    between atoms: C_22  and  O_32
REMARK                            x       y       z     vdW  Elec       q    Type
REMARK                         _______ _______ _______ _____ _____    ______ ____
ROOT
ATOM      1  O   UNL     1     -34.479  27.382   4.432  0.00  0.00    -0.291 OA
ATOM      2  O   UNL     1     -37.062  21.027   2.624  0.00  0.00    -0.286 OA
ATOM      3  O   UNL     1     -39.794  27.133   0.213  0.00  0.00    -0.287 OA
ATOM      4  C   UNL     1     -36.645  24.951   1.801  0.00  0.00    +0.142 C 
ATOM      5  C   UNL     1     -35.357  27.184   2.192  0.00  0.00    +0.073 C 
ATOM      6  C   UNL     1     -36.643  26.474   1.734  0.00  0.00    -0.003 C 
ATOM      7  C   UNL     1     -35.993  24.420   3.063  0.00  0.00    +0.021 C 
ATOM      8  C   UNL     1     -38.014  24.322   1.604  0.00  0.00    +0.018 C 
ATOM      9  C   UNL     1     -35.167  25.206   3.873  0.00  0.00    +0.068 C 
ATOM     10  C   UNL     1     -34.970  26.647   3.578  0.00  0.00    +0.178 C 
ATOM     11  C   UNL     1     -36.171  23.067   3.412  0.00  0.00    +0.072 C 
ATOM     12  C   UNL     1     -39.077  25.026   1.036  0.00  0.00    +0.034 C 
ATOM     13  C   UNL     1     -38.205  22.964   1.915  0.00  0.00    +0.072 C 
ATOM     14  C   UNL     1     -37.712  27.144   1.265  0.00  0.00    +0.037 C 
ATOM     15  C   UNL     1     -35.501  28.722   2.298  0.00  0.00    +0.012 C 
ATOM     16  C   UNL     1     -34.178  26.910   1.236  0.00  0.00    +0.012 C 
ATOM     17  C   UNL     1     -37.139  22.247   2.648  0.00  0.00    +0.201 C 
ATOM     18  C   UNL     1     -38.938  26.468   0.784  0.00  0.00    +0.195 C 
ATOM     19  C   UNL     1     -34.520  24.648   4.985  0.00  0.00    +0.139 C 
ATOM     20  C   UNL     1     -40.284  24.382   0.735  0.00  0.00    -0.016 C 
ATOM     21  C   UNL     1     -35.514  22.503   4.509  0.00  0.00    +0.139 C 
ATOM     22  C   UNL     1     -39.403  22.311   1.613  0.00  0.00    +0.136 C 
ATOM     23  C   UNL     1     -34.686  23.298   5.292  0.00  0.00    +0.073 C 
ATOM     24  C   UNL     1     -40.438  23.024   1.013  0.00  0.00    +0.033 C 
ATOM     25  C   UNL     1     -41.462  25.071   0.124  0.00  0.00    +0.031 C 
ENDROOT
BRANCH   4  26
ATOM     26  O   UNL     1     -35.819  24.491   0.714  0.00  0.00    -0.375 OA
ATOM     27  H   UNL     1     -35.895  23.528   0.635  0.00  0.00    +0.211 HD
ENDBRANCH   4  26
BRANCH  19  28
ATOM     28  O   UNL     1     -33.688  25.366   5.794  0.00  0.00    -0.505 OA
ATOM     29  H   UNL     1     -33.531  26.273   5.618  0.00  0.00    +0.292 HD
ENDBRANCH  19  28
BRANCH  21  30
ATOM     30  O   UNL     1     -35.679  21.201   4.874  0.00  0.00    -0.505 OA
ATOM     31  H   UNL     1     -35.055  20.555   4.604  0.00  0.00    +0.292 HD
ENDBRANCH  21  30
BRANCH  22  32
ATOM     32  O   UNL     1     -39.619  21.000   1.911  0.00  0.00    -0.505 OA
ATOM     33  H   UNL     1     -38.892  20.426   2.056  0.00  0.00    +0.292 HD
ENDBRANCH  22  32
TORSDOF 4
ENDMDL
MODEL 6
REMARK VINA RESULT:      -6.9      2.074      4.791
REMARK  Name = 198084
REMARK  4 active torsions:
REMARK  status: ('A' for Active; 'I' for Inactive)
REMARK    1  A    between atoms: C_4  and  O_26
REMARK    2  A    between atoms: C_19  and  O_28
REMARK    3  A    between atoms: C_21  and  O_30
REMARK    4  A    between atoms: C_22  and  O_32
REMARK                            x       y       z     vdW  Elec       q    Type
REMARK                         _______ _______ _______ _____ _____    ______ ____
ROOT
ATOM      1  O   UNL     1     -39.274  22.360  -0.428  0.00  0.00    -0.291 OA
ATOM      2  O   UNL     1     -34.994  23.036   5.189  0.00  0.00    -0.286 OA
ATOM      3  O   UNL     1     -37.031  28.559   1.201  0.00  0.00    -0.287 OA
ATOM      4  C   UNL     1     -37.610  24.704   2.615  0.00  0.00    +0.142 C 
ATOM      5  C   UNL     1     -39.506  24.392   0.853  0.00  0.00    +0.073 C 
ATOM      6  C   UNL     1     -38.394  25.278   1.442  0.00  0.00    -0.003 C 
ATOM      7  C   UNL     1     -37.278  23.235   2.435  0.00  0.00    +0.021 C 
ATOM      8  C   UNL     1     -36.360  25.491   2.974  0.00  0.00    +0.018 C 
ATOM      9  C   UNL     1     -37.929  22.425   1.498  0.00  0.00    +0.068 C 
ATOM     10  C   UNL     1     -38.919  23.004   0.556  0.00  0.00    +0.178 C 
ATOM     11  C   UNL     1     -36.322  22.637   3.278  0.00  0.00    +0.072 C 
ATOM     12  C   UNL     1     -36.163  26.803   2.540  0.00  0.00    +0.034 C 
ATOM     13  C   UNL     1     -35.409  24.925   3.840  0.00  0.00    +0.072 C 
ATOM     14  C   UNL     1     -38.131  26.514   0.977  0.00  0.00    +0.037 C 
ATOM     15  C   UNL     1     -40.112  24.946  -0.460  0.00  0.00    +0.012 C 
ATOM     16  C   UNL     1     -40.675  24.206   1.842  0.00  0.00    +0.012 C 
ATOM     17  C   UNL     1     -35.529  23.493   4.190  0.00  0.00    +0.201 C 
ATOM     18  C   UNL     1     -37.091  27.390   1.562  0.00  0.00    +0.195 C 
ATOM     19  C   UNL     1     -37.647  21.053   1.424  0.00  0.00    +0.139 C 
ATOM     20  C   UNL     1     -35.073  27.553   3.000  0.00  0.00    -0.016 C 
ATOM     21  C   UNL     1     -36.052  21.267   3.221  0.00  0.00    +0.139 C 
ATOM     22  C   UNL     1     -34.322  25.668   4.310  0.00  0.00    +0.136 C 
ATOM     23  C   UNL     1     -36.720  20.477   2.292  0.00  0.00    +0.073 C 
ATOM     24  C   UNL     1     -34.164  26.987   3.893  0.00  0.00    +0.033 C 
ATOM     25  C   UNL     1     -34.801  28.962   2.582  0.00  0.00    +0.031 C 
ENDROOT
BRANCH   4  26
ATOM     26  O   UNL     1     -38.480  24.768   3.761  0.00  0.00    -0.375 OA
ATOM     27  H   UNL     1     -38.213  25.507   4.330  0.00  0.00    +0.211 HD
ENDBRANCH   4  26
BRANCH  19  28
ATOM     28  O   UNL     1     -38.268  20.216   0.543  0.00  0.00    -0.505 OA
ATOM     29  H   UNL     1     -37.775  19.807  -0.141  0.00  0.00    +0.292 HD
ENDBRANCH  19  28
BRANCH  21  30
ATOM     30  O   UNL     1     -35.123  20.667   4.016  0.00  0.00    -0.505 OA
ATOM     31  H   UNL     1     -34.336  21.123   4.245  0.00  0.00    +0.292 HD
ENDBRANCH  21  30
BRANCH  22  32
ATOM     32  O   UNL     1     -33.380  25.143   5.142  0.00  0.00    -0.505 OA
ATOM     33  H   UNL     1     -32.705  24.591   4.797  0.00  0.00    +0.292 HD
ENDBRANCH  22  32
TORSDOF 4
ENDMDL
MODEL 7
REMARK VINA RESULT:      -6.9      6.382     10.259
REMARK  Name = 198084
REMARK  4 active torsions:
REMARK  status: ('A' for Active; 'I' for Inactive)
REMARK    1  A    between atoms: C_4  and  O_26
REMARK    2  A    between atoms: C_19  and  O_28
REMARK    3  A    between atoms: C_21  and  O_30
REMARK    4  A    between atoms: C_22  and  O_32
REMARK                            x       y       z     vdW  Elec       q    Type
REMARK                         _______ _______ _______ _____ _____    ______ ____
ROOT
ATOM      1  O   UNL     1     -42.033  28.860   4.493  0.00  0.00    -0.291 OA
ATOM      2  O   UNL     1     -46.585  24.124   1.811  0.00  0.00    -0.286 OA
ATOM      3  O   UNL     1     -47.372  27.012   8.262  0.00  0.00    -0.287 OA
ATOM      4  C   UNL     1     -45.838  27.114   4.410  0.00  0.00    +0.142 C 
ATOM      5  C   UNL     1     -44.351  29.140   5.106  0.00  0.00    +0.073 C 
ATOM      6  C   UNL     1     -45.366  28.056   5.511  0.00  0.00    -0.003 C 
ATOM      7  C   UNL     1     -44.713  26.677   3.492  0.00  0.00    +0.021 C 
ATOM      8  C   UNL     1     -46.613  25.908   4.913  0.00  0.00    +0.018 C 
ATOM      9  C   UNL     1     -43.484  27.344   3.435  0.00  0.00    +0.068 C 
ATOM     10  C   UNL     1     -43.190  28.467   4.359  0.00  0.00    +0.178 C 
ATOM     11  C   UNL     1     -44.921  25.594   2.616  0.00  0.00    +0.072 C 
ATOM     12  C   UNL     1     -47.171  25.869   6.192  0.00  0.00    +0.034 C 
ATOM     13  C   UNL     1     -46.861  24.831   4.044  0.00  0.00    +0.072 C 
ATOM     14  C   UNL     1     -45.849  27.948   6.763  0.00  0.00    +0.037 C 
ATOM     15  C   UNL     1     -43.760  29.918   6.308  0.00  0.00    +0.012 C 
ATOM     16  C   UNL     1     -44.976  30.186   4.160  0.00  0.00    +0.012 C 
ATOM     17  C   UNL     1     -46.159  24.792   2.743  0.00  0.00    +0.201 C 
ATOM     18  C   UNL     1     -46.855  26.936   7.154  0.00  0.00    +0.195 C 
ATOM     19  C   UNL     1     -42.503  26.953   2.512  0.00  0.00    +0.139 C 
ATOM     20  C   UNL     1     -48.000  24.808   6.580  0.00  0.00    -0.016 C 
ATOM     21  C   UNL     1     -43.954  25.213   1.682  0.00  0.00    +0.139 C 
ATOM     22  C   UNL     1     -47.692  23.772   4.420  0.00  0.00    +0.136 C 
ATOM     23  C   UNL     1     -42.745  25.899   1.631  0.00  0.00    +0.073 C 
ATOM     24  C   UNL     1     -48.267  23.770   5.688  0.00  0.00    +0.033 C 
ATOM     25  C   UNL     1     -48.633  24.700   7.930  0.00  0.00    +0.031 C 
ENDROOT
BRANCH   4  26
ATOM     26  O   UNL     1     -46.743  27.870   3.582  0.00  0.00    -0.375 OA
ATOM     27  H   UNL     1     -47.211  27.270   2.982  0.00  0.00    +0.211 HD
ENDBRANCH   4  26
BRANCH  19  28
ATOM     28  O   UNL     1     -41.298  27.583   2.401  0.00  0.00    -0.505 OA
ATOM     29  H   UNL     1     -40.512  27.137   2.650  0.00  0.00    +0.292 HD
ENDBRANCH  19  28
BRANCH  21  30
ATOM     30  O   UNL     1     -44.126  24.163   0.832  0.00  0.00    -0.505 OA
ATOM     31  H   UNL     1     -43.457  23.510   0.751  0.00  0.00    +0.292 HD
ENDBRANCH  21  30
BRANCH  22  32
ATOM     32  O   UNL     1     -47.941  22.711   3.603  0.00  0.00    -0.505 OA
ATOM     33  H   UNL     1     -47.446  22.599   2.814  0.00  0.00    +0.292 HD
ENDBRANCH  22  32
TORSDOF 4
ENDMDL
MODEL 8
REMARK VINA RESULT:      -6.8      3.531      5.820
REMARK  Name = 198084
REMARK  4 active torsions:
REMARK  status: ('A' for Active; 'I' for Inactive)
REMARK    1  A    between atoms: C_4  and  O_26
REMARK    2  A    between atoms: C_19  and  O_28
REMARK    3  A    between atoms: C_21  and  O_30
REMARK    4  A    between atoms: C_22  and  O_32
REMARK                            x       y       z     vdW  Elec       q    Type
REMARK                         _______ _______ _______ _____ _____    ______ ____
ROOT
ATOM      1  O   UNL     1     -32.796  23.870  -2.143  0.00  0.00    -0.291 OA
ATOM      2  O   UNL     1     -36.014  20.176   2.988  0.00  0.00    -0.286 OA
ATOM      3  O   UNL     1     -34.287  27.040   3.675  0.00  0.00    -0.287 OA
ATOM      4  C   UNL     1     -35.152  23.741   1.315  0.00  0.00    +0.142 C 
ATOM      5  C   UNL     1     -34.367  25.088  -0.774  0.00  0.00    +0.073 C 
ATOM      6  C   UNL     1     -34.550  25.023   0.752  0.00  0.00    -0.003 C 
ATOM      7  C   UNL     1     -34.605  22.495   0.646  0.00  0.00    +0.021 C 
ATOM      8  C   UNL     1     -35.055  23.619   2.827  0.00  0.00    +0.018 C 
ATOM      9  C   UNL     1     -33.925  22.531  -0.576  0.00  0.00    +0.068 C 
ATOM     10  C   UNL     1     -33.619  23.827  -1.231  0.00  0.00    +0.178 C 
ATOM     11  C   UNL     1     -34.836  21.238   1.239  0.00  0.00    +0.072 C 
ATOM     12  C   UNL     1     -34.803  24.724   3.642  0.00  0.00    +0.034 C 
ATOM     13  C   UNL     1     -35.314  22.382   3.441  0.00  0.00    +0.072 C 
ATOM     14  C   UNL     1     -34.229  26.048   1.564  0.00  0.00    +0.037 C 
ATOM     15  C   UNL     1     -33.561  26.322  -1.251  0.00  0.00    +0.012 C 
ATOM     16  C   UNL     1     -35.720  25.126  -1.514  0.00  0.00    +0.012 C 
ATOM     17  C   UNL     1     -35.438  21.178   2.591  0.00  0.00    +0.201 C 
ATOM     18  C   UNL     1     -34.439  26.010   3.029  0.00  0.00    +0.195 C 
ATOM     19  C   UNL     1     -33.510  21.344  -1.196  0.00  0.00    +0.139 C 
ATOM     20  C   UNL     1     -34.860  24.612   5.038  0.00  0.00    -0.016 C 
ATOM     21  C   UNL     1     -34.440  20.052   0.615  0.00  0.00    +0.139 C 
ATOM     22  C   UNL     1     -35.379  22.262   4.832  0.00  0.00    +0.136 C 
ATOM     23  C   UNL     1     -33.778  20.110  -0.606  0.00  0.00    +0.073 C 
ATOM     24  C   UNL     1     -35.160  23.384   5.627  0.00  0.00    +0.033 C 
ATOM     25  C   UNL     1     -34.604  25.750   5.972  0.00  0.00    +0.031 C 
ENDROOT
BRANCH   4  26
ATOM     26  O   UNL     1     -36.556  23.771   0.993  0.00  0.00    -0.375 OA
ATOM     27  H   UNL     1     -37.068  23.430   1.743  0.00  0.00    +0.211 HD
ENDBRANCH   4  26
BRANCH  19  28
ATOM     28  O   UNL     1     -32.862  21.324  -2.398  0.00  0.00    -0.505 OA
ATOM     29  H   UNL     1     -33.355  21.315  -3.195  0.00  0.00    +0.292 HD
ENDBRANCH  19  28
BRANCH  21  30
ATOM     30  O   UNL     1     -34.640  18.826   1.173  0.00  0.00    -0.505 OA
ATOM     31  H   UNL     1     -33.984  18.450   1.728  0.00  0.00    +0.292 HD
ENDBRANCH  21  30
BRANCH  22  32
ATOM     32  O   UNL     1     -35.618  21.074   5.455  0.00  0.00    -0.505 OA
ATOM     33  H   UNL     1     -35.960  21.063   6.328  0.00  0.00    +0.292 HD
ENDBRANCH  22  32
TORSDOF 4
ENDMDL
MODEL 9
REMARK VINA RESULT:      -6.8      3.706      5.644
REMARK  Name = 198084
REMARK  4 active torsions:
REMARK  status: ('A' for Active; 'I' for Inactive)
REMARK    1  A    between atoms: C_4  and  O_26
REMARK    2  A    between atoms: C_19  and  O_28
REMARK    3  A    between atoms: C_21  and  O_30
REMARK    4  A    between atoms: C_22  and  O_32
REMARK                            x       y       z     vdW  Elec       q    Type
REMARK                         _______ _______ _______ _____ _____    ______ ____
ROOT
ATOM      1  O   UNL     1     -32.020  21.495  -1.274  0.00  0.00    -0.291 OA
ATOM      2  O   UNL     1     -37.013  22.500   3.665  0.00  0.00    -0.286 OA
ATOM      3  O   UNL     1     -31.832  27.204   2.399  0.00  0.00    -0.287 OA
ATOM      4  C   UNL     1     -34.241  24.054   1.185  0.00  0.00    +0.142 C 
ATOM      5  C   UNL     1     -32.733  23.774  -0.923  0.00  0.00    +0.073 C 
ATOM      6  C   UNL     1     -33.004  24.493   0.411  0.00  0.00    -0.003 C 
ATOM      7  C   UNL     1     -34.436  22.550   1.175  0.00  0.00    +0.021 C 
ATOM      8  C   UNL     1     -34.309  24.590   2.605  0.00  0.00    +0.018 C 
ATOM      9  C   UNL     1     -33.783  21.711   0.265  0.00  0.00    +0.068 C 
ATOM     10  C   UNL     1     -32.779  22.259  -0.680  0.00  0.00    +0.178 C 
ATOM     11  C   UNL     1     -35.352  21.969   2.073  0.00  0.00    +0.072 C 
ATOM     12  C   UNL     1     -33.536  25.674   3.023  0.00  0.00    +0.034 C 
ATOM     13  C   UNL     1     -35.239  24.047   3.508  0.00  0.00    +0.072 C 
ATOM     14  C   UNL     1     -32.217  25.481   0.874  0.00  0.00    +0.037 C 
ATOM     15  C   UNL     1     -31.356  24.118  -1.544  0.00  0.00    +0.012 C 
ATOM     16  C   UNL     1     -33.799  24.113  -1.985  0.00  0.00    +0.012 C 
ATOM     17  C   UNL     1     -35.960  22.812   3.129  0.00  0.00    +0.201 C 
ATOM     18  C   UNL     1     -32.491  26.206   2.135  0.00  0.00    +0.195 C 
ATOM     19  C   UNL     1     -34.057  20.336   0.241  0.00  0.00    +0.139 C 
ATOM     20  C   UNL     1     -33.720  26.238   4.293  0.00  0.00    -0.016 C 
ATOM     21  C   UNL     1     -35.641  20.603   2.040  0.00  0.00    +0.139 C 
ATOM     22  C   UNL     1     -35.435  24.607   4.773  0.00  0.00    +0.136 C 
ATOM     23  C   UNL     1     -34.992  19.789   1.119  0.00  0.00    +0.073 C 
ATOM     24  C   UNL     1     -34.678  25.710   5.158  0.00  0.00    +0.033 C 
ATOM     25  C   UNL     1     -32.931  27.399   4.807  0.00  0.00    +0.031 C 
ENDROOT
BRANCH   4  26
ATOM     26  O   UNL     1     -35.377  24.597   0.484  0.00  0.00    -0.375 OA
ATOM     27  H   UNL     1     -35.752  23.919  -0.099  0.00  0.00    +0.211 HD
ENDBRANCH   4  26
BRANCH  19  28
ATOM     28  O   UNL     1     -33.463  19.479  -0.639  0.00  0.00    -0.505 OA
ATOM     29  H   UNL     1     -33.957  18.775  -1.013  0.00  0.00    +0.292 HD
ENDBRANCH  19  28
BRANCH  21  30
ATOM     30  O   UNL     1     -36.513  20.015   2.906  0.00  0.00    -0.505 OA
ATOM     31  H   UNL     1     -37.137  20.538   3.371  0.00  0.00    +0.292 HD
ENDBRANCH  21  30
BRANCH  22  32
ATOM     32  O   UNL     1     -36.322  24.095   5.672  0.00  0.00    -0.505 OA
ATOM     33  H   UNL     1     -37.166  24.490   5.775  0.00  0.00    +0.292 HD
ENDBRANCH  22  32
TORSDOF 4
ENDMDL
