MODEL 1
REMARK VINA RESULT:      -6.4      0.000      0.000
REMARK  Name = 5320287
REMARK  6 active torsions:
REMARK  status: ('A' for Active; 'I' for Inactive)
REMARK    1  A    between atoms: C_5  and  C_12
REMARK    2  A    between atoms: C_6  and  O_22
REMARK    3  A    between atoms: C_8  and  O_26
REMARK    4  A    between atoms: C_10  and  O_24
REMARK    5  A    between atoms: C_15  and  O_20
REMARK    6  A    between atoms: C_16  and  O_18
REMARK                            x       y       z     vdW  Elec       q    Type
REMARK                         _______ _______ _______ _____ _____    ______ ____
ROOT
ATOM      1  O   UNL     1     -34.787  23.854   3.261  0.00  0.00    -0.450 OA
ATOM      2  O   UNL     1     -38.831  24.314   3.456  0.00  0.00    -0.283 OA
ATOM      3  C   UNL     1     -37.003  22.972   2.809  0.00  0.00    +0.110 A 
ATOM      4  C   UNL     1     -35.614  22.877   2.770  0.00  0.00    +0.155 A 
ATOM      5  C   UNL     1     -35.360  24.982   3.829  0.00  0.00    +0.182 A 
ATOM      6  C   UNL     1     -36.684  25.200   3.919  0.00  0.00    +0.208 A 
ATOM      7  C   UNL     1     -37.617  24.172   3.399  0.00  0.00    +0.238 A 
ATOM      8  C   UNL     1     -37.796  21.944   2.292  0.00  0.00    +0.143 C 
ATOM      9  C   UNL     1     -35.007  21.751   2.213  0.00  0.00    +0.075 C 
ATOM     10  C   UNL     1     -35.796  20.722   1.696  0.00  0.00    +0.145 C 
ATOM     11  C   UNL     1     -37.187  20.819   1.736  0.00  0.00    +0.074 C 
ENDROOT
BRANCH   5  12
ATOM     12  C   UNL     1     -34.362  25.950   4.315  0.00  0.00    +0.041 C 
ATOM     13  C   UNL     1     -34.045  26.007   5.672  0.00  0.00    +0.043 C 
ATOM     14  C   UNL     1     -33.732  26.813   3.416  0.00  0.00    +0.006 C 
ATOM     15  C   UNL     1     -33.101  26.923   6.132  0.00  0.00    +0.168 C 
ATOM     16  C   UNL     1     -32.470  27.786   5.233  0.00  0.00    +0.172 C 
ATOM     17  C   UNL     1     -32.787  27.731   3.876  0.00  0.00    +0.040 C 
BRANCH  16  18
ATOM     18  O   UNL     1     -31.546  28.686   5.670  0.00  0.00    -0.468 OA
ATOM     19  C   UNL     1     -31.886  30.066   5.564  0.00  0.00    +0.253 C 
ENDBRANCH  16  18
BRANCH  15  20
ATOM     20  O   UNL     1     -32.800  26.968   7.460  0.00  0.00    -0.503 OA
ATOM     21  H   UNL     1     -32.091  26.456   7.797  0.00  0.00    +0.292 HD
ENDBRANCH  15  20
ENDBRANCH   5  12
BRANCH   6  22
ATOM     22  O   UNL     1     -37.222  26.348   4.461  0.00  0.00    -0.501 OA
ATOM     23  H   UNL     1     -36.918  27.187   4.176  0.00  0.00    +0.292 HD
ENDBRANCH   6  22
BRANCH  10  24
ATOM     24  O   UNL     1     -35.206  19.622   1.151  0.00  0.00    -0.471 OA
ATOM     25  C   UNL     1     -33.828  19.411   1.449  0.00  0.00    +0.252 C 
ENDBRANCH  10  24
BRANCH   8  26
ATOM     26  O   UNL     1     -39.157  21.989   2.307  0.00  0.00    -0.505 OA
ATOM     27  H   UNL     1     -39.654  21.259   1.991  0.00  0.00    +0.292 HD
ENDBRANCH   8  26
TORSDOF 6
ENDMDL
MODEL 2
REMARK VINA RESULT:      -6.2      2.615      5.548
REMARK  Name = 5320287
REMARK  6 active torsions:
REMARK  status: ('A' for Active; 'I' for Inactive)
REMARK    1  A    between atoms: C_5  and  C_12
REMARK    2  A    between atoms: C_6  and  O_22
REMARK    3  A    between atoms: C_8  and  O_26
REMARK    4  A    between atoms: C_10  and  O_24
REMARK    5  A    between atoms: C_15  and  O_20
REMARK    6  A    between atoms: C_16  and  O_18
REMARK                            x       y       z     vdW  Elec       q    Type
REMARK                         _______ _______ _______ _____ _____    ______ ____
ROOT
ATOM      1  O   UNL     1     -33.988  19.872   1.981  0.00  0.00    -0.450 OA
ATOM      2  O   UNL     1     -36.977  18.323  -0.315  0.00  0.00    -0.283 OA
ATOM      3  C   UNL     1     -34.726  18.203   0.380  0.00  0.00    +0.110 A 
ATOM      4  C   UNL     1     -33.748  18.782   1.186  0.00  0.00    +0.155 A 
ATOM      5  C   UNL     1     -35.263  20.416   1.990  0.00  0.00    +0.182 A 
ATOM      6  C   UNL     1     -36.292  19.959   1.253  0.00  0.00    +0.208 A 
ATOM      7  C   UNL     1     -36.078  18.784   0.376  0.00  0.00    +0.238 A 
ATOM      8  C   UNL     1     -34.423  17.092  -0.411  0.00  0.00    +0.143 C 
ATOM      9  C   UNL     1     -32.457  18.251   1.205  0.00  0.00    +0.075 C 
ATOM     10  C   UNL     1     -32.151  17.142   0.417  0.00  0.00    +0.145 C 
ATOM     11  C   UNL     1     -33.132  16.564  -0.390  0.00  0.00    +0.074 C 
ENDROOT
BRANCH   5  12
ATOM     12  C   UNL     1     -35.384  21.581   2.885  0.00  0.00    +0.041 C 
ATOM     13  C   UNL     1     -35.570  21.394   4.254  0.00  0.00    +0.043 C 
ATOM     14  C   UNL     1     -35.313  22.872   2.361  0.00  0.00    +0.006 C 
ATOM     15  C   UNL     1     -35.684  22.496   5.101  0.00  0.00    +0.168 C 
ATOM     16  C   UNL     1     -35.613  23.788   4.578  0.00  0.00    +0.172 C 
ATOM     17  C   UNL     1     -35.428  23.976   3.208  0.00  0.00    +0.040 C 
BRANCH  16  18
ATOM     18  O   UNL     1     -35.723  24.872   5.394  0.00  0.00    -0.468 OA
ATOM     19  C   UNL     1     -34.553  25.666   5.579  0.00  0.00    +0.253 C 
ENDBRANCH  16  18
BRANCH  15  20
ATOM     20  O   UNL     1     -35.865  22.300   6.437  0.00  0.00    -0.503 OA
ATOM     21  H   UNL     1     -36.728  22.320   6.801  0.00  0.00    +0.292 HD
ENDBRANCH  15  20
ENDBRANCH   5  12
BRANCH   6  22
ATOM     22  O   UNL     1     -37.540  20.544   1.261  0.00  0.00    -0.501 OA
ATOM     23  H   UNL     1     -37.933  20.820   0.456  0.00  0.00    +0.292 HD
ENDBRANCH   6  22
BRANCH  10  24
ATOM     24  O   UNL     1     -30.892  16.623   0.433  0.00  0.00    -0.471 OA
ATOM     25  C   UNL     1     -29.834  17.502   0.809  0.00  0.00    +0.252 C 
ENDBRANCH  10  24
BRANCH   8  26
ATOM     26  O   UNL     1     -35.343  16.490  -1.215  0.00  0.00    -0.505 OA
ATOM     27  H   UNL     1     -35.278  15.573  -1.398  0.00  0.00    +0.292 HD
ENDBRANCH   8  26
TORSDOF 6
ENDMDL
MODEL 3
REMARK VINA RESULT:      -5.9      2.918      4.482
REMARK  Name = 5320287
REMARK  6 active torsions:
REMARK  status: ('A' for Active; 'I' for Inactive)
REMARK    1  A    between atoms: C_5  and  C_12
REMARK    2  A    between atoms: C_6  and  O_22
REMARK    3  A    between atoms: C_8  and  O_26
REMARK    4  A    between atoms: C_10  and  O_24
REMARK    5  A    between atoms: C_15  and  O_20
REMARK    6  A    between atoms: C_16  and  O_18
REMARK                            x       y       z     vdW  Elec       q    Type
REMARK                         _______ _______ _______ _____ _____    ______ ____
ROOT
ATOM      1  O   UNL     1     -33.304  26.554   5.181  0.00  0.00    -0.450 OA
ATOM      2  O   UNL     1     -35.601  28.152   2.218  0.00  0.00    -0.283 OA
ATOM      3  C   UNL     1     -35.270  26.403   3.765  0.00  0.00    +0.110 A 
ATOM      4  C   UNL     1     -34.442  25.910   4.770  0.00  0.00    +0.155 A 
ATOM      5  C   UNL     1     -32.970  27.756   4.574  0.00  0.00    +0.182 A 
ATOM      6  C   UNL     1     -33.678  28.335   3.588  0.00  0.00    +0.208 A 
ATOM      7  C   UNL     1     -34.914  27.671   3.110  0.00  0.00    +0.238 A 
ATOM      8  C   UNL     1     -36.418  25.701   3.388  0.00  0.00    +0.143 C 
ATOM      9  C   UNL     1     -34.756  24.707   5.405  0.00  0.00    +0.075 C 
ATOM     10  C   UNL     1     -35.902  24.004   5.031  0.00  0.00    +0.145 C 
ATOM     11  C   UNL     1     -36.730  24.500   4.025  0.00  0.00    +0.074 C 
ENDROOT
BRANCH   5  12
ATOM     12  C   UNL     1     -31.727  28.341   5.107  0.00  0.00    +0.041 C 
ATOM     13  C   UNL     1     -30.530  28.195   4.407  0.00  0.00    +0.043 C 
ATOM     14  C   UNL     1     -31.747  29.042   6.314  0.00  0.00    +0.006 C 
ATOM     15  C   UNL     1     -29.353  28.748   4.911  0.00  0.00    +0.168 C 
ATOM     16  C   UNL     1     -29.373  29.450   6.117  0.00  0.00    +0.172 C 
ATOM     17  C   UNL     1     -30.570  29.596   6.819  0.00  0.00    +0.040 C 
BRANCH  16  18
ATOM     18  O   UNL     1     -28.231  29.995   6.620  0.00  0.00    -0.468 OA
ATOM     19  C   UNL     1     -27.611  29.314   7.708  0.00  0.00    +0.253 C 
ENDBRANCH  16  18
BRANCH  15  20
ATOM     20  O   UNL     1     -28.190  28.599   4.217  0.00  0.00    -0.503 OA
ATOM     21  H   UNL     1     -27.368  28.678   4.658  0.00  0.00    +0.292 HD
ENDBRANCH  15  20
ENDBRANCH   5  12
BRANCH   6  22
ATOM     22  O   UNL     1     -33.300  29.515   2.984  0.00  0.00    -0.501 OA
ATOM     23  H   UNL     1     -33.944  30.167   2.787  0.00  0.00    +0.292 HD
ENDBRANCH   6  22
BRANCH  10  24
ATOM     24  O   UNL     1     -36.210  22.830   5.648  0.00  0.00    -0.471 OA
ATOM     25  C   UNL     1     -35.141  22.133   6.287  0.00  0.00    +0.252 C 
ENDBRANCH  10  24
BRANCH   8  26
ATOM     26  O   UNL     1     -37.261  26.142   2.413  0.00  0.00    -0.505 OA
ATOM     27  H   UNL     1     -37.586  25.545   1.768  0.00  0.00    +0.292 HD
ENDBRANCH   8  26
TORSDOF 6
ENDMDL
MODEL 4
REMARK VINA RESULT:      -5.9      3.432      7.472
REMARK  Name = 5320287
REMARK  6 active torsions:
REMARK  status: ('A' for Active; 'I' for Inactive)
REMARK    1  A    between atoms: C_5  and  C_12
REMARK    2  A    between atoms: C_6  and  O_22
REMARK    3  A    between atoms: C_8  and  O_26
REMARK    4  A    between atoms: C_10  and  O_24
REMARK    5  A    between atoms: C_15  and  O_20
REMARK    6  A    between atoms: C_16  and  O_18
REMARK                            x       y       z     vdW  Elec       q    Type
REMARK                         _______ _______ _______ _____ _____    ______ ____
ROOT
ATOM      1  O   UNL     1     -34.600  20.838   1.725  0.00  0.00    -0.450 OA
ATOM      2  O   UNL     1     -37.784  19.071  -0.105  0.00  0.00    -0.283 OA
ATOM      3  C   UNL     1     -36.997  20.755   1.347  0.00  0.00    +0.110 A 
ATOM      4  C   UNL     1     -35.868  21.312   1.943  0.00  0.00    +0.155 A 
ATOM      5  C   UNL     1     -34.435  19.762   0.866  0.00  0.00    +0.182 A 
ATOM      6  C   UNL     1     -35.441  19.129   0.236  0.00  0.00    +0.208 A 
ATOM      7  C   UNL     1     -36.829  19.606   0.444  0.00  0.00    +0.238 A 
ATOM      8  C   UNL     1     -38.265  21.281   1.608  0.00  0.00    +0.143 C 
ATOM      9  C   UNL     1     -36.000  22.401   2.806  0.00  0.00    +0.075 C 
ATOM     10  C   UNL     1     -37.265  22.928   3.069  0.00  0.00    +0.145 C 
ATOM     11  C   UNL     1     -38.394  22.369   2.471  0.00  0.00    +0.074 C 
ENDROOT
BRANCH   5  12
ATOM     12  C   UNL     1     -33.027  19.354   0.721  0.00  0.00    +0.041 C 
ATOM     13  C   UNL     1     -32.125  20.179   0.050  0.00  0.00    +0.043 C 
ATOM     14  C   UNL     1     -32.595  18.139   1.255  0.00  0.00    +0.006 C 
ATOM     15  C   UNL     1     -30.793  19.793  -0.087  0.00  0.00    +0.168 C 
ATOM     16  C   UNL     1     -30.360  18.578   0.448  0.00  0.00    +0.172 C 
ATOM     17  C   UNL     1     -31.261  17.751   1.118  0.00  0.00    +0.040 C 
BRANCH  16  18
ATOM     18  O   UNL     1     -29.061  18.189   0.321  0.00  0.00    -0.468 OA
ATOM     19  C   UNL     1     -28.415  17.694   1.491  0.00  0.00    +0.253 C 
ENDBRANCH  16  18
BRANCH  15  20
ATOM     20  O   UNL     1     -29.921  20.609  -0.744  0.00  0.00    -0.503 OA
ATOM     21  H   UNL     1     -28.998  20.476  -0.655  0.00  0.00    +0.292 HD
ENDBRANCH  15  20
ENDBRANCH   5  12
BRANCH   6  22
ATOM     22  O   UNL     1     -35.246  18.041  -0.588  0.00  0.00    -0.501 OA
ATOM     23  H   UNL     1     -34.495  18.006  -1.148  0.00  0.00    +0.292 HD
ENDBRANCH   6  22
BRANCH  10  24
ATOM     24  O   UNL     1     -37.397  23.990   3.911  0.00  0.00    -0.471 OA
ATOM     25  C   UNL     1     -36.258  24.341   4.696  0.00  0.00    +0.252 C 
ENDBRANCH  10  24
BRANCH   8  26
ATOM     26  O   UNL     1     -39.399  20.773   1.050  0.00  0.00    -0.505 OA
ATOM     27  H   UNL     1     -39.399  20.500   0.153  0.00  0.00    +0.292 HD
ENDBRANCH   8  26
TORSDOF 6
ENDMDL
MODEL 5
REMARK VINA RESULT:      -5.9      1.689      2.605
REMARK  Name = 5320287
REMARK  6 active torsions:
REMARK  status: ('A' for Active; 'I' for Inactive)
REMARK    1  A    between atoms: C_5  and  C_12
REMARK    2  A    between atoms: C_6  and  O_22
REMARK    3  A    between atoms: C_8  and  O_26
REMARK    4  A    between atoms: C_10  and  O_24
REMARK    5  A    between atoms: C_15  and  O_20
REMARK    6  A    between atoms: C_16  and  O_18
REMARK                            x       y       z     vdW  Elec       q    Type
REMARK                         _______ _______ _______ _____ _____    ______ ____
ROOT
ATOM      1  O   UNL     1     -35.973  22.799   2.093  0.00  0.00    -0.450 OA
ATOM      2  O   UNL     1     -40.038  22.655   2.344  0.00  0.00    -0.283 OA
ATOM      3  C   UNL     1     -38.060  21.748   1.434  0.00  0.00    +0.110 A 
ATOM      4  C   UNL     1     -36.672  21.852   1.390  0.00  0.00    +0.155 A 
ATOM      5  C   UNL     1     -36.680  23.685   2.891  0.00  0.00    +0.182 A 
ATOM      6  C   UNL     1     -38.020  23.698   3.014  0.00  0.00    +0.208 A 
ATOM      7  C   UNL     1     -38.817  22.694   2.269  0.00  0.00    +0.238 A 
ATOM      8  C   UNL     1     -38.718  20.763   0.694  0.00  0.00    +0.143 C 
ATOM      9  C   UNL     1     -35.931  20.969   0.603  0.00  0.00    +0.075 C 
ATOM     10  C   UNL     1     -36.585  19.983  -0.137  0.00  0.00    +0.145 C 
ATOM     11  C   UNL     1     -37.975  19.881  -0.092  0.00  0.00    +0.074 C 
ENDROOT
BRANCH   5  12
ATOM     12  C   UNL     1     -35.811  24.648   3.590  0.00  0.00    +0.041 C 
ATOM     13  C   UNL     1     -35.873  26.004   3.271  0.00  0.00    +0.043 C 
ATOM     14  C   UNL     1     -34.924  24.203   4.571  0.00  0.00    +0.006 C 
ATOM     15  C   UNL     1     -35.051  26.916   3.932  0.00  0.00    +0.168 C 
ATOM     16  C   UNL     1     -34.164  26.471   4.913  0.00  0.00    +0.172 C 
ATOM     17  C   UNL     1     -34.100  25.114   5.232  0.00  0.00    +0.040 C 
BRANCH  16  18
ATOM     18  O   UNL     1     -33.355  27.351   5.566  0.00  0.00    -0.468 OA
ATOM     19  C   UNL     1     -32.882  26.965   6.854  0.00  0.00    +0.253 C 
ENDBRANCH  16  18
BRANCH  15  20
ATOM     20  O   UNL     1     -35.122  28.238   3.612  0.00  0.00    -0.503 OA
ATOM     21  H   UNL     1     -35.956  28.660   3.546  0.00  0.00    +0.292 HD
ENDBRANCH  15  20
ENDBRANCH   5  12
BRANCH   6  22
ATOM     22  O   UNL     1     -38.696  24.614   3.791  0.00  0.00    -0.501 OA
ATOM     23  H   UNL     1     -39.111  24.339   4.585  0.00  0.00    +0.292 HD
ENDBRANCH   6  22
BRANCH  10  24
ATOM     24  O   UNL     1     -35.865  19.121  -0.906  0.00  0.00    -0.471 OA
ATOM     25  C   UNL     1     -34.820  19.679  -1.702  0.00  0.00    +0.252 C 
ENDBRANCH  10  24
BRANCH   8  26
ATOM     26  O   UNL     1     -40.073  20.619   0.704  0.00  0.00    -0.505 OA
ATOM     27  H   UNL     1     -40.567  20.886   1.453  0.00  0.00    +0.292 HD
ENDBRANCH   8  26
TORSDOF 6
ENDMDL
MODEL 6
REMARK VINA RESULT:      -5.9      1.907      7.463
REMARK  Name = 5320287
REMARK  6 active torsions:
REMARK  status: ('A' for Active; 'I' for Inactive)
REMARK    1  A    between atoms: C_5  and  C_12
REMARK    2  A    between atoms: C_6  and  O_22
REMARK    3  A    between atoms: C_8  and  O_26
REMARK    4  A    between atoms: C_10  and  O_24
REMARK    5  A    between atoms: C_15  and  O_20
REMARK    6  A    between atoms: C_16  and  O_18
REMARK                            x       y       z     vdW  Elec       q    Type
REMARK                         _______ _______ _______ _____ _____    ______ ____
ROOT
ATOM      1  O   UNL     1     -35.023  22.248   2.311  0.00  0.00    -0.450 OA
ATOM      2  O   UNL     1     -39.073  22.586   2.619  0.00  0.00    -0.283 OA
ATOM      3  C   UNL     1     -36.951  23.505   3.084  0.00  0.00    +0.110 A 
ATOM      4  C   UNL     1     -35.577  23.330   2.947  0.00  0.00    +0.155 A 
ATOM      5  C   UNL     1     -35.872  21.293   1.773  0.00  0.00    +0.182 A 
ATOM      6  C   UNL     1     -37.215  21.339   1.845  0.00  0.00    +0.208 A 
ATOM      7  C   UNL     1     -37.856  22.488   2.526  0.00  0.00    +0.238 A 
ATOM      8  C   UNL     1     -37.458  24.628   3.743  0.00  0.00    +0.143 C 
ATOM      9  C   UNL     1     -34.697  24.278   3.470  0.00  0.00    +0.075 C 
ATOM     10  C   UNL     1     -35.199  25.401   4.129  0.00  0.00    +0.145 C 
ATOM     11  C   UNL     1     -36.576  25.576   4.265  0.00  0.00    +0.074 C 
ENDROOT
BRANCH   5  12
ATOM     12  C   UNL     1     -35.150  20.186   1.121  0.00  0.00    +0.041 C 
ATOM     13  C   UNL     1     -34.073  19.578   1.766  0.00  0.00    +0.043 C 
ATOM     14  C   UNL     1     -35.543  19.746  -0.144  0.00  0.00    +0.006 C 
ATOM     15  C   UNL     1     -33.390  18.531   1.149  0.00  0.00    +0.168 C 
ATOM     16  C   UNL     1     -33.783  18.090  -0.115  0.00  0.00    +0.172 C 
ATOM     17  C   UNL     1     -34.859  18.699  -0.762  0.00  0.00    +0.040 C 
BRANCH  16  18
ATOM     18  O   UNL     1     -33.124  17.069  -0.728  0.00  0.00    -0.468 OA
ATOM     19  C   UNL     1     -33.663  15.759  -0.565  0.00  0.00    +0.253 C 
ENDBRANCH  16  18
BRANCH  15  20
ATOM     20  O   UNL     1     -32.340  17.945   1.790  0.00  0.00    -0.503 OA
ATOM     21  H   UNL     1     -32.214  18.086   2.708  0.00  0.00    +0.292 HD
ENDBRANCH  15  20
ENDBRANCH   5  12
BRANCH   6  22
ATOM     22  O   UNL     1     -38.030  20.355   1.327  0.00  0.00    -0.501 OA
ATOM     23  H   UNL     1     -37.990  19.484   1.672  0.00  0.00    +0.292 HD
ENDBRANCH   6  22
BRANCH  10  24
ATOM     24  O   UNL     1     -34.342  26.328   4.641  0.00  0.00    -0.471 OA
ATOM     25  C   UNL     1     -33.941  26.159   6.000  0.00  0.00    +0.252 C 
ENDBRANCH  10  24
BRANCH   8  26
ATOM     26  O   UNL     1     -38.793  24.847   3.902  0.00  0.00    -0.505 OA
ATOM     27  H   UNL     1     -39.197  25.592   3.503  0.00  0.00    +0.292 HD
ENDBRANCH   8  26
TORSDOF 6
ENDMDL
MODEL 7
REMARK VINA RESULT:      -5.9      2.612      7.719
REMARK  Name = 5320287
REMARK  6 active torsions:
REMARK  status: ('A' for Active; 'I' for Inactive)
REMARK    1  A    between atoms: C_5  and  C_12
REMARK    2  A    between atoms: C_6  and  O_22
REMARK    3  A    between atoms: C_8  and  O_26
REMARK    4  A    between atoms: C_10  and  O_24
REMARK    5  A    between atoms: C_15  and  O_20
REMARK    6  A    between atoms: C_16  and  O_18
REMARK                            x       y       z     vdW  Elec       q    Type
REMARK                         _______ _______ _______ _____ _____    ______ ____
ROOT
ATOM      1  O   UNL     1     -35.401  23.129   1.883  0.00  0.00    -0.450 OA
ATOM      2  O   UNL     1     -35.747  23.152   5.943  0.00  0.00    -0.283 OA
ATOM      3  C   UNL     1     -35.574  24.395   3.946  0.00  0.00    +0.110 A 
ATOM      4  C   UNL     1     -35.454  24.319   2.561  0.00  0.00    +0.155 A 
ATOM      5  C   UNL     1     -35.480  21.950   2.609  0.00  0.00    +0.182 A 
ATOM      6  C   UNL     1     -35.588  21.886   3.948  0.00  0.00    +0.208 A 
ATOM      7  C   UNL     1     -35.646  23.148   4.723  0.00  0.00    +0.238 A 
ATOM      8  C   UNL     1     -35.622  25.638   4.583  0.00  0.00    +0.143 C 
ATOM      9  C   UNL     1     -35.381  25.487   1.802  0.00  0.00    +0.075 C 
ATOM     10  C   UNL     1     -35.429  26.730   2.435  0.00  0.00    +0.145 C 
ATOM     11  C   UNL     1     -35.549  26.805   3.822  0.00  0.00    +0.074 C 
ENDROOT
BRANCH   5  12
ATOM     12  C   UNL     1     -35.411  20.747   1.760  0.00  0.00    +0.041 C 
ATOM     13  C   UNL     1     -36.583  20.150   1.298  0.00  0.00    +0.043 C 
ATOM     14  C   UNL     1     -34.171  20.205   1.420  0.00  0.00    +0.006 C 
ATOM     15  C   UNL     1     -36.518  19.012   0.495  0.00  0.00    +0.168 C 
ATOM     16  C   UNL     1     -35.278  18.469   0.153  0.00  0.00    +0.172 C 
ATOM     17  C   UNL     1     -34.105  19.066   0.617  0.00  0.00    +0.040 C 
BRANCH  16  18
ATOM     18  O   UNL     1     -35.200  17.358  -0.630  0.00  0.00    -0.468 OA
ATOM     19  C   UNL     1     -34.616  16.195  -0.049  0.00  0.00    +0.253 C 
ENDBRANCH  16  18
BRANCH  15  20
ATOM     20  O   UNL     1     -37.670  18.438   0.049  0.00  0.00    -0.503 OA
ATOM     21  H   UNL     1     -37.751  17.505   0.029  0.00  0.00    +0.292 HD
ENDBRANCH  15  20
ENDBRANCH   5  12
BRANCH   6  22
ATOM     22  O   UNL     1     -35.633  20.696   4.643  0.00  0.00    -0.501 OA
ATOM     23  H   UNL     1     -35.913  20.686   5.537  0.00  0.00    +0.292 HD
ENDBRANCH   6  22
BRANCH  10  24
ATOM     24  O   UNL     1     -35.356  27.872   1.696  0.00  0.00    -0.471 OA
ATOM     25  C   UNL     1     -34.671  28.979   2.279  0.00  0.00    +0.252 C 
ENDBRANCH  10  24
BRANCH   8  26
ATOM     26  O   UNL     1     -35.741  25.767   5.934  0.00  0.00    -0.505 OA
ATOM     27  H   UNL     1     -35.979  26.592   6.308  0.00  0.00    +0.292 HD
ENDBRANCH   8  26
TORSDOF 6
ENDMDL
MODEL 8
REMARK VINA RESULT:      -5.7      3.424      7.613
REMARK  Name = 5320287
REMARK  6 active torsions:
REMARK  status: ('A' for Active; 'I' for Inactive)
REMARK    1  A    between atoms: C_5  and  C_12
REMARK    2  A    between atoms: C_6  and  O_22
REMARK    3  A    between atoms: C_8  and  O_26
REMARK    4  A    between atoms: C_10  and  O_24
REMARK    5  A    between atoms: C_15  and  O_20
REMARK    6  A    between atoms: C_16  and  O_18
REMARK                            x       y       z     vdW  Elec       q    Type
REMARK                         _______ _______ _______ _____ _____    ______ ____
ROOT
ATOM      1  O   UNL     1     -35.931  22.522   1.230  0.00  0.00    -0.450 OA
ATOM      2  O   UNL     1     -36.248  23.125   5.247  0.00  0.00    -0.283 OA
ATOM      3  C   UNL     1     -36.480  24.005   3.071  0.00  0.00    +0.110 A 
ATOM      4  C   UNL     1     -36.349  23.735   1.712  0.00  0.00    +0.155 A 
ATOM      5  C   UNL     1     -35.635  21.516   2.137  0.00  0.00    +0.182 A 
ATOM      6  C   UNL     1     -35.712  21.650   3.474  0.00  0.00    +0.208 A 
ATOM      7  C   UNL     1     -36.156  22.946   4.040  0.00  0.00    +0.238 A 
ATOM      8  C   UNL     1     -36.910  25.262   3.504  0.00  0.00    +0.143 C 
ATOM      9  C   UNL     1     -36.647  24.724   0.772  0.00  0.00    +0.075 C 
ATOM     10  C   UNL     1     -37.077  25.981   1.201  0.00  0.00    +0.145 C 
ATOM     11  C   UNL     1     -37.208  26.249   2.564  0.00  0.00    +0.074 C 
ENDROOT
BRANCH   5  12
ATOM     12  C   UNL     1     -35.199  20.268   1.489  0.00  0.00    +0.041 C 
ATOM     13  C   UNL     1     -33.933  19.746   1.758  0.00  0.00    +0.043 C 
ATOM     14  C   UNL     1     -36.051  19.606   0.603  0.00  0.00    +0.006 C 
ATOM     15  C   UNL     1     -33.520  18.564   1.144  0.00  0.00    +0.168 C 
ATOM     16  C   UNL     1     -34.372  17.902   0.259  0.00  0.00    +0.172 C 
ATOM     17  C   UNL     1     -35.638  18.424  -0.011  0.00  0.00    +0.040 C 
BRANCH  16  18
ATOM     18  O   UNL     1     -33.980  16.748  -0.347  0.00  0.00    -0.468 OA
ATOM     19  C   UNL     1     -34.872  15.638  -0.268  0.00  0.00    +0.253 C 
ENDBRANCH  16  18
BRANCH  15  20
ATOM     20  O   UNL     1     -32.282  18.065   1.416  0.00  0.00    -0.503 OA
ATOM     21  H   UNL     1     -31.890  18.214   2.254  0.00  0.00    +0.292 HD
ENDBRANCH  15  20
ENDBRANCH   5  12
BRANCH   6  22
ATOM     22  O   UNL     1     -35.380  20.639   4.351  0.00  0.00    -0.501 OA
ATOM     23  H   UNL     1     -35.764  20.615   5.205  0.00  0.00    +0.292 HD
ENDBRANCH   6  22
BRANCH  10  24
ATOM     24  O   UNL     1     -37.367  26.947   0.287  0.00  0.00    -0.471 OA
ATOM     25  C   UNL     1     -38.746  27.241   0.069  0.00  0.00    +0.252 C 
ENDBRANCH  10  24
BRANCH   8  26
ATOM     26  O   UNL     1     -37.056  25.575   4.822  0.00  0.00    -0.505 OA
ATOM     27  H   UNL     1     -36.605  26.312   5.182  0.00  0.00    +0.292 HD
ENDBRANCH   8  26
TORSDOF 6
ENDMDL
MODEL 9
REMARK VINA RESULT:      -5.7      3.855      7.105
REMARK  Name = 5320287
REMARK  6 active torsions:
REMARK  status: ('A' for Active; 'I' for Inactive)
REMARK    1  A    between atoms: C_5  and  C_12
REMARK    2  A    between atoms: C_6  and  O_22
REMARK    3  A    between atoms: C_8  and  O_26
REMARK    4  A    between atoms: C_10  and  O_24
REMARK    5  A    between atoms: C_15  and  O_20
REMARK    6  A    between atoms: C_16  and  O_18
REMARK                            x       y       z     vdW  Elec       q    Type
REMARK                         _______ _______ _______ _____ _____    ______ ____
ROOT
ATOM      1  O   UNL     1     -38.527  25.476   3.478  0.00  0.00    -0.450 OA
ATOM      2  O   UNL     1     -38.621  21.676   2.008  0.00  0.00    -0.283 OA
ATOM      3  C   UNL     1     -37.456  23.309   3.249  0.00  0.00    +0.110 A 
ATOM      4  C   UNL     1     -37.484  24.619   3.720  0.00  0.00    +0.155 A 
ATOM      5  C   UNL     1     -39.604  25.013   2.738  0.00  0.00    +0.182 A 
ATOM      6  C   UNL     1     -39.697  23.775   2.218  0.00  0.00    +0.208 A 
ATOM      7  C   UNL     1     -38.591  22.816   2.453  0.00  0.00    +0.238 A 
ATOM      8  C   UNL     1     -36.366  22.481   3.528  0.00  0.00    +0.143 C 
ATOM      9  C   UNL     1     -36.419  25.111   4.475  0.00  0.00    +0.075 C 
ATOM     10  C   UNL     1     -35.328  24.287   4.756  0.00  0.00    +0.145 C 
ATOM     11  C   UNL     1     -35.302  22.975   4.283  0.00  0.00    +0.074 C 
ENDROOT
BRANCH   5  12
ATOM     12  C   UNL     1     -40.651  26.032   2.550  0.00  0.00    +0.041 C 
ATOM     13  C   UNL     1     -40.811  26.649   1.309  0.00  0.00    +0.043 C 
ATOM     14  C   UNL     1     -41.484  26.381   3.614  0.00  0.00    +0.006 C 
ATOM     15  C   UNL     1     -41.802  27.614   1.131  0.00  0.00    +0.168 C 
ATOM     16  C   UNL     1     -42.636  27.962   2.195  0.00  0.00    +0.172 C 
ATOM     17  C   UNL     1     -42.476  27.346   3.437  0.00  0.00    +0.040 C 
BRANCH  16  18
ATOM     18  O   UNL     1     -43.607  28.903   2.034  0.00  0.00    -0.468 OA
ATOM     19  C   UNL     1     -44.152  29.482   3.218  0.00  0.00    +0.253 C 
ENDBRANCH  16  18
BRANCH  15  20
ATOM     20  O   UNL     1     -41.948  28.209  -0.085  0.00  0.00    -0.503 OA
ATOM     21  H   UNL     1     -41.751  27.732  -0.867  0.00  0.00    +0.292 HD
ENDBRANCH  15  20
ENDBRANCH   5  12
BRANCH   6  22
ATOM     22  O   UNL     1     -40.768  23.357   1.459  0.00  0.00    -0.501 OA
ATOM     23  H   UNL     1     -41.091  22.481   1.547  0.00  0.00    +0.292 HD
ENDBRANCH   6  22
BRANCH  10  24
ATOM     24  O   UNL     1     -34.287  24.766   5.491  0.00  0.00    -0.471 OA
ATOM     25  C   UNL     1     -34.087  26.178   5.490  0.00  0.00    +0.252 C 
ENDBRANCH  10  24
BRANCH   8  26
ATOM     26  O   UNL     1     -36.291  21.193   3.091  0.00  0.00    -0.505 OA
ATOM     27  H   UNL     1     -36.621  20.964   2.245  0.00  0.00    +0.292 HD
ENDBRANCH   8  26
TORSDOF 6
ENDMDL
