MODEL 1
REMARK VINA RESULT:      -6.0      0.000      0.000
REMARK  Name = 596
REMARK  5 active torsions:
REMARK  status: ('A' for Active; 'I' for Inactive)
REMARK    1  A    between atoms: C2*_2  and  O2*_16
REMARK    2  A    between atoms: C3*_3  and  O3*_18
REMARK    3  A    between atoms: C1*_4  and  N1_7
REMARK    4  A    between atoms: C4*_5  and  C5*_20
REMARK    5  A    between atoms: C5*_20  and  O5*_21
REMARK                            x       y       z     vdW  Elec       q    Type
REMARK                         _______ _______ _______ _____ _____    ______ ____
ROOT
ATOM      1  O4* C   A   1     -34.330  24.367   5.347  0.00  0.00    -0.332 OA
ATOM      2  C2* C   A   1     -36.306  25.065   4.221  0.00  0.00    +0.188 C 
ATOM      3  C3* C   A   1     -35.655  26.257   4.886  0.00  0.00    +0.171 C 
ATOM      4  C1* C   A   1     -35.621  23.897   4.917  0.00  0.00    +0.236 C 
ATOM      5  C4* C   A   1     -34.228  25.767   5.042  0.00  0.00    +0.175 C 
ENDROOT
BRANCH   4   7
ATOM      6  O2  C   A   1     -35.311  21.204   5.695  0.00  0.00    -0.193 OA
ATOM      7  N1  C   A   1     -35.485  22.779   4.018  0.00  0.00    -0.178 N 
ATOM      8  N3  C   A   1     -35.209  20.424   3.566  0.00  0.00    -0.306 NA
ATOM      9  N4  C   A   1     -35.103  19.633   1.381  0.00  0.00    -0.332 N 
ATOM     10  C6  C   A   1     -35.504  23.016   2.651  0.00  0.00    +0.083 C 
ATOM     11  C2  C   A   1     -35.333  21.449   4.487  0.00  0.00    +0.276 C 
ATOM     12  C5  C   A   1     -35.384  22.044   1.749  0.00  0.00    +0.065 C 
ATOM     13  C4  C   A   1     -35.228  20.666   2.281  0.00  0.00    +0.193 C 
ATOM     14  H41 C   A   1     -34.998  18.708   1.705  0.00  0.00    +0.145 HD
ATOM     15  H42 C   A   1     -35.118  19.817   0.415  0.00  0.00    +0.145 HD
ENDBRANCH   4   7
BRANCH   2  16
ATOM     16  O2* C   A   1     -37.704  25.062   4.451  0.00  0.00    -0.378 OA
ATOM     17  H2* C   A   1     -37.928  25.757   5.089  0.00  0.00    +0.211 HD
ENDBRANCH   2  16
BRANCH   3  18
ATOM     18  O3* C   A   1     -35.713  27.415   4.077  0.00  0.00    -0.379 OA
ATOM     19  H3* C   A   1     -34.813  27.733   3.902  0.00  0.00    +0.211 HD
ENDBRANCH   3  18
BRANCH   5  20
ATOM     20  C5* C   A   1     -33.464  26.477   6.145  0.00  0.00    +0.169 C 
BRANCH  20  21
ATOM     21  O5* C   A   1     -33.067  27.756   5.678  0.00  0.00    -0.379 OA
ATOM     22  H5* C   A   1     -33.229  27.817   4.723  0.00  0.00    +0.211 HD
ENDBRANCH  20  21
ENDBRANCH   5  20
TORSDOF 5
ENDMDL
MODEL 2
REMARK VINA RESULT:      -5.9      3.173      6.130
REMARK  Name = 596
REMARK  5 active torsions:
REMARK  status: ('A' for Active; 'I' for Inactive)
REMARK    1  A    between atoms: C2*_2  and  O2*_16
REMARK    2  A    between atoms: C3*_3  and  O3*_18
REMARK    3  A    between atoms: C1*_4  and  N1_7
REMARK    4  A    between atoms: C4*_5  and  C5*_20
REMARK    5  A    between atoms: C5*_20  and  O5*_21
REMARK                            x       y       z     vdW  Elec       q    Type
REMARK                         _______ _______ _______ _____ _____    ______ ____
ROOT
ATOM      1  O4* C   A   1     -34.281  24.517   4.635  0.00  0.00    -0.332 OA
ATOM      2  C2* C   A   1     -35.793  26.266   4.077  0.00  0.00    +0.188 C 
ATOM      3  C3* C   A   1     -36.500  24.933   3.971  0.00  0.00    +0.171 C 
ATOM      4  C1* C   A   1     -34.329  25.851   4.096  0.00  0.00    +0.236 C 
ATOM      5  C4* C   A   1     -35.626  24.063   4.854  0.00  0.00    +0.175 C 
ENDROOT
BRANCH   4   7
ATOM      6  O2  C   A   1     -33.077  28.203   3.170  0.00  0.00    -0.193 OA
ATOM      7  N1  C   A   1     -33.554  26.758   4.905  0.00  0.00    -0.178 N 
ATOM      8  N3  C   A   1     -32.224  28.750   5.201  0.00  0.00    -0.306 NA
ATOM      9  N4  C   A   1     -31.352  29.304   7.285  0.00  0.00    -0.332 N 
ATOM     10  C6  C   A   1     -33.392  26.476   6.253  0.00  0.00    +0.083 C 
ATOM     11  C2  C   A   1     -32.954  27.924   4.365  0.00  0.00    +0.276 C 
ATOM     12  C5  C   A   1     -32.692  27.258   7.074  0.00  0.00    +0.065 C 
ATOM     13  C4  C   A   1     -32.082  28.469   6.470  0.00  0.00    +0.193 C 
ATOM     14  H41 C   A   1     -30.935  30.114   6.912  0.00  0.00    +0.145 HD
ATOM     15  H42 C   A   1     -31.246  29.091   8.240  0.00  0.00    +0.145 HD
ENDBRANCH   4   7
BRANCH   2  16
ATOM     16  O2* C   A   1     -36.089  27.083   2.958  0.00  0.00    -0.378 OA
ATOM     17  H2* C   A   1     -36.664  26.597   2.346  0.00  0.00    +0.211 HD
ENDBRANCH   2  16
BRANCH   3  18
ATOM     18  O3* C   A   1     -37.825  24.993   4.463  0.00  0.00    -0.379 OA
ATOM     19  H3* C   A   1     -37.945  24.318   5.149  0.00  0.00    +0.211 HD
ENDBRANCH   3  18
BRANCH   5  20
ATOM     20  C5* C   A   1     -35.727  22.583   4.530  0.00  0.00    +0.169 C 
BRANCH  20  21
ATOM     21  O5* C   A   1     -36.934  22.350   3.822  0.00  0.00    -0.379 OA
ATOM     22  H5* C   A   1     -37.035  21.399   3.661  0.00  0.00    +0.211 HD
ENDBRANCH  20  21
ENDBRANCH   5  20
TORSDOF 5
ENDMDL
MODEL 3
REMARK VINA RESULT:      -5.6      1.616      1.995
REMARK  Name = 596
REMARK  5 active torsions:
REMARK  status: ('A' for Active; 'I' for Inactive)
REMARK    1  A    between atoms: C2*_2  and  O2*_16
REMARK    2  A    between atoms: C3*_3  and  O3*_18
REMARK    3  A    between atoms: C1*_4  and  N1_7
REMARK    4  A    between atoms: C4*_5  and  C5*_20
REMARK    5  A    between atoms: C5*_20  and  O5*_21
REMARK                            x       y       z     vdW  Elec       q    Type
REMARK                         _______ _______ _______ _____ _____    ______ ____
ROOT
ATOM      1  O4* C   A   1     -34.762  24.672   2.831  0.00  0.00    -0.332 OA
ATOM      2  C2* C   A   1     -36.062  24.021   4.713  0.00  0.00    +0.188 C 
ATOM      3  C3* C   A   1     -35.707  25.486   4.827  0.00  0.00    +0.171 C 
ATOM      4  C1* C   A   1     -35.084  23.536   3.653  0.00  0.00    +0.236 C 
ATOM      5  C4* C   A   1     -35.407  25.832   3.381  0.00  0.00    +0.175 C 
ENDROOT
BRANCH   4   7
ATOM      6  O2  C   A   1     -35.086  20.797   4.326  0.00  0.00    -0.193 OA
ATOM      7  N1  C   A   1     -35.670  22.482   2.863  0.00  0.00    -0.178 N 
ATOM      8  N3  C   A   1     -36.216  20.166   2.461  0.00  0.00    -0.306 NA
ATOM      9  N4  C   A   1     -37.373  19.527   0.547  0.00  0.00    -0.332 N 
ATOM     10  C6  C   A   1     -36.291  22.813   1.668  0.00  0.00    +0.083 C 
ATOM     11  C2  C   A   1     -35.630  21.124   3.270  0.00  0.00    +0.276 C 
ATOM     12  C5  C   A   1     -36.858  21.906   0.875  0.00  0.00    +0.065 C 
ATOM     13  C4  C   A   1     -36.797  20.495   1.337  0.00  0.00    +0.193 C 
ATOM     14  H41 C   A   1     -37.347  18.584   0.828  0.00  0.00    +0.145 HD
ATOM     15  H42 C   A   1     -37.809  19.777  -0.298  0.00  0.00    +0.145 HD
ENDBRANCH   4   7
BRANCH   2  16
ATOM     16  O2* C   A   1     -35.865  23.357   5.949  0.00  0.00    -0.378 OA
ATOM     17  H2* C   A   1     -35.810  22.401   5.797  0.00  0.00    +0.211 HD
ENDBRANCH   2  16
BRANCH   3  18
ATOM     18  O3* C   A   1     -36.782  26.257   5.325  0.00  0.00    -0.379 OA
ATOM     19  H3* C   A   1     -36.660  26.407   6.276  0.00  0.00    +0.211 HD
ENDBRANCH   3  18
BRANCH   5  20
ATOM     20  C5* C   A   1     -34.504  27.043   3.226  0.00  0.00    +0.169 C 
BRANCH  20  21
ATOM     21  O5* C   A   1     -35.219  28.202   3.621  0.00  0.00    -0.379 OA
ATOM     22  H5* C   A   1     -35.670  28.582   2.851  0.00  0.00    +0.211 HD
ENDBRANCH  20  21
ENDBRANCH   5  20
TORSDOF 5
ENDMDL
MODEL 4
REMARK VINA RESULT:      -5.5      2.739      5.580
REMARK  Name = 596
REMARK  5 active torsions:
REMARK  status: ('A' for Active; 'I' for Inactive)
REMARK    1  A    between atoms: C2*_2  and  O2*_16
REMARK    2  A    between atoms: C3*_3  and  O3*_18
REMARK    3  A    between atoms: C1*_4  and  N1_7
REMARK    4  A    between atoms: C4*_5  and  C5*_20
REMARK    5  A    between atoms: C5*_20  and  O5*_21
REMARK                            x       y       z     vdW  Elec       q    Type
REMARK                         _______ _______ _______ _____ _____    ______ ____
ROOT
ATOM      1  O4* C   A   1     -35.879  23.315   2.513  0.00  0.00    -0.332 OA
ATOM      2  C2* C   A   1     -35.354  23.056   4.819  0.00  0.00    +0.188 C 
ATOM      3  C3* C   A   1     -35.820  21.733   4.255  0.00  0.00    +0.171 C 
ATOM      4  C1* C   A   1     -35.822  24.040   3.756  0.00  0.00    +0.236 C 
ATOM      5  C4* C   A   1     -35.568  21.937   2.773  0.00  0.00    +0.175 C 
ENDROOT
BRANCH   4   7
ATOM      6  O2  C   A   1     -35.907  26.363   5.352  0.00  0.00    -0.193 OA
ATOM      7  N1  C   A   1     -34.913  25.154   3.658  0.00  0.00    -0.178 N 
ATOM      8  N3  C   A   1     -34.111  27.322   4.350  0.00  0.00    -0.306 NA
ATOM      9  N4  C   A   1     -32.270  28.299   3.316  0.00  0.00    -0.332 N 
ATOM     10  C6  C   A   1     -33.903  25.107   2.708  0.00  0.00    +0.083 C 
ATOM     11  C2  C   A   1     -35.020  26.290   4.499  0.00  0.00    +0.276 C 
ATOM     12  C5  C   A   1     -33.019  26.091   2.547  0.00  0.00    +0.065 C 
ATOM     13  C4  C   A   1     -33.165  27.262   3.449  0.00  0.00    +0.193 C 
ATOM     14  H41 C   A   1     -32.343  29.089   3.899  0.00  0.00    +0.145 HD
ATOM     15  H42 C   A   1     -31.560  28.252   2.637  0.00  0.00    +0.145 HD
ENDBRANCH   4   7
BRANCH   2  16
ATOM     16  O2* C   A   1     -35.965  23.312   6.071  0.00  0.00    -0.378 OA
ATOM     17  H2* C   A   1     -36.413  24.172   6.043  0.00  0.00    +0.211 HD
ENDBRANCH   2  16
BRANCH   3  18
ATOM     18  O3* C   A   1     -35.067  20.646   4.757  0.00  0.00    -0.379 OA
ATOM     19  H3* C   A   1     -34.184  20.956   5.012  0.00  0.00    +0.211 HD
ENDBRANCH   3  18
BRANCH   5  20
ATOM     20  C5* C   A   1     -36.419  21.044   1.888  0.00  0.00    +0.169 C 
BRANCH  20  21
ATOM     21  O5* C   A   1     -36.760  19.872   2.611  0.00  0.00    -0.379 OA
ATOM     22  H5* C   A   1     -35.975  19.537   3.073  0.00  0.00    +0.211 HD
ENDBRANCH  20  21
ENDBRANCH   5  20
TORSDOF 5
ENDMDL
MODEL 5
REMARK VINA RESULT:      -5.4      2.959      5.470
REMARK  Name = 596
REMARK  5 active torsions:
REMARK  status: ('A' for Active; 'I' for Inactive)
REMARK    1  A    between atoms: C2*_2  and  O2*_16
REMARK    2  A    between atoms: C3*_3  and  O3*_18
REMARK    3  A    between atoms: C1*_4  and  N1_7
REMARK    4  A    between atoms: C4*_5  and  C5*_20
REMARK    5  A    between atoms: C5*_20  and  O5*_21
REMARK                            x       y       z     vdW  Elec       q    Type
REMARK                         _______ _______ _______ _____ _____    ______ ____
ROOT
ATOM      1  O4* C   A   1     -34.801  24.063   5.078  0.00  0.00    -0.332 OA
ATOM      2  C2* C   A   1     -35.274  23.467   2.824  0.00  0.00    +0.188 C 
ATOM      3  C3* C   A   1     -35.542  22.284   3.726  0.00  0.00    +0.171 C 
ATOM      4  C1* C   A   1     -34.437  24.369   3.719  0.00  0.00    +0.236 C 
ATOM      5  C4* C   A   1     -35.733  22.970   5.065  0.00  0.00    +0.175 C 
ENDROOT
BRANCH   4   7
ATOM      6  O2  C   A   1     -32.921  26.547   4.676  0.00  0.00    -0.193 OA
ATOM      7  N1  C   A   1     -34.689  25.757   3.422  0.00  0.00    -0.178 N 
ATOM      8  N3  C   A   1     -34.180  28.108   3.614  0.00  0.00    -0.306 NA
ATOM      9  N4  C   A   1     -35.476  29.703   2.524  0.00  0.00    -0.332 N 
ATOM     10  C6  C   A   1     -35.760  26.078   2.601  0.00  0.00    +0.083 C 
ATOM     11  C2  C   A   1     -33.879  26.798   3.943  0.00  0.00    +0.276 C 
ATOM     12  C5  C   A   1     -36.067  27.333   2.274  0.00  0.00    +0.065 C 
ATOM     13  C4  C   A   1     -35.194  28.393   2.838  0.00  0.00    +0.193 C 
ATOM     14  H41 C   A   1     -34.915  30.428   2.884  0.00  0.00    +0.145 HD
ATOM     15  H42 C   A   1     -36.239  29.915   1.940  0.00  0.00    +0.145 HD
ENDBRANCH   4   7
BRANCH   2  16
ATOM     16  O2* C   A   1     -34.556  23.067   1.670  0.00  0.00    -0.378 OA
ATOM     17  H2* C   A   1     -34.930  22.240   1.328  0.00  0.00    +0.211 HD
ENDBRANCH   2  16
BRANCH   3  18
ATOM     18  O3* C   A   1     -36.705  21.576   3.343  0.00  0.00    -0.379 OA
ATOM     19  H3* C   A   1     -36.509  21.030   2.566  0.00  0.00    +0.211 HD
ENDBRANCH   3  18
BRANCH   5  20
ATOM     20  C5* C   A   1     -35.471  22.060   6.252  0.00  0.00    +0.169 C 
BRANCH  20  21
ATOM     21  O5* C   A   1     -35.284  20.735   5.781  0.00  0.00    -0.379 OA
ATOM     22  H5* C   A   1     -34.781  20.226   6.436  0.00  0.00    +0.211 HD
ENDBRANCH  20  21
ENDBRANCH   5  20
TORSDOF 5
ENDMDL
MODEL 6
REMARK VINA RESULT:      -5.4      2.844      6.029
REMARK  Name = 596
REMARK  5 active torsions:
REMARK  status: ('A' for Active; 'I' for Inactive)
REMARK    1  A    between atoms: C2*_2  and  O2*_16
REMARK    2  A    between atoms: C3*_3  and  O3*_18
REMARK    3  A    between atoms: C1*_4  and  N1_7
REMARK    4  A    between atoms: C4*_5  and  C5*_20
REMARK    5  A    between atoms: C5*_20  and  O5*_21
REMARK                            x       y       z     vdW  Elec       q    Type
REMARK                         _______ _______ _______ _____ _____    ______ ____
ROOT
ATOM      1  O4* C   A   1     -37.076  22.095   1.788  0.00  0.00    -0.332 OA
ATOM      2  C2* C   A   1     -35.493  21.458   3.445  0.00  0.00    +0.188 C 
ATOM      3  C3* C   A   1     -35.735  20.298   2.506  0.00  0.00    +0.171 C 
ATOM      4  C1* C   A   1     -36.675  22.367   3.144  0.00  0.00    +0.236 C 
ATOM      5  C4* C   A   1     -36.274  21.015   1.283  0.00  0.00    +0.175 C 
ENDROOT
BRANCH   4   7
ATOM      6  O2  C   A   1     -38.439  24.462   3.820  0.00  0.00    -0.193 OA
ATOM      7  N1  C   A   1     -36.306  23.752   3.300  0.00  0.00    -0.178 N 
ATOM      8  N3  C   A   1     -36.827  26.059   3.778  0.00  0.00    -0.306 NA
ATOM      9  N4  C   A   1     -35.170  27.691   3.731  0.00  0.00    -0.332 N 
ATOM     10  C6  C   A   1     -34.981  24.113   3.108  0.00  0.00    +0.083 C 
ATOM     11  C2  C   A   1     -37.254  24.750   3.643  0.00  0.00    +0.276 C 
ATOM     12  C5  C   A   1     -34.551  25.368   3.231  0.00  0.00    +0.065 C 
ATOM     13  C4  C   A   1     -35.574  26.383   3.592  0.00  0.00    +0.193 C 
ATOM     14  H41 C   A   1     -35.826  28.386   3.969  0.00  0.00    +0.145 HD
ATOM     15  H42 C   A   1     -34.227  27.933   3.591  0.00  0.00    +0.145 HD
ENDBRANCH   4   7
BRANCH   2  16
ATOM     16  O2* C   A   1     -35.499  21.023   4.794  0.00  0.00    -0.378 OA
ATOM     17  H2* C   A   1     -34.744  21.413   5.262  0.00  0.00    +0.211 HD
ENDBRANCH   2  16
BRANCH   3  18
ATOM     18  O3* C   A   1     -34.543  19.599   2.205  0.00  0.00    -0.379 OA
ATOM     19  H3* C   A   1     -33.787  20.202   2.281  0.00  0.00    +0.211 HD
ENDBRANCH   3  18
BRANCH   5  20
ATOM     20  C5* C   A   1     -37.118  20.127   0.387  0.00  0.00    +0.169 C 
BRANCH  20  21
ATOM     21  O5* C   A   1     -37.075  18.799   0.885  0.00  0.00    -0.379 OA
ATOM     22  H5* C   A   1     -36.370  18.308   0.436  0.00  0.00    +0.211 HD
ENDBRANCH  20  21
ENDBRANCH   5  20
TORSDOF 5
ENDMDL
MODEL 7
REMARK VINA RESULT:      -5.3      3.326      5.976
REMARK  Name = 596
REMARK  5 active torsions:
REMARK  status: ('A' for Active; 'I' for Inactive)
REMARK    1  A    between atoms: C2*_2  and  O2*_16
REMARK    2  A    between atoms: C3*_3  and  O3*_18
REMARK    3  A    between atoms: C1*_4  and  N1_7
REMARK    4  A    between atoms: C4*_5  and  C5*_20
REMARK    5  A    between atoms: C5*_20  and  O5*_21
REMARK                            x       y       z     vdW  Elec       q    Type
REMARK                         _______ _______ _______ _____ _____    ______ ____
ROOT
ATOM      1  O4* C   A   1     -34.906  22.191   0.719  0.00  0.00    -0.332 OA
ATOM      2  C2* C   A   1     -35.603  20.628   2.371  0.00  0.00    +0.188 C 
ATOM      3  C3* C   A   1     -34.720  19.934   1.358  0.00  0.00    +0.171 C 
ATOM      4  C1* C   A   1     -35.973  21.913   1.645  0.00  0.00    +0.236 C 
ATOM      5  C4* C   A   1     -33.963  21.109   0.771  0.00  0.00    +0.175 C 
ENDROOT
BRANCH   4   7
ATOM      6  O2  C   A   1     -38.391  22.645   2.898  0.00  0.00    -0.193 OA
ATOM      7  N1  C   A   1     -36.133  22.998   2.581  0.00  0.00    -0.178 N 
ATOM      8  N3  C   A   1     -37.466  24.359   4.062  0.00  0.00    -0.306 NA
ATOM      9  N4  C   A   1     -36.511  26.116   5.251  0.00  0.00    -0.332 N 
ATOM     10  C6  C   A   1     -35.025  23.763   2.911  0.00  0.00    +0.083 C 
ATOM     11  C2  C   A   1     -37.386  23.304   3.170  0.00  0.00    +0.276 C 
ATOM     12  C5  C   A   1     -35.081  24.783   3.765  0.00  0.00    +0.065 C 
ATOM     13  C4  C   A   1     -36.411  25.070   4.362  0.00  0.00    +0.193 C 
ATOM     14  H41 C   A   1     -37.380  26.330   5.662  0.00  0.00    +0.145 HD
ATOM     15  H42 C   A   1     -35.716  26.650   5.475  0.00  0.00    +0.145 HD
ENDBRANCH   4   7
BRANCH   2  16
ATOM     16  O2* C   A   1     -36.747  19.845   2.661  0.00  0.00    -0.378 OA
ATOM     17  H2* C   A   1     -36.799  19.104   2.037  0.00  0.00    +0.211 HD
ENDBRANCH   2  16
BRANCH   3  18
ATOM     18  O3* C   A   1     -33.839  19.010   1.966  0.00  0.00    -0.379 OA
ATOM     19  H3* C   A   1     -34.071  18.110   1.688  0.00  0.00    +0.211 HD
ENDBRANCH   3  18
BRANCH   5  20
ATOM     20  C5* C   A   1     -33.417  20.839  -0.620  0.00  0.00    +0.169 C 
BRANCH  20  21
ATOM     21  O5* C   A   1     -33.578  19.461  -0.917  0.00  0.00    -0.379 OA
ATOM     22  H5* C   A   1     -32.767  18.983  -0.685  0.00  0.00    +0.211 HD
ENDBRANCH  20  21
ENDBRANCH   5  20
TORSDOF 5
ENDMDL
MODEL 8
REMARK VINA RESULT:      -5.3      2.856      5.614
REMARK  Name = 596
REMARK  5 active torsions:
REMARK  status: ('A' for Active; 'I' for Inactive)
REMARK    1  A    between atoms: C2*_2  and  O2*_16
REMARK    2  A    between atoms: C3*_3  and  O3*_18
REMARK    3  A    between atoms: C1*_4  and  N1_7
REMARK    4  A    between atoms: C4*_5  and  C5*_20
REMARK    5  A    between atoms: C5*_20  and  O5*_21
REMARK                            x       y       z     vdW  Elec       q    Type
REMARK                         _______ _______ _______ _____ _____    ______ ____
ROOT
ATOM      1  O4* C   A   1     -38.067  23.429   3.293  0.00  0.00    -0.332 OA
ATOM      2  C2* C   A   1     -36.194  21.987   3.024  0.00  0.00    +0.188 C 
ATOM      3  C3* C   A   1     -37.370  21.437   2.250  0.00  0.00    +0.171 C 
ATOM      4  C1* C   A   1     -36.862  22.993   3.951  0.00  0.00    +0.236 C 
ATOM      5  C4* C   A   1     -38.218  22.682   2.075  0.00  0.00    +0.175 C 
ENDROOT
BRANCH   4   7
ATOM      6  O2  C   A   1     -34.905  23.102   5.978  0.00  0.00    -0.193 OA
ATOM      7  N1  C   A   1     -35.987  24.109   4.207  0.00  0.00    -0.178 N 
ATOM      8  N3  C   A   1     -34.216  25.195   5.436  0.00  0.00    -0.306 NA
ATOM      9  N4  C   A   1     -33.517  27.341   4.875  0.00  0.00    -0.332 N 
ATOM     10  C6  C   A   1     -36.093  25.237   3.407  0.00  0.00    +0.083 C 
ATOM     11  C2  C   A   1     -35.025  24.087   5.249  0.00  0.00    +0.276 C 
ATOM     12  C5  C   A   1     -35.327  26.313   3.572  0.00  0.00    +0.065 C 
ATOM     13  C4  C   A   1     -34.331  26.250   4.672  0.00  0.00    +0.193 C 
ATOM     14  H41 C   A   1     -32.848  27.329   5.598  0.00  0.00    +0.145 HD
ATOM     15  H42 C   A   1     -33.605  28.135   4.300  0.00  0.00    +0.145 HD
ENDBRANCH   4   7
BRANCH   2  16
ATOM     16  O2* C   A   1     -35.545  20.959   3.752  0.00  0.00    -0.378 OA
ATOM     17  H2* C   A   1     -34.876  21.349   4.335  0.00  0.00    +0.211 HD
ENDBRANCH   2  16
BRANCH   3  18
ATOM     18  O3* C   A   1     -36.981  20.904   0.999  0.00  0.00    -0.379 OA
ATOM     19  H3* C   A   1     -37.017  19.935   1.035  0.00  0.00    +0.211 HD
ENDBRANCH   3  18
BRANCH   5  20
ATOM     20  C5* C   A   1     -39.687  22.382   1.838  0.00  0.00    +0.169 C 
BRANCH  20  21
ATOM     21  O5* C   A   1     -39.915  21.000   2.060  0.00  0.00    -0.379 OA
ATOM     22  H5* C   A   1     -39.969  20.539   1.208  0.00  0.00    +0.211 HD
ENDBRANCH  20  21
ENDBRANCH   5  20
TORSDOF 5
ENDMDL
MODEL 9
REMARK VINA RESULT:      -5.3      2.931      4.468
REMARK  Name = 596
REMARK  5 active torsions:
REMARK  status: ('A' for Active; 'I' for Inactive)
REMARK    1  A    between atoms: C2*_2  and  O2*_16
REMARK    2  A    between atoms: C3*_3  and  O3*_18
REMARK    3  A    between atoms: C1*_4  and  N1_7
REMARK    4  A    between atoms: C4*_5  and  C5*_20
REMARK    5  A    between atoms: C5*_20  and  O5*_21
REMARK                            x       y       z     vdW  Elec       q    Type
REMARK                         _______ _______ _______ _____ _____    ______ ____
ROOT
ATOM      1  O4* C   A   1     -36.803  23.419   4.625  0.00  0.00    -0.332 OA
ATOM      2  C2* C   A   1     -35.680  25.469   4.183  0.00  0.00    +0.188 C 
ATOM      3  C3* C   A   1     -34.878  24.657   5.175  0.00  0.00    +0.171 C 
ATOM      4  C1* C   A   1     -37.038  24.785   4.233  0.00  0.00    +0.236 C 
ATOM      5  C4* C   A   1     -35.403  23.260   4.907  0.00  0.00    +0.175 C 
ENDROOT
BRANCH   4   7
ATOM      6  O2  C   A   1     -39.823  24.671   3.799  0.00  0.00    -0.193 OA
ATOM      7  N1  C   A   1     -37.685  24.843   2.947  0.00  0.00    -0.178 N 
ATOM      8  N3  C   A   1     -39.648  24.843   1.542  0.00  0.00    -0.306 NA
ATOM      9  N4  C   A   1     -39.461  25.018  -0.770  0.00  0.00    -0.332 N 
ATOM     10  C6  C   A   1     -36.899  24.964   1.810  0.00  0.00    +0.083 C 
ATOM     11  C2  C   A   1     -39.096  24.780   2.810  0.00  0.00    +0.276 C 
ATOM     12  C5  C   A   1     -37.412  25.025   0.582  0.00  0.00    +0.065 C 
ATOM     13  C4  C   A   1     -38.892  24.957   0.482  0.00  0.00    +0.193 C 
ATOM     14  H41 C   A   1     -40.440  24.975  -0.868  0.00  0.00    +0.145 HD
ATOM     15  H42 C   A   1     -38.891  25.104  -1.567  0.00  0.00    +0.145 HD
ENDBRANCH   4   7
BRANCH   2  16
ATOM     16  O2* C   A   1     -35.763  26.823   4.592  0.00  0.00    -0.378 OA
ATOM     17  H2* C   A   1     -36.381  27.298   4.014  0.00  0.00    +0.211 HD
ENDBRANCH   2  16
BRANCH   3  18
ATOM     18  O3* C   A   1     -33.488  24.737   4.926  0.00  0.00    -0.379 OA
ATOM     19  H3* C   A   1     -33.132  25.544   5.332  0.00  0.00    +0.211 HD
ENDBRANCH   3  18
BRANCH   5  20
ATOM     20  C5* C   A   1     -35.222  22.314   6.080  0.00  0.00    +0.169 C 
BRANCH  20  21
ATOM     21  O5* C   A   1     -35.269  20.978   5.604  0.00  0.00    -0.379 OA
ATOM     22  H5* C   A   1     -36.142  20.599   5.790  0.00  0.00    +0.211 HD
ENDBRANCH  20  21
ENDBRANCH   5  20
TORSDOF 5
ENDMDL
