MODEL 1
REMARK VINA RESULT:      -6.3      0.000      0.000
REMARK  Name = 5327
REMARK  3 active torsions:
REMARK  status: ('A' for Active; 'I' for Inactive)
REMARK    1  A    between atoms: S_1  and  N_4
REMARK    2  A    between atoms: S_1  and  C_14
REMARK    3  A    between atoms: C_17  and  N_20
REMARK                            x       y       z     vdW  Elec       q    Type
REMARK                         _______ _______ _______ _____ _____    ______ ____
ROOT
ATOM      1  S   UNL     1     -33.700  27.074   3.944  0.00  0.00    +0.083 S 
ATOM      2  O   UNL     1     -34.812  27.954   3.603  0.00  0.00    -0.149 OA
ATOM      3  O   UNL     1     -32.565  26.992   3.032  0.00  0.00    -0.149 OA
ENDROOT
BRANCH   1   4
ATOM      4  N   UNL     1     -33.145  27.499   5.518  0.00  0.00    -0.139 N 
ATOM      5  N   UNL     1     -30.884  27.737   6.147  0.00  0.00    -0.336 NA
ATOM      6  N   UNL     1     -32.095  29.584   5.185  0.00  0.00    -0.336 NA
ATOM      7  C   UNL     1     -31.971  28.323   5.623  0.00  0.00    +0.218 C 
ATOM      8  C   UNL     1     -29.802  28.539   6.231  0.00  0.00    +0.107 C 
ATOM      9  C   UNL     1     -30.976  30.330   5.297  0.00  0.00    +0.107 C 
ATOM     10  C   UNL     1     -29.789  29.855   5.817  0.00  0.00    +0.111 C 
ATOM     11  C   UNL     1     -28.565  27.937   6.806  0.00  0.00    +0.063 C 
ATOM     12  C   UNL     1     -31.060  31.742   4.823  0.00  0.00    +0.063 C 
ATOM     13  H   UNL     1     -33.619  27.186   6.324  0.00  0.00    +0.188 HD
ENDBRANCH   1   4
BRANCH   1  14
ATOM     14  C   UNL     1     -34.344  25.468   4.180  0.00  0.00    +0.126 C 
ATOM     15  C   UNL     1     -34.547  24.630   3.082  0.00  0.00    +0.021 C 
ATOM     16  C   UNL     1     -34.656  25.023   5.464  0.00  0.00    +0.021 C 
ATOM     17  C   UNL     1     -35.375  22.904   4.555  0.00  0.00    +0.042 C 
ATOM     18  C   UNL     1     -35.062  23.348   3.271  0.00  0.00    +0.015 C 
ATOM     19  C   UNL     1     -35.172  23.741   5.652  0.00  0.00    +0.015 C 
BRANCH  17  20
ATOM     20  N   UNL     1     -35.895  21.606   4.746  0.00  0.00    -0.357 N 
ATOM     21  H   UNL     1     -35.344  20.819   4.532  0.00  0.00    +0.142 HD
ATOM     22  H   UNL     1     -36.810  21.489   5.093  0.00  0.00    +0.142 HD
ENDBRANCH  17  20
ENDBRANCH   1  14
TORSDOF 3
ENDMDL
MODEL 2
REMARK VINA RESULT:      -6.2      5.811      7.396
REMARK  Name = 5327
REMARK  3 active torsions:
REMARK  status: ('A' for Active; 'I' for Inactive)
REMARK    1  A    between atoms: S_1  and  N_4
REMARK    2  A    between atoms: S_1  and  C_14
REMARK    3  A    between atoms: C_17  and  N_20
REMARK                            x       y       z     vdW  Elec       q    Type
REMARK                         _______ _______ _______ _____ _____    ______ ____
ROOT
ATOM      1  S   UNL     1     -34.641  21.803   0.440  0.00  0.00    +0.083 S 
ATOM      2  O   UNL     1     -35.285  21.665  -0.862  0.00  0.00    -0.149 OA
ATOM      3  O   UNL     1     -33.965  23.055   0.758  0.00  0.00    -0.149 OA
ENDROOT
BRANCH   1   4
ATOM      4  N   UNL     1     -35.810  21.453   1.655  0.00  0.00    -0.139 N 
ATOM      5  N   UNL     1     -35.512  21.796   3.970  0.00  0.00    -0.336 NA
ATOM      6  N   UNL     1     -36.315  23.574   2.556  0.00  0.00    -0.336 NA
ATOM      7  C   UNL     1     -35.883  22.327   2.795  0.00  0.00    +0.218 C 
ATOM      8  C   UNL     1     -35.593  22.642   5.018  0.00  0.00    +0.107 C 
ATOM      9  C   UNL     1     -36.371  24.367   3.647  0.00  0.00    +0.107 C 
ATOM     10  C   UNL     1     -36.019  23.950   4.915  0.00  0.00    +0.111 C 
ATOM     11  C   UNL     1     -35.191  22.102   6.348  0.00  0.00    +0.063 C 
ATOM     12  C   UNL     1     -36.844  25.766   3.436  0.00  0.00    +0.063 C 
ATOM     13  H   UNL     1     -36.411  20.677   1.571  0.00  0.00    +0.188 HD
ENDBRANCH   1   4
BRANCH   1  14
ATOM     14  C   UNL     1     -33.500  20.493   0.611  0.00  0.00    +0.126 C 
ATOM     15  C   UNL     1     -32.244  20.579   0.008  0.00  0.00    +0.021 C 
ATOM     16  C   UNL     1     -33.843  19.361   1.349  0.00  0.00    +0.021 C 
ATOM     17  C   UNL     1     -31.677  18.399   0.882  0.00  0.00    +0.042 C 
ATOM     18  C   UNL     1     -31.333  19.531   0.145  0.00  0.00    +0.015 C 
ATOM     19  C   UNL     1     -32.932  18.313   1.485  0.00  0.00    +0.015 C 
BRANCH  17  20
ATOM     20  N   UNL     1     -30.755  17.341   1.021  0.00  0.00    -0.357 N 
ATOM     21  H   UNL     1     -30.864  16.520   0.489  0.00  0.00    +0.142 HD
ATOM     22  H   UNL     1     -30.001  17.424   1.650  0.00  0.00    +0.142 HD
ENDBRANCH  17  20
ENDBRANCH   1  14
TORSDOF 3
ENDMDL
MODEL 3
REMARK VINA RESULT:      -6.0      4.090      5.843
REMARK  Name = 5327
REMARK  3 active torsions:
REMARK  status: ('A' for Active; 'I' for Inactive)
REMARK    1  A    between atoms: S_1  and  N_4
REMARK    2  A    between atoms: S_1  and  C_14
REMARK    3  A    between atoms: C_17  and  N_20
REMARK                            x       y       z     vdW  Elec       q    Type
REMARK                         _______ _______ _______ _____ _____    ______ ____
ROOT
ATOM      1  S   UNL     1     -38.489  26.047   2.347  0.00  0.00    +0.083 S 
ATOM      2  O   UNL     1     -39.886  26.464   2.371  0.00  0.00    -0.149 OA
ATOM      3  O   UNL     1     -37.553  26.777   1.499  0.00  0.00    -0.149 OA
ENDROOT
BRANCH   1   4
ATOM      4  N   UNL     1     -37.907  26.033   3.968  0.00  0.00    -0.139 N 
ATOM      5  N   UNL     1     -36.641  24.299   4.945  0.00  0.00    -0.336 NA
ATOM      6  N   UNL     1     -35.563  26.064   3.709  0.00  0.00    -0.336 NA
ATOM      7  C   UNL     1     -36.627  25.429   4.223  0.00  0.00    +0.218 C 
ATOM      8  C   UNL     1     -35.423  23.760   5.165  0.00  0.00    +0.107 C 
ATOM      9  C   UNL     1     -34.378  25.471   3.966  0.00  0.00    +0.107 C 
ATOM     10  C   UNL     1     -34.247  24.307   4.696  0.00  0.00    +0.111 C 
ATOM     11  C   UNL     1     -35.381  22.501   5.963  0.00  0.00    +0.063 C 
ATOM     12  C   UNL     1     -33.161  26.137   3.417  0.00  0.00    +0.063 C 
ATOM     13  H   UNL     1     -38.436  26.427   4.700  0.00  0.00    +0.188 HD
ENDBRANCH   1   4
BRANCH   1  14
ATOM     14  C   UNL     1     -38.444  24.359   1.904  0.00  0.00    +0.126 C 
ATOM     15  C   UNL     1     -39.426  23.488   2.379  0.00  0.00    +0.021 C 
ATOM     16  C   UNL     1     -37.428  23.881   1.076  0.00  0.00    +0.021 C 
ATOM     17  C   UNL     1     -38.374  21.661   1.198  0.00  0.00    +0.042 C 
ATOM     18  C   UNL     1     -39.390  22.138   2.025  0.00  0.00    +0.015 C 
ATOM     19  C   UNL     1     -37.393  22.531   0.724  0.00  0.00    +0.015 C 
BRANCH  17  20
ATOM     20  N   UNL     1     -38.339  20.297   0.840  0.00  0.00    -0.357 N 
ATOM     21  H   UNL     1     -39.170  19.770   0.826  0.00  0.00    +0.142 HD
ATOM     22  H   UNL     1     -37.482  19.872   0.604  0.00  0.00    +0.142 HD
ENDBRANCH  17  20
ENDBRANCH   1  14
TORSDOF 3
ENDMDL
MODEL 4
REMARK VINA RESULT:      -6.0      4.859      6.736
REMARK  Name = 5327
REMARK  3 active torsions:
REMARK  status: ('A' for Active; 'I' for Inactive)
REMARK    1  A    between atoms: S_1  and  N_4
REMARK    2  A    between atoms: S_1  and  C_14
REMARK    3  A    between atoms: C_17  and  N_20
REMARK                            x       y       z     vdW  Elec       q    Type
REMARK                         _______ _______ _______ _____ _____    ______ ____
ROOT
ATOM      1  S   UNL     1     -38.034  25.562   2.238  0.00  0.00    +0.083 S 
ATOM      2  O   UNL     1     -37.810  27.001   2.147  0.00  0.00    -0.149 OA
ATOM      3  O   UNL     1     -37.157  24.668   1.492  0.00  0.00    -0.149 OA
ENDROOT
BRANCH   1   4
ATOM      4  N   UNL     1     -38.022  25.124   3.904  0.00  0.00    -0.139 N 
ATOM      5  N   UNL     1     -36.606  23.506   4.875  0.00  0.00    -0.336 NA
ATOM      6  N   UNL     1     -35.879  25.790   4.631  0.00  0.00    -0.336 NA
ATOM      7  C   UNL     1     -36.760  24.786   4.506  0.00  0.00    +0.218 C 
ATOM      8  C   UNL     1     -35.412  23.225   5.437  0.00  0.00    +0.107 C 
ATOM      9  C   UNL     1     -34.707  25.440   5.199  0.00  0.00    +0.107 C 
ATOM     10  C   UNL     1     -34.415  24.160   5.625  0.00  0.00    +0.111 C 
ATOM     11  C   UNL     1     -35.187  21.815   5.866  0.00  0.00    +0.063 C 
ATOM     12  C   UNL     1     -33.690  26.519   5.360  0.00  0.00    +0.063 C 
ATOM     13  H   UNL     1     -38.856  25.104   4.428  0.00  0.00    +0.188 HD
ENDBRANCH   1   4
BRANCH   1  14
ATOM     14  C   UNL     1     -39.686  25.249   1.766  0.00  0.00    +0.126 C 
ATOM     15  C   UNL     1     -39.967  24.243   0.841  0.00  0.00    +0.021 C 
ATOM     16  C   UNL     1     -40.722  26.005   2.314  0.00  0.00    +0.021 C 
ATOM     17  C   UNL     1     -42.324  24.750   1.011  0.00  0.00    +0.042 C 
ATOM     18  C   UNL     1     -41.288  23.994   0.464  0.00  0.00    +0.015 C 
ATOM     19  C   UNL     1     -42.042  25.756   1.935  0.00  0.00    +0.015 C 
BRANCH  17  20
ATOM     20  N   UNL     1     -43.658  24.497   0.630  0.00  0.00    -0.357 N 
ATOM     21  H   UNL     1     -44.140  23.726   1.007  0.00  0.00    +0.142 HD
ATOM     22  H   UNL     1     -44.108  25.092  -0.014  0.00  0.00    +0.142 HD
ENDBRANCH  17  20
ENDBRANCH   1  14
TORSDOF 3
ENDMDL
MODEL 5
REMARK VINA RESULT:      -5.9      2.553      3.754
REMARK  Name = 5327
REMARK  3 active torsions:
REMARK  status: ('A' for Active; 'I' for Inactive)
REMARK    1  A    between atoms: S_1  and  N_4
REMARK    2  A    between atoms: S_1  and  C_14
REMARK    3  A    between atoms: C_17  and  N_20
REMARK                            x       y       z     vdW  Elec       q    Type
REMARK                         _______ _______ _______ _____ _____    ______ ____
ROOT
ATOM      1  S   UNL     1     -34.529  26.060   4.843  0.00  0.00    +0.083 S 
ATOM      2  O   UNL     1     -33.278  25.968   5.588  0.00  0.00    -0.149 OA
ATOM      3  O   UNL     1     -35.695  26.639   5.499  0.00  0.00    -0.149 OA
ENDROOT
BRANCH   1   4
ATOM      4  N   UNL     1     -34.216  26.902   3.374  0.00  0.00    -0.139 N 
ATOM      5  N   UNL     1     -35.036  29.047   2.834  0.00  0.00    -0.336 NA
ATOM      6  N   UNL     1     -32.988  28.790   4.077  0.00  0.00    -0.336 NA
ATOM      7  C   UNL     1     -34.071  28.332   3.432  0.00  0.00    +0.218 C 
ATOM      8  C   UNL     1     -34.869  30.384   2.907  0.00  0.00    +0.107 C 
ATOM      9  C   UNL     1     -32.883  30.135   4.112  0.00  0.00    +0.107 C 
ATOM     10  C   UNL     1     -33.803  30.990   3.539  0.00  0.00    +0.111 C 
ATOM     11  C   UNL     1     -35.914  31.227   2.259  0.00  0.00    +0.063 C 
ATOM     12  C   UNL     1     -31.696  30.697   4.819  0.00  0.00    +0.063 C 
ATOM     13  H   UNL     1     -34.138  26.419   2.519  0.00  0.00    +0.188 HD
ENDBRANCH   1   4
BRANCH   1  14
ATOM     14  C   UNL     1     -34.938  24.455   4.290  0.00  0.00    +0.126 C 
ATOM     15  C   UNL     1     -35.188  23.441   5.216  0.00  0.00    +0.021 C 
ATOM     16  C   UNL     1     -35.015  24.187   2.924  0.00  0.00    +0.021 C 
ATOM     17  C   UNL     1     -35.591  21.891   3.408  0.00  0.00    +0.042 C 
ATOM     18  C   UNL     1     -35.515  22.159   4.774  0.00  0.00    +0.015 C 
ATOM     19  C   UNL     1     -35.341  22.904   2.482  0.00  0.00    +0.015 C 
BRANCH  17  20
ATOM     20  N   UNL     1     -35.922  20.594   2.961  0.00  0.00    -0.357 N 
ATOM     21  H   UNL     1     -36.503  20.478   2.176  0.00  0.00    +0.142 HD
ATOM     22  H   UNL     1     -35.570  19.805   3.435  0.00  0.00    +0.142 HD
ENDBRANCH  17  20
ENDBRANCH   1  14
TORSDOF 3
ENDMDL
MODEL 6
REMARK VINA RESULT:      -5.9      5.129      7.742
REMARK  Name = 5327
REMARK  3 active torsions:
REMARK  status: ('A' for Active; 'I' for Inactive)
REMARK    1  A    between atoms: S_1  and  N_4
REMARK    2  A    between atoms: S_1  and  C_14
REMARK    3  A    between atoms: C_17  and  N_20
REMARK                            x       y       z     vdW  Elec       q    Type
REMARK                         _______ _______ _______ _____ _____    ______ ____
ROOT
ATOM      1  S   UNL     1     -36.104  25.986   3.219  0.00  0.00    +0.083 S 
ATOM      2  O   UNL     1     -36.025  25.787   1.776  0.00  0.00    -0.149 OA
ATOM      3  O   UNL     1     -35.249  26.993   3.836  0.00  0.00    -0.149 OA
ENDROOT
BRANCH   1   4
ATOM      4  N   UNL     1     -37.748  26.297   3.628  0.00  0.00    -0.139 N 
ATOM      5  N   UNL     1     -39.504  26.583   2.079  0.00  0.00    -0.336 NA
ATOM      6  N   UNL     1     -38.879  24.383   2.839  0.00  0.00    -0.336 NA
ATOM      7  C   UNL     1     -38.771  25.720   2.799  0.00  0.00    +0.218 C 
ATOM      8  C   UNL     1     -40.455  26.008   1.313  0.00  0.00    +0.107 C 
ATOM      9  C   UNL     1     -39.849  23.875   2.049  0.00  0.00    +0.107 C 
ATOM     10  C   UNL     1     -40.674  24.647   1.258  0.00  0.00    +0.111 C 
ATOM     11  C   UNL     1     -41.298  26.923   0.492  0.00  0.00    +0.063 C 
ATOM     12  C   UNL     1     -40.010  22.392   2.056  0.00  0.00    +0.063 C 
ATOM     13  H   UNL     1     -37.980  26.854   4.406  0.00  0.00    +0.188 HD
ENDBRANCH   1   4
BRANCH   1  14
ATOM     14  C   UNL     1     -35.798  24.447   3.986  0.00  0.00    +0.126 C 
ATOM     15  C   UNL     1     -35.659  24.375   5.373  0.00  0.00    +0.021 C 
ATOM     16  C   UNL     1     -35.693  23.291   3.212  0.00  0.00    +0.021 C 
ATOM     17  C   UNL     1     -35.308  21.990   5.211  0.00  0.00    +0.042 C 
ATOM     18  C   UNL     1     -35.414  23.145   5.985  0.00  0.00    +0.015 C 
ATOM     19  C   UNL     1     -35.448  22.062   3.825  0.00  0.00    +0.015 C 
BRANCH  17  20
ATOM     20  N   UNL     1     -35.062  20.746   5.830  0.00  0.00    -0.357 N 
ATOM     21  H   UNL     1     -35.333  20.600   6.765  0.00  0.00    +0.142 HD
ATOM     22  H   UNL     1     -34.618  20.025   5.327  0.00  0.00    +0.142 HD
ENDBRANCH  17  20
ENDBRANCH   1  14
TORSDOF 3
ENDMDL
MODEL 7
REMARK VINA RESULT:      -5.8      5.403      7.803
REMARK  Name = 5327
REMARK  3 active torsions:
REMARK  status: ('A' for Active; 'I' for Inactive)
REMARK    1  A    between atoms: S_1  and  N_4
REMARK    2  A    between atoms: S_1  and  C_14
REMARK    3  A    between atoms: C_17  and  N_20
REMARK                            x       y       z     vdW  Elec       q    Type
REMARK                         _______ _______ _______ _____ _____    ______ ____
ROOT
ATOM      1  S   UNL     1     -36.301  20.776   1.039  0.00  0.00    +0.083 S 
ATOM      2  O   UNL     1     -37.592  20.248   0.609  0.00  0.00    -0.149 OA
ATOM      3  O   UNL     1     -35.791  21.985   0.404  0.00  0.00    -0.149 OA
ENDROOT
BRANCH   1   4
ATOM      4  N   UNL     1     -36.356  21.000   2.745  0.00  0.00    -0.139 N 
ATOM      5  N   UNL     1     -35.456  22.846   3.905  0.00  0.00    -0.336 NA
ATOM      6  N   UNL     1     -37.689  22.929   3.002  0.00  0.00    -0.336 NA
ATOM      7  C   UNL     1     -36.510  22.339   3.248  0.00  0.00    +0.218 C 
ATOM      8  C   UNL     1     -35.635  24.103   4.363  0.00  0.00    +0.107 C 
ATOM      9  C   UNL     1     -37.799  24.184   3.486  0.00  0.00    +0.107 C 
ATOM     10  C   UNL     1     -36.795  24.827   4.181  0.00  0.00    +0.111 C 
ATOM     11  C   UNL     1     -34.494  24.716   5.102  0.00  0.00    +0.063 C 
ATOM     12  C   UNL     1     -39.091  24.887   3.239  0.00  0.00    +0.063 C 
ATOM     13  H   UNL     1     -36.285  20.233   3.360  0.00  0.00    +0.188 HD
ENDBRANCH   1   4
BRANCH   1  14
ATOM     14  C   UNL     1     -35.118  19.505   0.852  0.00  0.00    +0.126 C 
ATOM     15  C   UNL     1     -35.345  18.469  -0.054  0.00  0.00    +0.021 C 
ATOM     16  C   UNL     1     -33.946  19.526   1.609  0.00  0.00    +0.021 C 
ATOM     17  C   UNL     1     -33.230  17.474   0.555  0.00  0.00    +0.042 C 
ATOM     18  C   UNL     1     -34.400  17.453  -0.203  0.00  0.00    +0.015 C 
ATOM     19  C   UNL     1     -33.002  18.510   1.460  0.00  0.00    +0.015 C 
BRANCH  17  20
ATOM     20  N   UNL     1     -32.274  16.448   0.403  0.00  0.00    -0.357 N 
ATOM     21  H   UNL     1     -32.092  16.072  -0.488  0.00  0.00    +0.142 HD
ATOM     22  H   UNL     1     -31.788  16.107   1.190  0.00  0.00    +0.142 HD
ENDBRANCH  17  20
ENDBRANCH   1  14
TORSDOF 3
ENDMDL
MODEL 8
REMARK VINA RESULT:      -5.7      5.059      7.506
REMARK  Name = 5327
REMARK  3 active torsions:
REMARK  status: ('A' for Active; 'I' for Inactive)
REMARK    1  A    between atoms: S_1  and  N_4
REMARK    2  A    between atoms: S_1  and  C_14
REMARK    3  A    between atoms: C_17  and  N_20
REMARK                            x       y       z     vdW  Elec       q    Type
REMARK                         _______ _______ _______ _____ _____    ______ ____
ROOT
ATOM      1  S   UNL     1     -35.094  21.357   0.974  0.00  0.00    +0.083 S 
ATOM      2  O   UNL     1     -36.212  20.691   0.315  0.00  0.00    -0.149 OA
ATOM      3  O   UNL     1     -34.705  22.687   0.522  0.00  0.00    -0.149 OA
ENDROOT
BRANCH   1   4
ATOM      4  N   UNL     1     -35.415  21.393   2.666  0.00  0.00    -0.139 N 
ATOM      5  N   UNL     1     -35.093  23.259   4.072  0.00  0.00    -0.336 NA
ATOM      6  N   UNL     1     -37.155  22.974   2.859  0.00  0.00    -0.336 NA
ATOM      7  C   UNL     1     -35.918  22.615   3.233  0.00  0.00    +0.218 C 
ATOM      8  C   UNL     1     -35.597  24.401   4.586  0.00  0.00    +0.107 C 
ATOM      9  C   UNL     1     -37.596  24.125   3.409  0.00  0.00    +0.107 C 
ATOM     10  C   UNL     1     -36.853  24.887   4.287  0.00  0.00    +0.111 C 
ATOM     11  C   UNL     1     -34.721  25.157   5.526  0.00  0.00    +0.063 C 
ATOM     12  C   UNL     1     -38.967  24.570   3.025  0.00  0.00    +0.063 C 
ATOM     13  H   UNL     1     -35.259  20.600   3.229  0.00  0.00    +0.188 HD
ENDBRANCH   1   4
BRANCH   1  14
ATOM     14  C   UNL     1     -33.707  20.302   0.865  0.00  0.00    +0.126 C 
ATOM     15  C   UNL     1     -33.723  19.061   1.504  0.00  0.00    +0.021 C 
ATOM     16  C   UNL     1     -32.583  20.699   0.140  0.00  0.00    +0.021 C 
ATOM     17  C   UNL     1     -31.491  18.616   0.693  0.00  0.00    +0.042 C 
ATOM     18  C   UNL     1     -32.614  18.218   1.417  0.00  0.00    +0.015 C 
ATOM     19  C   UNL     1     -31.475  19.856   0.054  0.00  0.00    +0.015 C 
BRANCH  17  20
ATOM     20  N   UNL     1     -30.371  17.764   0.605  0.00  0.00    -0.357 N 
ATOM     21  H   UNL     1     -30.129  17.189   1.366  0.00  0.00    +0.142 HD
ATOM     22  H   UNL     1     -29.831  17.744  -0.219  0.00  0.00    +0.142 HD
ENDBRANCH  17  20
ENDBRANCH   1  14
TORSDOF 3
ENDMDL
MODEL 9
REMARK VINA RESULT:      -5.7      4.109      8.271
REMARK  Name = 5327
REMARK  3 active torsions:
REMARK  status: ('A' for Active; 'I' for Inactive)
REMARK    1  A    between atoms: S_1  and  N_4
REMARK    2  A    between atoms: S_1  and  C_14
REMARK    3  A    between atoms: C_17  and  N_20
REMARK                            x       y       z     vdW  Elec       q    Type
REMARK                         _______ _______ _______ _____ _____    ______ ____
ROOT
ATOM      1  S   UNL     1     -37.162  23.423   2.724  0.00  0.00    +0.083 S 
ATOM      2  O   UNL     1     -36.803  23.724   1.342  0.00  0.00    -0.149 OA
ATOM      3  O   UNL     1     -38.541  23.628   3.152  0.00  0.00    -0.149 OA
ENDROOT
BRANCH   1   4
ATOM      4  N   UNL     1     -36.689  21.801   3.058  0.00  0.00    -0.139 N 
ATOM      5  N   UNL     1     -36.797  20.010   1.527  0.00  0.00    -0.336 NA
ATOM      6  N   UNL     1     -34.867  21.451   1.601  0.00  0.00    -0.336 NA
ATOM      7  C   UNL     1     -36.081  21.042   1.999  0.00  0.00    +0.218 C 
ATOM      8  C   UNL     1     -36.197  19.320   0.535  0.00  0.00    +0.107 C 
ATOM      9  C   UNL     1     -34.326  20.718   0.606  0.00  0.00    +0.107 C 
ATOM     10  C   UNL     1     -34.951  19.631   0.029  0.00  0.00    +0.111 C 
ATOM     11  C   UNL     1     -36.949  18.161  -0.026  0.00  0.00    +0.063 C 
ATOM     12  C   UNL     1     -32.976  21.132   0.125  0.00  0.00    +0.063 C 
ATOM     13  H   UNL     1     -36.831  21.405   3.949  0.00  0.00    +0.188 HD
ENDBRANCH   1   4
BRANCH   1  14
ATOM     14  C   UNL     1     -36.111  24.355   3.762  0.00  0.00    +0.126 C 
ATOM     15  C   UNL     1     -34.730  24.321   3.566  0.00  0.00    +0.021 C 
ATOM     16  C   UNL     1     -36.652  25.134   4.785  0.00  0.00    +0.021 C 
ATOM     17  C   UNL     1     -34.432  25.843   5.419  0.00  0.00    +0.042 C 
ATOM     18  C   UNL     1     -33.890  25.066   4.396  0.00  0.00    +0.015 C 
ATOM     19  C   UNL     1     -35.813  25.878   5.614  0.00  0.00    +0.015 C 
BRANCH  17  20
ATOM     20  N   UNL     1     -33.583  26.596   6.257  0.00  0.00    -0.357 N 
ATOM     21  H   UNL     1     -32.652  26.768   5.988  0.00  0.00    +0.142 HD
ATOM     22  H   UNL     1     -33.923  26.951   7.111  0.00  0.00    +0.142 HD
ENDBRANCH  17  20
ENDBRANCH   1  14
TORSDOF 3
ENDMDL
