MODEL 1
REMARK VINA RESULT:      -5.4      0.000      0.000
REMARK  Name = 196126
REMARK  10 active torsions:
REMARK  status: ('A' for Active; 'I' for Inactive)
REMARK    1  A    between atoms: C_1  and  N_3
REMARK    2  A    between atoms: C_1  and  C_7
REMARK    3  A    between atoms: C_1  and  CA_17
REMARK    4  A    between atoms: C_7  and  O_8
REMARK    5  A    between atoms: C_7  and  C_10
REMARK    6  A    between atoms: C_10  and  O_11
REMARK    7  A    between atoms: C_10  and  C_14
REMARK    8  A    between atoms: C_14  and  O_15
REMARK    9  A    between atoms: CA_17  and  N_19
REMARK   10  A    between atoms: CA_17  and  C_24
REMARK                            x       y       z     vdW  Elec       q    Type
REMARK                         _______ _______ _______ _____ _____    ______ ____
ROOT
ATOM      1  C   UNL     1     -34.640  25.650   4.412  0.00  0.00    +0.127 C 
ENDROOT
BRANCH   1   3
ATOM      2  O   UNL     1     -35.167  22.856   3.824  0.00  0.00    -0.275 OA
ATOM      3  N   UNL     1     -34.955  24.592   5.358  0.00  0.00    -0.302 N 
ATOM      4  C   UNL     1     -35.190  23.288   4.973  0.00  0.00    +0.223 C 
ATOM      5  C   UNL     1     -35.468  22.395   6.153  0.00  0.00    +0.095 C 
ATOM      6  H   UNL     1     -35.003  24.816   6.316  0.00  0.00    +0.150 HD
ENDBRANCH   1   3
BRANCH   1   7
ATOM      7  C   UNL     1     -35.898  26.517   4.181  0.00  0.00    +0.168 C 
BRANCH   7   8
ATOM      8  O   UNL     1     -36.696  26.492   5.374  0.00  0.00    -0.380 OA
ATOM      9  H   UNL     1     -37.582  26.156   5.163  0.00  0.00    +0.211 HD
ENDBRANCH   7   8
BRANCH   7  10
ATOM     10  C   UNL     1     -36.801  26.103   3.010  0.00  0.00    +0.238 C 
BRANCH  10  11
ATOM     11  O   UNL     1     -37.137  27.273   2.261  0.00  0.00    -0.373 OA
ATOM     12  H   UNL     1     -37.365  27.020   1.352  0.00  0.00    +0.211 HD
ENDBRANCH  10  11
BRANCH  10  14
ATOM     13  O   UNL     1     -38.265  24.299   3.744  0.00  0.00    -0.248 OA
ATOM     14  C   UNL     1     -38.112  25.471   3.426  0.00  0.00    +0.344 C 
BRANCH  14  15
ATOM     15  O   UNL     1     -39.116  26.382   3.429  0.00  0.00    -0.478 OA
ATOM     16  H   UNL     1     -39.088  27.108   4.021  0.00  0.00    +0.295 HD
ENDBRANCH  14  15
ENDBRANCH  10  14
ENDBRANCH   7  10
ENDBRANCH   1   7
BRANCH   1  17
ATOM     17  CA  UNL     1     -33.409  26.438   4.887  0.00  0.00    +0.157 C 
BRANCH  17  19
ATOM     18  O   UNL     1     -31.063  27.763   3.807  0.00  0.00    -0.275 OA
ATOM     19  N   UNL     1     -33.333  27.761   4.322  0.00  0.00    -0.298 N 
ATOM     20  C   UNL     1     -32.161  28.313   3.828  0.00  0.00    +0.223 C 
ATOM     21  C   UNL     1     -32.366  29.697   3.273  0.00  0.00    +0.095 C 
ATOM     22  H   UNL     1     -34.156  28.301   4.285  0.00  0.00    +0.150 HD
ENDBRANCH  17  19
BRANCH  17  24
ATOM     23  O   UNL     1     -32.370  26.987   7.002  0.00  0.00    -0.286 OA
ATOM     24  C   UNL     1     -33.369  26.611   6.393  0.00  0.00    +0.228 C 
ENDBRANCH  17  24
ENDBRANCH   1  17
TORSDOF 10
ENDMDL
MODEL 2
REMARK VINA RESULT:      -5.4      3.112      5.190
REMARK  Name = 196126
REMARK  10 active torsions:
REMARK  status: ('A' for Active; 'I' for Inactive)
REMARK    1  A    between atoms: C_1  and  N_3
REMARK    2  A    between atoms: C_1  and  C_7
REMARK    3  A    between atoms: C_1  and  CA_17
REMARK    4  A    between atoms: C_7  and  O_8
REMARK    5  A    between atoms: C_7  and  C_10
REMARK    6  A    between atoms: C_10  and  O_11
REMARK    7  A    between atoms: C_10  and  C_14
REMARK    8  A    between atoms: C_14  and  O_15
REMARK    9  A    between atoms: CA_17  and  N_19
REMARK   10  A    between atoms: CA_17  and  C_24
REMARK                            x       y       z     vdW  Elec       q    Type
REMARK                         _______ _______ _______ _____ _____    ______ ____
ROOT
ATOM      1  C   UNL     1     -36.401  23.696   3.436  0.00  0.00    +0.127 C 
ENDROOT
BRANCH   1   3
ATOM      2  O   UNL     1     -34.142  23.252   5.205  0.00  0.00    -0.275 OA
ATOM      3  N   UNL     1     -36.388  22.946   4.681  0.00  0.00    -0.302 N 
ATOM      4  C   UNL     1     -35.254  22.793   5.452  0.00  0.00    +0.223 C 
ATOM      5  C   UNL     1     -35.525  21.993   6.698  0.00  0.00    +0.095 C 
ATOM      6  H   UNL     1     -37.225  22.527   4.988  0.00  0.00    +0.150 HD
ENDBRANCH   1   3
BRANCH   1   7
ATOM      7  C   UNL     1     -37.124  22.868   2.350  0.00  0.00    +0.168 C 
BRANCH   7   8
ATOM      8  O   UNL     1     -38.242  22.199   2.953  0.00  0.00    -0.380 OA
ATOM      9  H   UNL     1     -38.772  21.769   2.264  0.00  0.00    +0.211 HD
ENDBRANCH   7   8
BRANCH   7  10
ATOM     10  C   UNL     1     -36.279  21.805   1.634  0.00  0.00    +0.238 C 
BRANCH  10  11
ATOM     11  O   UNL     1     -37.002  21.347   0.490  0.00  0.00    -0.373 OA
ATOM     12  H   UNL     1     -36.519  20.614   0.075  0.00  0.00    +0.211 HD
ENDBRANCH  10  11
BRANCH  10  14
ATOM     13  O   UNL     1     -34.990  20.421   3.171  0.00  0.00    -0.248 OA
ATOM     14  C   UNL     1     -35.981  20.578   2.470  0.00  0.00    +0.344 C 
BRANCH  14  15
ATOM     15  O   UNL     1     -36.976  19.662   2.369  0.00  0.00    -0.478 OA
ATOM     16  H   UNL     1     -36.769  18.754   2.267  0.00  0.00    +0.295 HD
ENDBRANCH  14  15
ENDBRANCH  10  14
ENDBRANCH   7  10
ENDBRANCH   1   7
BRANCH   1  17
ATOM     17  CA  UNL     1     -36.998  25.093   3.665  0.00  0.00    +0.157 C 
BRANCH  17  19
ATOM     18  O   UNL     1     -38.862  26.679   2.104  0.00  0.00    -0.275 OA
ATOM     19  N   UNL     1     -38.435  25.087   3.748  0.00  0.00    -0.298 N 
ATOM     20  C   UNL     1     -39.249  25.884   2.957  0.00  0.00    +0.223 C 
ATOM     21  C   UNL     1     -40.713  25.663   3.231  0.00  0.00    +0.095 C 
ATOM     22  H   UNL     1     -38.863  24.486   4.401  0.00  0.00    +0.150 HD
ENDBRANCH  17  19
BRANCH  17  24
ATOM     23  O   UNL     1     -35.531  26.502   4.975  0.00  0.00    -0.286 OA
ATOM     24  C   UNL     1     -36.497  25.743   4.940  0.00  0.00    +0.228 C 
ENDBRANCH  17  24
ENDBRANCH   1  17
TORSDOF 10
ENDMDL
MODEL 3
REMARK VINA RESULT:      -5.3      1.383      1.476
REMARK  Name = 196126
REMARK  10 active torsions:
REMARK  status: ('A' for Active; 'I' for Inactive)
REMARK    1  A    between atoms: C_1  and  N_3
REMARK    2  A    between atoms: C_1  and  C_7
REMARK    3  A    between atoms: C_1  and  CA_17
REMARK    4  A    between atoms: C_7  and  O_8
REMARK    5  A    between atoms: C_7  and  C_10
REMARK    6  A    between atoms: C_10  and  O_11
REMARK    7  A    between atoms: C_10  and  C_14
REMARK    8  A    between atoms: C_14  and  O_15
REMARK    9  A    between atoms: CA_17  and  N_19
REMARK   10  A    between atoms: CA_17  and  C_24
REMARK                            x       y       z     vdW  Elec       q    Type
REMARK                         _______ _______ _______ _____ _____    ______ ____
ROOT
ATOM      1  C   UNL     1     -34.825  25.212   3.841  0.00  0.00    +0.127 C 
ENDROOT
BRANCH   1   3
ATOM      2  O   UNL     1     -35.696  22.443   3.911  0.00  0.00    -0.275 OA
ATOM      3  N   UNL     1     -34.933  24.349   5.006  0.00  0.00    -0.302 N 
ATOM      4  C   UNL     1     -35.361  23.039   4.931  0.00  0.00    +0.223 C 
ATOM      5  C   UNL     1     -35.356  22.369   6.278  0.00  0.00    +0.095 C 
ATOM      6  H   UNL     1     -34.692  24.715   5.887  0.00  0.00    +0.150 HD
ENDBRANCH   1   3
BRANCH   1   7
ATOM      7  C   UNL     1     -35.998  26.218   3.841  0.00  0.00    +0.168 C 
BRANCH   7   8
ATOM      8  O   UNL     1     -36.647  26.163   5.120  0.00  0.00    -0.380 OA
ATOM      9  H   UNL     1     -37.526  25.765   5.019  0.00  0.00    +0.211 HD
ENDBRANCH   7   8
BRANCH   7  10
ATOM     10  C   UNL     1     -37.073  26.006   2.766  0.00  0.00    +0.238 C 
BRANCH  10  11
ATOM     11  O   UNL     1     -37.379  27.270   2.175  0.00  0.00    -0.373 OA
ATOM     12  H   UNL     1     -37.242  27.974   2.829  0.00  0.00    +0.211 HD
ENDBRANCH  10  11
BRANCH  10  14
ATOM     13  O   UNL     1     -38.592  24.279   3.572  0.00  0.00    -0.248 OA
ATOM     14  C   UNL     1     -38.380  25.451   3.291  0.00  0.00    +0.344 C 
BRANCH  14  15
ATOM     15  O   UNL     1     -39.303  26.433   3.441  0.00  0.00    -0.478 OA
ATOM     16  H   UNL     1     -39.966  26.557   2.790  0.00  0.00    +0.295 HD
ENDBRANCH  14  15
ENDBRANCH  10  14
ENDBRANCH   7  10
ENDBRANCH   1   7
BRANCH   1  17
ATOM     17  CA  UNL     1     -33.435  25.864   3.791  0.00  0.00    +0.157 C 
BRANCH  17  19
ATOM     18  O   UNL     1     -30.827  25.899   2.517  0.00  0.00    -0.275 OA
ATOM     19  N   UNL     1     -33.103  26.388   2.492  0.00  0.00    -0.298 N 
ATOM     20  C   UNL     1     -31.821  26.361   1.963  0.00  0.00    +0.223 C 
ATOM     21  C   UNL     1     -31.756  26.951   0.579  0.00  0.00    +0.095 C 
ATOM     22  H   UNL     1     -33.822  26.787   1.950  0.00  0.00    +0.150 HD
ENDBRANCH  17  19
BRANCH  17  24
ATOM     23  O   UNL     1     -33.253  26.866   5.986  0.00  0.00    -0.286 OA
ATOM     24  C   UNL     1     -33.292  27.016   4.767  0.00  0.00    +0.228 C 
ENDBRANCH  17  24
ENDBRANCH   1  17
TORSDOF 10
ENDMDL
MODEL 4
REMARK VINA RESULT:      -5.3      2.392      5.223
REMARK  Name = 196126
REMARK  10 active torsions:
REMARK  status: ('A' for Active; 'I' for Inactive)
REMARK    1  A    between atoms: C_1  and  N_3
REMARK    2  A    between atoms: C_1  and  C_7
REMARK    3  A    between atoms: C_1  and  CA_17
REMARK    4  A    between atoms: C_7  and  O_8
REMARK    5  A    between atoms: C_7  and  C_10
REMARK    6  A    between atoms: C_10  and  O_11
REMARK    7  A    between atoms: C_10  and  C_14
REMARK    8  A    between atoms: C_14  and  O_15
REMARK    9  A    between atoms: CA_17  and  N_19
REMARK   10  A    between atoms: CA_17  and  C_24
REMARK                            x       y       z     vdW  Elec       q    Type
REMARK                         _______ _______ _______ _____ _____    ______ ____
ROOT
ATOM      1  C   UNL     1     -36.403  24.550   4.088  0.00  0.00    +0.127 C 
ENDROOT
BRANCH   1   3
ATOM      2  O   UNL     1     -38.265  24.745   1.868  0.00  0.00    -0.275 OA
ATOM      3  N   UNL     1     -37.834  24.802   4.154  0.00  0.00    -0.302 N 
ATOM      4  C   UNL     1     -38.633  24.876   3.032  0.00  0.00    +0.223 C 
ATOM      5  C   UNL     1     -40.076  25.123   3.385  0.00  0.00    +0.095 C 
ATOM      6  H   UNL     1     -38.250  24.926   5.037  0.00  0.00    +0.150 HD
ENDBRANCH   1   3
BRANCH   1   7
ATOM      7  C   UNL     1     -35.692  25.360   5.194  0.00  0.00    +0.168 C 
BRANCH   7   8
ATOM      8  O   UNL     1     -36.551  26.437   5.597  0.00  0.00    -0.380 OA
ATOM      9  H   UNL     1     -36.046  27.265   5.614  0.00  0.00    +0.211 HD
ENDBRANCH   7   8
BRANCH   7  10
ATOM     10  C   UNL     1     -34.332  25.967   4.822  0.00  0.00    +0.238 C 
BRANCH  10  11
ATOM     11  O   UNL     1     -33.886  26.782   5.907  0.00  0.00    -0.373 OA
ATOM     12  H   UNL     1     -34.131  26.364   6.747  0.00  0.00    +0.211 HD
ENDBRANCH  10  11
BRANCH  10  14
ATOM     13  O   UNL     1     -33.752  26.659   2.558  0.00  0.00    -0.248 OA
ATOM     14  C   UNL     1     -34.362  26.861   3.599  0.00  0.00    +0.344 C 
BRANCH  14  15
ATOM     15  O   UNL     1     -35.182  27.923   3.790  0.00  0.00    -0.478 OA
ATOM     16  H   UNL     1     -35.966  28.007   3.284  0.00  0.00    +0.295 HD
ENDBRANCH  14  15
ENDBRANCH  10  14
ENDBRANCH   7  10
ENDBRANCH   1   7
BRANCH   1  17
ATOM     17  CA  UNL     1     -36.128  23.039   4.138  0.00  0.00    +0.157 C 
BRANCH  17  19
ATOM     18  O   UNL     1     -36.166  20.402   2.925  0.00  0.00    -0.275 OA
ATOM     19  N   UNL     1     -35.332  22.573   3.033  0.00  0.00    -0.298 N 
ATOM     20  C   UNL     1     -35.419  21.288   2.518  0.00  0.00    +0.223 C 
ATOM     21  C   UNL     1     -34.494  21.072   1.349  0.00  0.00    +0.095 C 
ATOM     22  H   UNL     1     -34.692  23.198   2.621  0.00  0.00    +0.150 HD
ENDBRANCH  17  19
BRANCH  17  24
ATOM     23  O   UNL     1     -35.968  22.133   6.376  0.00  0.00    -0.286 OA
ATOM     24  C   UNL     1     -35.400  22.616   5.400  0.00  0.00    +0.228 C 
ENDBRANCH  17  24
ENDBRANCH   1  17
TORSDOF 10
ENDMDL
MODEL 5
REMARK VINA RESULT:      -5.2      2.414      4.886
REMARK  Name = 196126
REMARK  10 active torsions:
REMARK  status: ('A' for Active; 'I' for Inactive)
REMARK    1  A    between atoms: C_1  and  N_3
REMARK    2  A    between atoms: C_1  and  C_7
REMARK    3  A    between atoms: C_1  and  CA_17
REMARK    4  A    between atoms: C_7  and  O_8
REMARK    5  A    between atoms: C_7  and  C_10
REMARK    6  A    between atoms: C_10  and  O_11
REMARK    7  A    between atoms: C_10  and  C_14
REMARK    8  A    between atoms: C_14  and  O_15
REMARK    9  A    between atoms: CA_17  and  N_19
REMARK   10  A    between atoms: CA_17  and  C_24
REMARK                            x       y       z     vdW  Elec       q    Type
REMARK                         _______ _______ _______ _____ _____    ______ ____
ROOT
ATOM      1  C   UNL     1     -36.090  24.065   3.796  0.00  0.00    +0.127 C 
ENDROOT
BRANCH   1   3
ATOM      2  O   UNL     1     -36.249  26.334   5.602  0.00  0.00    -0.275 OA
ATOM      3  N   UNL     1     -34.998  24.699   4.518  0.00  0.00    -0.302 N 
ATOM      4  C   UNL     1     -35.182  25.779   5.357  0.00  0.00    +0.223 C 
ATOM      5  C   UNL     1     -33.892  26.221   5.993  0.00  0.00    +0.095 C 
ATOM      6  H   UNL     1     -34.088  24.342   4.402  0.00  0.00    +0.150 HD
ENDBRANCH   1   3
BRANCH   1   7
ATOM      7  C   UNL     1     -36.119  24.598   2.346  0.00  0.00    +0.168 C 
BRANCH   7   8
ATOM      8  O   UNL     1     -34.797  25.030   1.991  0.00  0.00    -0.380 OA
ATOM      9  H   UNL     1     -34.753  25.998   2.024  0.00  0.00    +0.211 HD
ENDBRANCH   7   8
BRANCH   7  10
ATOM     10  C   UNL     1     -37.077  25.767   2.072  0.00  0.00    +0.238 C 
BRANCH  10  11
ATOM     11  O   UNL     1     -36.546  26.942   2.686  0.00  0.00    -0.373 OA
ATOM     12  H   UNL     1     -37.103  27.705   2.460  0.00  0.00    +0.211 HD
ENDBRANCH  10  11
BRANCH  10  14
ATOM     13  O   UNL     1     -39.290  24.761   2.248  0.00  0.00    -0.248 OA
ATOM     14  C   UNL     1     -38.468  25.578   2.640  0.00  0.00    +0.344 C 
BRANCH  14  15
ATOM     15  O   UNL     1     -38.693  26.425   3.675  0.00  0.00    -0.478 OA
ATOM     16  H   UNL     1     -38.107  27.139   3.832  0.00  0.00    +0.295 HD
ENDBRANCH  14  15
ENDBRANCH  10  14
ENDBRANCH   7  10
ENDBRANCH   1   7
BRANCH   1  17
ATOM     17  CA  UNL     1     -35.982  22.537   3.904  0.00  0.00    +0.157 C 
BRANCH  17  19
ATOM     18  O   UNL     1     -36.373  20.017   2.517  0.00  0.00    -0.275 OA
ATOM     19  N   UNL     1     -35.141  21.957   2.888  0.00  0.00    -0.298 N 
ATOM     20  C   UNL     1     -35.410  20.741   2.279  0.00  0.00    +0.223 C 
ATOM     21  C   UNL     1     -34.386  20.381   1.235  0.00  0.00    +0.095 C 
ATOM     22  H   UNL     1     -34.334  22.450   2.612  0.00  0.00    +0.150 HD
ENDBRANCH  17  19
BRANCH  17  24
ATOM     23  O   UNL     1     -35.926  22.374   6.317  0.00  0.00    -0.286 OA
ATOM     24  C   UNL     1     -35.420  22.081   5.237  0.00  0.00    +0.228 C 
ENDBRANCH  17  24
ENDBRANCH   1  17
TORSDOF 10
ENDMDL
MODEL 6
REMARK VINA RESULT:      -5.2      2.667      4.827
REMARK  Name = 196126
REMARK  10 active torsions:
REMARK  status: ('A' for Active; 'I' for Inactive)
REMARK    1  A    between atoms: C_1  and  N_3
REMARK    2  A    between atoms: C_1  and  C_7
REMARK    3  A    between atoms: C_1  and  CA_17
REMARK    4  A    between atoms: C_7  and  O_8
REMARK    5  A    between atoms: C_7  and  C_10
REMARK    6  A    between atoms: C_10  and  O_11
REMARK    7  A    between atoms: C_10  and  C_14
REMARK    8  A    between atoms: C_14  and  O_15
REMARK    9  A    between atoms: CA_17  and  N_19
REMARK   10  A    between atoms: CA_17  and  C_24
REMARK                            x       y       z     vdW  Elec       q    Type
REMARK                         _______ _______ _______ _____ _____    ______ ____
ROOT
ATOM      1  C   UNL     1     -36.538  23.504   3.218  0.00  0.00    +0.127 C 
ENDROOT
BRANCH   1   3
ATOM      2  O   UNL     1     -34.381  23.578   5.160  0.00  0.00    -0.275 OA
ATOM      3  N   UNL     1     -36.434  22.742   4.452  0.00  0.00    -0.302 N 
ATOM      4  C   UNL     1     -35.360  22.852   5.311  0.00  0.00    +0.223 C 
ATOM      5  C   UNL     1     -35.517  21.971   6.522  0.00  0.00    +0.095 C 
ATOM      6  H   UNL     1     -37.161  22.121   4.684  0.00  0.00    +0.150 HD
ENDBRANCH   1   3
BRANCH   1   7
ATOM      7  C   UNL     1     -37.237  22.641   2.144  0.00  0.00    +0.168 C 
BRANCH   7   8
ATOM      8  O   UNL     1     -38.245  21.844   2.782  0.00  0.00    -0.380 OA
ATOM      9  H   UNL     1     -38.636  22.343   3.516  0.00  0.00    +0.211 HD
ENDBRANCH   7   8
BRANCH   7  10
ATOM     10  C   UNL     1     -36.333  21.693   1.343  0.00  0.00    +0.238 C 
BRANCH  10  11
ATOM     11  O   UNL     1     -37.009  21.332   0.137  0.00  0.00    -0.373 OA
ATOM     12  H   UNL     1     -37.871  20.943   0.353  0.00  0.00    +0.211 HD
ENDBRANCH  10  11
BRANCH  10  14
ATOM     13  O   UNL     1     -35.137  20.252   2.903  0.00  0.00    -0.248 OA
ATOM     14  C   UNL     1     -36.006  20.396   2.054  0.00  0.00    +0.344 C 
BRANCH  14  15
ATOM     15  O   UNL     1     -36.824  19.394   1.646  0.00  0.00    -0.478 OA
ATOM     16  H   UNL     1     -36.676  18.518   1.942  0.00  0.00    +0.295 HD
ENDBRANCH  14  15
ENDBRANCH  10  14
ENDBRANCH   7  10
ENDBRANCH   1   7
BRANCH   1  17
ATOM     17  CA  UNL     1     -37.221  24.855   3.484  0.00  0.00    +0.157 C 
BRANCH  17  19
ATOM     18  O   UNL     1     -35.359  26.677   4.764  0.00  0.00    -0.275 OA
ATOM     19  N   UNL     1     -36.530  25.966   2.882  0.00  0.00    -0.298 N 
ATOM     20  C   UNL     1     -35.654  26.786   3.577  0.00  0.00    +0.223 C 
ATOM     21  C   UNL     1     -35.051  27.854   2.704  0.00  0.00    +0.095 C 
ATOM     22  H   UNL     1     -36.688  26.153   1.928  0.00  0.00    +0.150 HD
ENDBRANCH  17  19
BRANCH  17  24
ATOM     23  O   UNL     1     -39.617  24.552   3.631  0.00  0.00    -0.286 OA
ATOM     24  C   UNL     1     -38.645  24.904   2.967  0.00  0.00    +0.228 C 
ENDBRANCH  17  24
ENDBRANCH   1  17
TORSDOF 10
ENDMDL
MODEL 7
REMARK VINA RESULT:      -5.1      2.251      3.489
REMARK  Name = 196126
REMARK  10 active torsions:
REMARK  status: ('A' for Active; 'I' for Inactive)
REMARK    1  A    between atoms: C_1  and  N_3
REMARK    2  A    between atoms: C_1  and  C_7
REMARK    3  A    between atoms: C_1  and  CA_17
REMARK    4  A    between atoms: C_7  and  O_8
REMARK    5  A    between atoms: C_7  and  C_10
REMARK    6  A    between atoms: C_10  and  O_11
REMARK    7  A    between atoms: C_10  and  C_14
REMARK    8  A    between atoms: C_14  and  O_15
REMARK    9  A    between atoms: CA_17  and  N_19
REMARK   10  A    between atoms: CA_17  and  C_24
REMARK                            x       y       z     vdW  Elec       q    Type
REMARK                         _______ _______ _______ _____ _____    ______ ____
ROOT
ATOM      1  C   UNL     1     -36.296  23.950   3.050  0.00  0.00    +0.127 C 
ENDROOT
BRANCH   1   3
ATOM      2  O   UNL     1     -37.206  22.669   0.608  0.00  0.00    -0.275 OA
ATOM      3  N   UNL     1     -37.312  22.917   2.919  0.00  0.00    -0.302 N 
ATOM      4  C   UNL     1     -37.673  22.372   1.704  0.00  0.00    +0.223 C 
ATOM      5  C   UNL     1     -38.728  21.309   1.857  0.00  0.00    +0.095 C 
ATOM      6  H   UNL     1     -37.762  22.594   3.732  0.00  0.00    +0.150 HD
ENDBRANCH   1   3
BRANCH   1   7
ATOM      7  C   UNL     1     -36.976  25.291   3.402  0.00  0.00    +0.168 C 
BRANCH   7   8
ATOM      8  O   UNL     1     -37.617  25.159   4.679  0.00  0.00    -0.380 OA
ATOM      9  H   UNL     1     -38.376  25.760   4.723  0.00  0.00    +0.211 HD
ENDBRANCH   7   8
BRANCH   7  10
ATOM     10  C   UNL     1     -38.028  25.800   2.405  0.00  0.00    +0.238 C 
BRANCH  10  11
ATOM     11  O   UNL     1     -37.823  27.199   2.204  0.00  0.00    -0.373 OA
ATOM     12  H   UNL     1     -37.248  27.334   1.434  0.00  0.00    +0.211 HD
ENDBRANCH  10  11
BRANCH  10  14
ATOM     13  O   UNL     1     -40.134  24.626   2.762  0.00  0.00    -0.248 OA
ATOM     14  C   UNL     1     -39.459  25.640   2.875  0.00  0.00    +0.344 C 
BRANCH  14  15
ATOM     15  O   UNL     1     -39.908  26.773   3.469  0.00  0.00    -0.478 OA
ATOM     16  H   UNL     1     -39.740  26.923   4.379  0.00  0.00    +0.295 HD
ENDBRANCH  14  15
ENDBRANCH  10  14
ENDBRANCH   7  10
ENDBRANCH   1   7
BRANCH   1  17
ATOM     17  CA  UNL     1     -35.216  23.508   4.050  0.00  0.00    +0.157 C 
BRANCH  17  19
ATOM     18  O   UNL     1     -33.101  25.491   3.907  0.00  0.00    -0.275 OA
ATOM     19  N   UNL     1     -34.900  24.521   5.023  0.00  0.00    -0.298 N 
ATOM     20  C   UNL     1     -33.864  25.430   4.868  0.00  0.00    +0.223 C 
ATOM     21  C   UNL     1     -33.768  26.396   6.020  0.00  0.00    +0.095 C 
ATOM     22  H   UNL     1     -35.446  24.571   5.841  0.00  0.00    +0.150 HD
ENDBRANCH  17  19
BRANCH  17  24
ATOM     23  O   UNL     1     -36.031  22.309   5.987  0.00  0.00    -0.286 OA
ATOM     24  C   UNL     1     -35.613  22.271   4.832  0.00  0.00    +0.228 C 
ENDBRANCH  17  24
ENDBRANCH   1  17
TORSDOF 10
ENDMDL
MODEL 8
REMARK VINA RESULT:      -5.1      4.177      6.978
REMARK  Name = 196126
REMARK  10 active torsions:
REMARK  status: ('A' for Active; 'I' for Inactive)
REMARK    1  A    between atoms: C_1  and  N_3
REMARK    2  A    between atoms: C_1  and  C_7
REMARK    3  A    between atoms: C_1  and  CA_17
REMARK    4  A    between atoms: C_7  and  O_8
REMARK    5  A    between atoms: C_7  and  C_10
REMARK    6  A    between atoms: C_10  and  O_11
REMARK    7  A    between atoms: C_10  and  C_14
REMARK    8  A    between atoms: C_14  and  O_15
REMARK    9  A    between atoms: CA_17  and  N_19
REMARK   10  A    between atoms: CA_17  and  C_24
REMARK                            x       y       z     vdW  Elec       q    Type
REMARK                         _______ _______ _______ _____ _____    ______ ____
ROOT
ATOM      1  C   UNL     1     -36.800  21.912   2.430  0.00  0.00    +0.127 C 
ENDROOT
BRANCH   1   3
ATOM      2  O   UNL     1     -35.809  23.894   4.306  0.00  0.00    -0.275 OA
ATOM      3  N   UNL     1     -36.248  21.677   3.755  0.00  0.00    -0.302 N 
ATOM      4  C   UNL     1     -35.802  22.695   4.572  0.00  0.00    +0.223 C 
ATOM      5  C   UNL     1     -35.303  22.177   5.894  0.00  0.00    +0.095 C 
ATOM      6  H   UNL     1     -36.189  20.751   4.082  0.00  0.00    +0.150 HD
ENDBRANCH   1   3
BRANCH   1   7
ATOM      7  C   UNL     1     -36.731  20.604   1.610  0.00  0.00    +0.168 C 
BRANCH   7   8
ATOM      8  O   UNL     1     -36.748  19.493   2.518  0.00  0.00    -0.380 OA
ATOM      9  H   UNL     1     -35.841  19.282   2.789  0.00  0.00    +0.211 HD
ENDBRANCH   7   8
BRANCH   7  10
ATOM     10  C   UNL     1     -35.505  20.439   0.700  0.00  0.00    +0.238 C 
BRANCH  10  11
ATOM     11  O   UNL     1     -35.959  20.274  -0.645  0.00  0.00    -0.373 OA
ATOM     12  H   UNL     1     -36.237  21.134  -1.000  0.00  0.00    +0.211 HD
ENDBRANCH  10  11
BRANCH  10  14
ATOM     13  O   UNL     1     -33.667  19.224   1.740  0.00  0.00    -0.248 OA
ATOM     14  C   UNL     1     -34.652  19.228   1.015  0.00  0.00    +0.344 C 
BRANCH  14  15
ATOM     15  O   UNL     1     -35.135  18.118   0.404  0.00  0.00    -0.478 OA
ATOM     16  H   UNL     1     -34.554  17.550  -0.063  0.00  0.00    +0.295 HD
ENDBRANCH  14  15
ENDBRANCH  10  14
ENDBRANCH   7  10
ENDBRANCH   1   7
BRANCH   1  17
ATOM     17  CA  UNL     1     -38.210  22.512   2.542  0.00  0.00    +0.157 C 
BRANCH  17  19
ATOM     18  O   UNL     1     -39.797  24.611   3.768  0.00  0.00    -0.275 OA
ATOM     19  N   UNL     1     -38.263  23.902   2.166  0.00  0.00    -0.298 N 
ATOM     20  C   UNL     1     -39.056  24.837   2.814  0.00  0.00    +0.223 C 
ATOM     21  C   UNL     1     -38.904  26.219   2.237  0.00  0.00    +0.095 C 
ATOM     22  H   UNL     1     -37.709  24.203   1.410  0.00  0.00    +0.150 HD
ENDBRANCH  17  19
BRANCH  17  24
ATOM     23  O   UNL     1     -40.207  21.212   2.125  0.00  0.00    -0.286 OA
ATOM     24  C   UNL     1     -39.223  21.794   1.673  0.00  0.00    +0.228 C 
ENDBRANCH  17  24
ENDBRANCH   1  17
TORSDOF 10
ENDMDL
MODEL 9
REMARK VINA RESULT:      -5.1      2.621      5.432
REMARK  Name = 196126
REMARK  10 active torsions:
REMARK  status: ('A' for Active; 'I' for Inactive)
REMARK    1  A    between atoms: C_1  and  N_3
REMARK    2  A    between atoms: C_1  and  C_7
REMARK    3  A    between atoms: C_1  and  CA_17
REMARK    4  A    between atoms: C_7  and  O_8
REMARK    5  A    between atoms: C_7  and  C_10
REMARK    6  A    between atoms: C_10  and  O_11
REMARK    7  A    between atoms: C_10  and  C_14
REMARK    8  A    between atoms: C_14  and  O_15
REMARK    9  A    between atoms: CA_17  and  N_19
REMARK   10  A    between atoms: CA_17  and  C_24
REMARK                            x       y       z     vdW  Elec       q    Type
REMARK                         _______ _______ _______ _____ _____    ______ ____
ROOT
ATOM      1  C   UNL     1     -35.690  24.289   2.848  0.00  0.00    +0.127 C 
ENDROOT
BRANCH   1   3
ATOM      2  O   UNL     1     -33.165  25.184   3.967  0.00  0.00    -0.275 OA
ATOM      3  N   UNL     1     -35.478  24.976   4.111  0.00  0.00    -0.302 N 
ATOM      4  C   UNL     1     -34.229  25.361   4.554  0.00  0.00    +0.223 C 
ATOM      5  C   UNL     1     -34.297  26.074   5.878  0.00  0.00    +0.095 C 
ATOM      6  H   UNL     1     -36.259  25.176   4.676  0.00  0.00    +0.150 HD
ENDBRANCH   1   3
BRANCH   1   7
ATOM      7  C   UNL     1     -36.248  22.875   3.125  0.00  0.00    +0.168 C 
BRANCH   7   8
ATOM      8  O   UNL     1     -37.454  23.001   3.893  0.00  0.00    -0.380 OA
ATOM      9  H   UNL     1     -37.490  22.294   4.557  0.00  0.00    +0.211 HD
ENDBRANCH   7   8
BRANCH   7  10
ATOM     10  C   UNL     1     -35.316  21.915   3.880  0.00  0.00    +0.238 C 
BRANCH  10  11
ATOM     11  O   UNL     1     -35.543  20.590   3.398  0.00  0.00    -0.373 OA
ATOM     12  H   UNL     1     -35.251  20.527   2.475  0.00  0.00    +0.211 HD
ENDBRANCH  10  11
BRANCH  10  14
ATOM     13  O   UNL     1     -35.874  22.823   6.072  0.00  0.00    -0.248 OA
ATOM     14  C   UNL     1     -35.545  21.871   5.376  0.00  0.00    +0.344 C 
BRANCH  14  15
ATOM     15  O   UNL     1     -35.363  20.619   5.862  0.00  0.00    -0.478 OA
ATOM     16  H   UNL     1     -35.409  20.463   6.785  0.00  0.00    +0.295 HD
ENDBRANCH  14  15
ENDBRANCH  10  14
ENDBRANCH   7  10
ENDBRANCH   1   7
BRANCH   1  17
ATOM     17  CA  UNL     1     -36.569  25.142   1.920  0.00  0.00    +0.157 C 
BRANCH  17  19
ATOM     18  O   UNL     1     -39.288  24.867   0.939  0.00  0.00    -0.275 OA
ATOM     19  N   UNL     1     -37.778  25.601   2.553  0.00  0.00    -0.298 N 
ATOM     20  C   UNL     1     -39.040  25.424   2.006  0.00  0.00    +0.223 C 
ATOM     21  C   UNL     1     -40.131  25.976   2.885  0.00  0.00    +0.095 C 
ATOM     22  H   UNL     1     -37.706  26.065   3.419  0.00  0.00    +0.150 HD
ENDBRANCH  17  19
BRANCH  17  24
ATOM     23  O   UNL     1     -34.638  26.441   1.262  0.00  0.00    -0.286 OA
ATOM     24  C   UNL     1     -35.856  26.379   1.410  0.00  0.00    +0.228 C 
ENDBRANCH  17  24
ENDBRANCH   1  17
TORSDOF 10
ENDMDL
