MODEL 1
REMARK VINA RESULT:      -6.4      0.000      0.000
REMARK  Name = 5281734
REMARK  3 active torsions:
REMARK  status: ('A' for Active; 'I' for Inactive)
REMARK    1  A    between atoms: C_17  and  O_24
REMARK    2  A    between atoms: C_17  and  C_26
REMARK    3  A    between atoms: C_26  and  O_27
REMARK                            x       y       z     vdW  Elec       q    Type
REMARK                         _______ _______ _______ _____ _____    ______ ____
ROOT
ATOM      1  O   UNL     1     -34.320  25.344   1.497  0.00  0.00    -0.451 OA
ATOM      2  O   UNL     1     -33.799  28.929   4.026  0.00  0.00    -0.288 OA
ATOM      3  O   UNL     1     -37.097  24.578   2.891  0.00  0.00    -0.442 OA
ATOM      4  O   UNL     1     -34.149  25.324  -0.810  0.00  0.00    -0.245 OA
ATOM      5  O   UNL     1     -36.686  23.046   4.568  0.00  0.00    -0.247 OA
ATOM      6  N   UNL     1     -33.705  27.642   3.573  0.00  0.00    +0.439 N 
ATOM      7  C   UNL     1     -35.033  27.181   2.947  0.00  0.00    +0.050 C 
ATOM      8  C   UNL     1     -34.682  26.738   1.519  0.00  0.00    +0.158 C 
ATOM      9  C   UNL     1     -32.670  27.546   2.484  0.00  0.00    -0.023 C 
ATOM     10  C   UNL     1     -33.474  27.616   1.199  0.00  0.00    +0.025 C 
ATOM     11  C   UNL     1     -33.468  26.684   4.729  0.00  0.00    -0.000 C 
ATOM     12  C   UNL     1     -35.606  26.179   3.908  0.00  0.00    -0.018 C 
ATOM     13  C   UNL     1     -34.740  25.924   4.896  0.00  0.00    -0.050 C 
ATOM     14  C   UNL     1     -37.005  25.673   3.817  0.00  0.00    +0.229 C 
ATOM     15  C   UNL     1     -34.118  24.771   0.278  0.00  0.00    +0.337 C 
ATOM     16  C   UNL     1     -36.224  22.557   1.073  0.00  0.00    +0.042 C 
ATOM     17  C   UNL     1     -37.127  22.266   2.304  0.00  0.00    +0.205 C 
ATOM     18  C   UNL     1     -34.717  22.560   1.457  0.00  0.00    +0.036 C 
ATOM     19  C   UNL     1     -33.874  23.319   0.466  0.00  0.00    +0.049 C 
ATOM     20  C   UNL     1     -36.936  23.318   3.400  0.00  0.00    +0.344 C 
ATOM     21  C   UNL     1     -36.455  21.556  -0.072  0.00  0.00    +0.003 C 
ATOM     22  C   UNL     1     -32.911  22.768  -0.284  0.00  0.00    -0.024 C 
ATOM     23  C   UNL     1     -32.534  21.327  -0.225  0.00  0.00    +0.031 C 
ENDROOT
BRANCH  17  24
ATOM     24  O   UNL     1     -36.754  21.009   2.862  0.00  0.00    -0.375 OA
ATOM     25  H   UNL     1     -37.073  20.293   2.291  0.00  0.00    +0.211 HD
ENDBRANCH  17  24
BRANCH  17  26
ATOM     26  C   UNL     1     -38.619  22.210   1.958  0.00  0.00    +0.175 C 
BRANCH  26  27
ATOM     27  O   UNL     1     -39.109  20.931   2.311  0.00  0.00    -0.379 OA
ATOM     28  H   UNL     1     -38.414  20.434   2.771  0.00  0.00    +0.211 HD
ENDBRANCH  26  27
ENDBRANCH  17  26
TORSDOF 3
ENDMDL
MODEL 2
REMARK VINA RESULT:      -6.3      2.238      5.188
REMARK  Name = 5281734
REMARK  3 active torsions:
REMARK  status: ('A' for Active; 'I' for Inactive)
REMARK    1  A    between atoms: C_17  and  O_24
REMARK    2  A    between atoms: C_17  and  C_26
REMARK    3  A    between atoms: C_26  and  O_27
REMARK                            x       y       z     vdW  Elec       q    Type
REMARK                         _______ _______ _______ _____ _____    ______ ____
ROOT
ATOM      1  O   UNL     1     -33.963  24.453   0.981  0.00  0.00    -0.451 OA
ATOM      2  O   UNL     1     -34.674  21.670  -2.376  0.00  0.00    -0.288 OA
ATOM      3  O   UNL     1     -35.298  22.468   3.109  0.00  0.00    -0.442 OA
ATOM      4  O   UNL     1     -31.930  25.448   1.458  0.00  0.00    -0.245 OA
ATOM      5  O   UNL     1     -37.510  23.065   3.391  0.00  0.00    -0.247 OA
ATOM      6  N   UNL     1     -34.850  22.694  -1.487  0.00  0.00    +0.439 N 
ATOM      7  C   UNL     1     -34.377  22.287  -0.079  0.00  0.00    +0.050 C 
ATOM      8  C   UNL     1     -33.332  23.338   0.323  0.00  0.00    +0.158 C 
ATOM      9  C   UNL     1     -34.014  23.880  -1.885  0.00  0.00    -0.023 C 
ATOM     10  C   UNL     1     -32.765  23.760  -1.031  0.00  0.00    +0.025 C 
ATOM     11  C   UNL     1     -36.326  23.012  -1.322  0.00  0.00    -0.000 C 
ATOM     12  C   UNL     1     -35.628  22.143   0.740  0.00  0.00    -0.018 C 
ATOM     13  C   UNL     1     -36.700  22.532   0.039  0.00  0.00    -0.050 C 
ATOM     14  C   UNL     1     -35.646  21.515   2.091  0.00  0.00    +0.229 C 
ATOM     15  C   UNL     1     -33.149  25.401   1.521  0.00  0.00    +0.337 C 
ATOM     16  C   UNL     1     -34.652  24.996   4.269  0.00  0.00    +0.042 C 
ATOM     17  C   UNL     1     -35.798  24.084   4.790  0.00  0.00    +0.205 C 
ATOM     18  C   UNL     1     -35.127  25.898   3.094  0.00  0.00    +0.036 C 
ATOM     19  C   UNL     1     -33.981  26.390   2.249  0.00  0.00    +0.049 C 
ATOM     20  C   UNL     1     -36.325  23.162   3.688  0.00  0.00    +0.344 C 
ATOM     21  C   UNL     1     -34.054  25.877   5.379  0.00  0.00    +0.003 C 
ATOM     22  C   UNL     1     -33.643  27.679   2.114  0.00  0.00    -0.024 C 
ATOM     23  C   UNL     1     -34.369  28.803   2.772  0.00  0.00    +0.031 C 
ENDROOT
BRANCH  17  24
ATOM     24  O   UNL     1     -36.887  24.906   5.204  0.00  0.00    -0.375 OA
ATOM     25  H   UNL     1     -37.498  24.384   5.747  0.00  0.00    +0.211 HD
ENDBRANCH  17  24
BRANCH  17  26
ATOM     26  C   UNL     1     -35.381  23.211   5.977  0.00  0.00    +0.175 C 
BRANCH  26  27
ATOM     27  O   UNL     1     -36.082  21.985   5.895  0.00  0.00    -0.379 OA
ATOM     28  H   UNL     1     -36.285  21.668   6.789  0.00  0.00    +0.211 HD
ENDBRANCH  26  27
ENDBRANCH  17  26
TORSDOF 3
ENDMDL
MODEL 3
REMARK VINA RESULT:      -6.3      1.655      1.999
REMARK  Name = 5281734
REMARK  3 active torsions:
REMARK  status: ('A' for Active; 'I' for Inactive)
REMARK    1  A    between atoms: C_17  and  O_24
REMARK    2  A    between atoms: C_17  and  C_26
REMARK    3  A    between atoms: C_26  and  O_27
REMARK                            x       y       z     vdW  Elec       q    Type
REMARK                         _______ _______ _______ _____ _____    ______ ____
ROOT
ATOM      1  O   UNL     1     -33.800  23.495   0.623  0.00  0.00    -0.451 OA
ATOM      2  O   UNL     1     -33.411  27.695   1.941  0.00  0.00    -0.288 OA
ATOM      3  O   UNL     1     -36.831  23.299   1.636  0.00  0.00    -0.442 OA
ATOM      4  O   UNL     1     -33.240  22.719  -1.483  0.00  0.00    -0.245 OA
ATOM      5  O   UNL     1     -36.846  22.388   3.756  0.00  0.00    -0.247 OA
ATOM      6  N   UNL     1     -33.353  26.328   1.945  0.00  0.00    +0.439 N 
ATOM      7  C   UNL     1     -34.590  25.723   1.256  0.00  0.00    +0.050 C 
ATOM      8  C   UNL     1     -34.039  24.829   0.135  0.00  0.00    +0.158 C 
ATOM      9  C   UNL     1     -32.160  25.855   1.159  0.00  0.00    -0.023 C 
ATOM     10  C   UNL     1     -32.723  25.523  -0.211  0.00  0.00    +0.025 C 
ATOM     11  C   UNL     1     -33.401  25.794   3.366  0.00  0.00    -0.000 C 
ATOM     12  C   UNL     1     -35.402  25.106   2.358  0.00  0.00    -0.018 C 
ATOM     13  C   UNL     1     -34.743  25.164   3.521  0.00  0.00    -0.050 C 
ATOM     14  C   UNL     1     -36.803  24.634   2.168  0.00  0.00    +0.229 C 
ATOM     15  C   UNL     1     -33.443  22.551  -0.290  0.00  0.00    +0.337 C 
ATOM     16  C   UNL     1     -35.838  20.773   0.749  0.00  0.00    +0.042 C 
ATOM     17  C   UNL     1     -36.960  20.924   1.814  0.00  0.00    +0.205 C 
ATOM     18  C   UNL     1     -34.424  20.863   1.390  0.00  0.00    +0.036 C 
ATOM     19  C   UNL     1     -33.361  21.234   0.388  0.00  0.00    +0.049 C 
ATOM     20  C   UNL     1     -36.868  22.270   2.537  0.00  0.00    +0.344 C 
ATOM     21  C   UNL     1     -35.956  19.460  -0.044  0.00  0.00    +0.003 C 
ATOM     22  C   UNL     1     -32.336  20.443   0.048  0.00  0.00    -0.024 C 
ATOM     23  C   UNL     1     -32.100  19.091   0.629  0.00  0.00    +0.031 C 
ENDROOT
BRANCH  17  24
ATOM     24  O   UNL     1     -36.796  19.909   2.801  0.00  0.00    -0.375 OA
ATOM     25  H   UNL     1     -36.062  19.327   2.548  0.00  0.00    +0.211 HD
ENDBRANCH  17  24
BRANCH  17  26
ATOM     26  C   UNL     1     -38.369  20.798   1.228  0.00  0.00    +0.175 C 
BRANCH  26  27
ATOM     27  O   UNL     1     -39.299  21.191   2.218  0.00  0.00    -0.379 OA
ATOM     28  H   UNL     1     -40.030  20.553   2.247  0.00  0.00    +0.211 HD
ENDBRANCH  26  27
ENDBRANCH  17  26
TORSDOF 3
ENDMDL
MODEL 4
REMARK VINA RESULT:      -6.3      1.757      2.302
REMARK  Name = 5281734
REMARK  3 active torsions:
REMARK  status: ('A' for Active; 'I' for Inactive)
REMARK    1  A    between atoms: C_17  and  O_24
REMARK    2  A    between atoms: C_17  and  C_26
REMARK    3  A    between atoms: C_26  and  O_27
REMARK                            x       y       z     vdW  Elec       q    Type
REMARK                         _______ _______ _______ _____ _____    ______ ____
ROOT
ATOM      1  O   UNL     1     -34.354  24.249   1.325  0.00  0.00    -0.451 OA
ATOM      2  O   UNL     1     -35.348  26.820   4.778  0.00  0.00    -0.288 OA
ATOM      3  O   UNL     1     -36.561  22.070   2.118  0.00  0.00    -0.442 OA
ATOM      4  O   UNL     1     -34.201  24.985  -0.863  0.00  0.00    -0.245 OA
ATOM      5  O   UNL     1     -35.547  20.404   3.351  0.00  0.00    -0.247 OA
ATOM      6  N   UNL     1     -34.733  25.873   4.007  0.00  0.00    +0.439 N 
ATOM      7  C   UNL     1     -35.756  25.133   3.126  0.00  0.00    +0.050 C 
ATOM      8  C   UNL     1     -35.260  25.311   1.683  0.00  0.00    +0.158 C 
ATOM      9  C   UNL     1     -33.757  26.522   3.063  0.00  0.00    -0.023 C 
ATOM     10  C   UNL     1     -34.524  26.647   1.760  0.00  0.00    +0.025 C 
ATOM     11  C   UNL     1     -34.117  24.791   4.877  0.00  0.00    -0.000 C 
ATOM     12  C   UNL     1     -35.859  23.750   3.703  0.00  0.00    -0.018 C 
ATOM     13  C   UNL     1     -34.960  23.577   4.679  0.00  0.00    -0.050 C 
ATOM     14  C   UNL     1     -36.925  22.784   3.311  0.00  0.00    +0.229 C 
ATOM     15  C   UNL     1     -33.940  24.193   0.029  0.00  0.00    +0.337 C 
ATOM     16  C   UNL     1     -34.940  21.199  -0.065  0.00  0.00    +0.042 C 
ATOM     17  C   UNL     1     -35.637  20.224   0.925  0.00  0.00    +0.205 C 
ATOM     18  C   UNL     1     -33.567  21.685   0.481  0.00  0.00    +0.036 C 
ATOM     19  C   UNL     1     -33.118  22.972  -0.158  0.00  0.00    +0.049 C 
ATOM     20  C   UNL     1     -35.892  20.888   2.280  0.00  0.00    +0.344 C 
ATOM     21  C   UNL     1     -34.743  20.578  -1.459  0.00  0.00    +0.003 C 
ATOM     22  C   UNL     1     -32.016  23.096  -0.911  0.00  0.00    -0.024 C 
ATOM     23  C   UNL     1     -31.078  21.976  -1.203  0.00  0.00    +0.031 C 
ENDROOT
BRANCH  17  24
ATOM     24  O   UNL     1     -34.775  19.113   1.159  0.00  0.00    -0.375 OA
ATOM     25  H   UNL     1     -35.245  18.443   1.680  0.00  0.00    +0.211 HD
ENDBRANCH  17  24
BRANCH  17  26
ATOM     26  C   UNL     1     -36.974  19.688   0.402  0.00  0.00    +0.175 C 
BRANCH  26  27
ATOM     27  O   UNL     1     -37.098  18.338   0.802  0.00  0.00    -0.379 OA
ATOM     28  H   UNL     1     -36.340  17.831   0.470  0.00  0.00    +0.211 HD
ENDBRANCH  26  27
ENDBRANCH  17  26
TORSDOF 3
ENDMDL
MODEL 5
REMARK VINA RESULT:      -6.2      2.970      5.507
REMARK  Name = 5281734
REMARK  3 active torsions:
REMARK  status: ('A' for Active; 'I' for Inactive)
REMARK    1  A    between atoms: C_17  and  O_24
REMARK    2  A    between atoms: C_17  and  C_26
REMARK    3  A    between atoms: C_26  and  O_27
REMARK                            x       y       z     vdW  Elec       q    Type
REMARK                         _______ _______ _______ _____ _____    ______ ____
ROOT
ATOM      1  O   UNL     1     -38.044  23.150   1.173  0.00  0.00    -0.451 OA
ATOM      2  O   UNL     1     -40.296  25.543  -1.781  0.00  0.00    -0.288 OA
ATOM      3  O   UNL     1     -37.372  25.716   2.966  0.00  0.00    -0.442 OA
ATOM      4  O   UNL     1     -38.830  21.220   2.179  0.00  0.00    -0.245 OA
ATOM      5  O   UNL     1     -35.288  26.509   2.370  0.00  0.00    -0.247 OA
ATOM      6  N   UNL     1     -39.268  24.882  -1.167  0.00  0.00    +0.439 N 
ATOM      7  C   UNL     1     -39.330  25.066   0.360  0.00  0.00    +0.050 C 
ATOM      8  C   UNL     1     -39.377  23.646   0.944  0.00  0.00    +0.158 C 
ATOM      9  C   UNL     1     -39.377  23.401  -1.416  0.00  0.00    -0.023 C 
ATOM     10  C   UNL     1     -40.061  22.863  -0.173  0.00  0.00    +0.025 C 
ATOM     11  C   UNL     1     -37.930  25.474  -1.575  0.00  0.00    -0.000 C 
ATOM     12  C   UNL     1     -38.177  25.966   0.704  0.00  0.00    -0.018 C 
ATOM     13  C   UNL     1     -37.419  26.197  -0.375  0.00  0.00    -0.050 C 
ATOM     14  C   UNL     1     -38.017  26.606   2.040  0.00  0.00    +0.229 C 
ATOM     15  C   UNL     1     -37.925  21.958   1.819  0.00  0.00    +0.337 C 
ATOM     16  C   UNL     1     -36.021  23.380   3.899  0.00  0.00    +0.042 C 
ATOM     17  C   UNL     1     -35.483  24.822   4.115  0.00  0.00    +0.205 C 
ATOM     18  C   UNL     1     -35.596  22.811   2.516  0.00  0.00    +0.036 C 
ATOM     19  C   UNL     1     -36.486  21.684   2.060  0.00  0.00    +0.049 C 
ATOM     20  C   UNL     1     -36.007  25.781   3.044  0.00  0.00    +0.344 C 
ATOM     21  C   UNL     1     -35.568  22.414   5.008  0.00  0.00    +0.003 C 
ATOM     22  C   UNL     1     -36.071  20.426   1.866  0.00  0.00    -0.024 C 
ATOM     23  C   UNL     1     -34.663  19.975   2.060  0.00  0.00    +0.031 C 
ENDROOT
BRANCH  17  24
ATOM     24  O   UNL     1     -34.062  24.804   4.000  0.00  0.00    -0.375 OA
ATOM     25  H   UNL     1     -33.775  25.526   3.418  0.00  0.00    +0.211 HD
ENDBRANCH  17  24
BRANCH  17  26
ATOM     26  C   UNL     1     -35.843  25.401   5.486  0.00  0.00    +0.175 C 
BRANCH  26  27
ATOM     27  O   UNL     1     -36.404  26.685   5.292  0.00  0.00    -0.379 OA
ATOM     28  H   UNL     1     -35.992  27.105   4.520  0.00  0.00    +0.211 HD
ENDBRANCH  26  27
ENDBRANCH  17  26
TORSDOF 3
ENDMDL
MODEL 6
REMARK VINA RESULT:      -6.2      2.342      6.030
REMARK  Name = 5281734
REMARK  3 active torsions:
REMARK  status: ('A' for Active; 'I' for Inactive)
REMARK    1  A    between atoms: C_17  and  O_24
REMARK    2  A    between atoms: C_17  and  C_26
REMARK    3  A    between atoms: C_26  and  O_27
REMARK                            x       y       z     vdW  Elec       q    Type
REMARK                         _______ _______ _______ _____ _____    ______ ____
ROOT
ATOM      1  O   UNL     1     -35.636  22.878   2.046  0.00  0.00    -0.451 OA
ATOM      2  O   UNL     1     -34.916  21.492  -2.087  0.00  0.00    -0.288 OA
ATOM      3  O   UNL     1     -34.488  25.801   1.427  0.00  0.00    -0.442 OA
ATOM      4  O   UNL     1     -37.639  22.647   3.182  0.00  0.00    -0.245 OA
ATOM      5  O   UNL     1     -32.264  25.868   2.043  0.00  0.00    -0.247 OA
ATOM      6  N   UNL     1     -34.730  21.733  -0.754  0.00  0.00    +0.439 N 
ATOM      7  C   UNL     1     -35.280  23.116  -0.363  0.00  0.00    +0.050 C 
ATOM      8  C   UNL     1     -36.291  22.853   0.763  0.00  0.00    +0.158 C 
ATOM      9  C   UNL     1     -35.491  20.729   0.070  0.00  0.00    -0.023 C 
ATOM     10  C   UNL     1     -36.779  21.444   0.432  0.00  0.00    +0.025 C 
ATOM     11  C   UNL     1     -33.248  21.798  -0.424  0.00  0.00    -0.000 C 
ATOM     12  C   UNL     1     -34.074  23.966  -0.085  0.00  0.00    -0.018 C 
ATOM     13  C   UNL     1     -32.956  23.232  -0.136  0.00  0.00    -0.050 C 
ATOM     14  C   UNL     1     -34.143  25.446   0.078  0.00  0.00    +0.229 C 
ATOM     15  C   UNL     1     -36.427  22.799   3.151  0.00  0.00    +0.337 C 
ATOM     16  C   UNL     1     -35.063  25.447   4.202  0.00  0.00    +0.042 C 
ATOM     17  C   UNL     1     -33.984  26.432   3.671  0.00  0.00    +0.205 C 
ATOM     18  C   UNL     1     -34.496  24.007   4.355  0.00  0.00    +0.036 C 
ATOM     19  C   UNL     1     -35.580  22.960   4.359  0.00  0.00    +0.049 C 
ATOM     20  C   UNL     1     -33.455  26.000   2.302  0.00  0.00    +0.344 C 
ATOM     21  C   UNL     1     -35.665  25.903   5.542  0.00  0.00    +0.003 C 
ATOM     22  C   UNL     1     -35.851  22.158   5.397  0.00  0.00    -0.024 C 
ATOM     23  C   UNL     1     -35.101  22.184   6.685  0.00  0.00    +0.031 C 
ENDROOT
BRANCH  17  24
ATOM     24  O   UNL     1     -32.876  26.427   4.568  0.00  0.00    -0.375 OA
ATOM     25  H   UNL     1     -32.567  27.337   4.706  0.00  0.00    +0.211 HD
ENDBRANCH  17  24
BRANCH  17  26
ATOM     26  C   UNL     1     -34.492  27.873   3.548  0.00  0.00    +0.175 C 
BRANCH  26  27
ATOM     27  O   UNL     1     -35.688  27.859   2.793  0.00  0.00    -0.379 OA
ATOM     28  H   UNL     1     -36.449  27.845   3.394  0.00  0.00    +0.211 HD
ENDBRANCH  26  27
ENDBRANCH  17  26
TORSDOF 3
ENDMDL
MODEL 7
REMARK VINA RESULT:      -6.2      1.572      1.929
REMARK  Name = 5281734
REMARK  3 active torsions:
REMARK  status: ('A' for Active; 'I' for Inactive)
REMARK    1  A    between atoms: C_17  and  O_24
REMARK    2  A    between atoms: C_17  and  C_26
REMARK    3  A    between atoms: C_26  and  O_27
REMARK                            x       y       z     vdW  Elec       q    Type
REMARK                         _______ _______ _______ _____ _____    ______ ____
ROOT
ATOM      1  O   UNL     1     -35.013  24.191   1.694  0.00  0.00    -0.451 OA
ATOM      2  O   UNL     1     -34.316  28.041   3.747  0.00  0.00    -0.288 OA
ATOM      3  O   UNL     1     -38.188  24.603   1.674  0.00  0.00    -0.442 OA
ATOM      4  O   UNL     1     -33.931  23.513  -0.235  0.00  0.00    -0.245 OA
ATOM      5  O   UNL     1     -39.086  23.521   3.504  0.00  0.00    -0.247 OA
ATOM      6  N   UNL     1     -34.518  26.705   3.541  0.00  0.00    +0.439 N 
ATOM      7  C   UNL     1     -35.540  26.470   2.414  0.00  0.00    +0.050 C 
ATOM      8  C   UNL     1     -34.820  25.585   1.385  0.00  0.00    +0.158 C 
ATOM      9  C   UNL     1     -33.240  26.046   3.094  0.00  0.00    -0.023 C 
ATOM     10  C   UNL     1     -33.360  25.986   1.583  0.00  0.00    +0.025 C 
ATOM     11  C   UNL     1     -35.141  26.062   4.768  0.00  0.00    -0.000 C 
ATOM     12  C   UNL     1     -36.776  25.954   3.092  0.00  0.00    -0.018 C 
ATOM     13  C   UNL     1     -36.550  25.746   4.395  0.00  0.00    -0.050 C 
ATOM     14  C   UNL     1     -38.093  25.838   2.403  0.00  0.00    +0.229 C 
ATOM     15  C   UNL     1     -34.552  23.283   0.792  0.00  0.00    +0.337 C 
ATOM     16  C   UNL     1     -37.443  22.014   0.730  0.00  0.00    +0.042 C 
ATOM     17  C   UNL     1     -38.809  22.316   1.407  0.00  0.00    +0.205 C 
ATOM     18  C   UNL     1     -36.338  21.712   1.782  0.00  0.00    +0.036 C 
ATOM     19  C   UNL     1     -34.950  21.923   1.234  0.00  0.00    +0.049 C 
ATOM     20  C   UNL     1     -38.718  23.529   2.335  0.00  0.00    +0.344 C 
ATOM     21  C   UNL     1     -37.529  20.845  -0.267  0.00  0.00    +0.003 C 
ATOM     22  C   UNL     1     -34.037  20.953   1.099  0.00  0.00    -0.024 C 
ATOM     23  C   UNL     1     -34.267  19.534   1.492  0.00  0.00    +0.031 C 
ENDROOT
BRANCH  17  24
ATOM     24  O   UNL     1     -39.181  21.200   2.212  0.00  0.00    -0.375 OA
ATOM     25  H   UNL     1     -39.876  20.694   1.763  0.00  0.00    +0.211 HD
ENDBRANCH  17  24
BRANCH  17  26
ATOM     26  C   UNL     1     -39.936  22.575   0.401  0.00  0.00    +0.175 C 
BRANCH  26  27
ATOM     27  O   UNL     1     -40.915  23.379   1.029  0.00  0.00    -0.379 OA
ATOM     28  H   UNL     1     -41.797  23.023   0.838  0.00  0.00    +0.211 HD
ENDBRANCH  26  27
ENDBRANCH  17  26
TORSDOF 3
ENDMDL
MODEL 8
REMARK VINA RESULT:      -5.9      2.449      5.196
REMARK  Name = 5281734
REMARK  3 active torsions:
REMARK  status: ('A' for Active; 'I' for Inactive)
REMARK    1  A    between atoms: C_17  and  O_24
REMARK    2  A    between atoms: C_17  and  C_26
REMARK    3  A    between atoms: C_26  and  O_27
REMARK                            x       y       z     vdW  Elec       q    Type
REMARK                         _______ _______ _______ _____ _____    ______ ____
ROOT
ATOM      1  O   UNL     1     -32.803  26.222   1.528  0.00  0.00    -0.451 OA
ATOM      2  O   UNL     1     -33.462  24.953  -2.653  0.00  0.00    -0.288 OA
ATOM      3  O   UNL     1     -35.260  24.475   2.605  0.00  0.00    -0.442 OA
ATOM      4  O   UNL     1     -30.767  26.139   2.624  0.00  0.00    -0.245 OA
ATOM      5  O   UNL     1     -37.127  25.826   2.737  0.00  0.00    -0.247 OA
ATOM      6  N   UNL     1     -33.518  25.689  -1.501  0.00  0.00    +0.439 N 
ATOM      7  C   UNL     1     -33.617  24.773  -0.268  0.00  0.00    +0.050 C 
ATOM      8  C   UNL     1     -32.431  25.161   0.628  0.00  0.00    +0.158 C 
ATOM      9  C   UNL     1     -32.255  26.490  -1.331  0.00  0.00    -0.023 C 
ATOM     10  C   UNL     1     -31.406  25.652  -0.393  0.00  0.00    +0.025 C 
ATOM     11  C   UNL     1     -34.785  26.527  -1.463  0.00  0.00    -0.000 C 
ATOM     12  C   UNL     1     -35.016  24.943   0.250  0.00  0.00    -0.018 C 
ATOM     13  C   UNL     1     -35.657  25.904  -0.427  0.00  0.00    -0.050 C 
ATOM     14  C   UNL     1     -35.616  24.048   1.280  0.00  0.00    +0.229 C 
ATOM     15  C   UNL     1     -31.898  26.579   2.480  0.00  0.00    +0.337 C 
ATOM     16  C   UNL     1     -34.143  26.120   4.654  0.00  0.00    +0.042 C 
ATOM     17  C   UNL     1     -35.626  25.654   4.646  0.00  0.00    +0.205 C 
ATOM     18  C   UNL     1     -33.943  27.410   3.808  0.00  0.00    +0.036 C 
ATOM     19  C   UNL     1     -32.513  27.594   3.370  0.00  0.00    +0.049 C 
ATOM     20  C   UNL     1     -36.109  25.350   3.226  0.00  0.00    +0.344 C 
ATOM     21  C   UNL     1     -33.611  26.358   6.078  0.00  0.00    +0.003 C 
ATOM     22  C   UNL     1     -31.736  28.619   3.744  0.00  0.00    -0.024 C 
ATOM     23  C   UNL     1     -32.191  29.726   4.633  0.00  0.00    +0.031 C 
ENDROOT
BRANCH  17  24
ATOM     24  O   UNL     1     -36.442  26.709   5.148  0.00  0.00    -0.375 OA
ATOM     25  H   UNL     1     -37.319  26.665   4.736  0.00  0.00    +0.211 HD
ENDBRANCH  17  24
BRANCH  17  26
ATOM     26  C   UNL     1     -35.872  24.410   5.505  0.00  0.00    +0.175 C 
BRANCH  26  27
ATOM     27  O   UNL     1     -36.709  23.529   4.782  0.00  0.00    -0.379 OA
ATOM     28  H   UNL     1     -36.252  23.237   3.977  0.00  0.00    +0.211 HD
ENDBRANCH  26  27
ENDBRANCH  17  26
TORSDOF 3
ENDMDL
MODEL 9
REMARK VINA RESULT:      -5.9      2.768      5.043
REMARK  Name = 5281734
REMARK  3 active torsions:
REMARK  status: ('A' for Active; 'I' for Inactive)
REMARK    1  A    between atoms: C_17  and  O_24
REMARK    2  A    between atoms: C_17  and  C_26
REMARK    3  A    between atoms: C_26  and  O_27
REMARK                            x       y       z     vdW  Elec       q    Type
REMARK                         _______ _______ _______ _____ _____    ______ ____
ROOT
ATOM      1  O   UNL     1     -35.446  26.291   3.195  0.00  0.00    -0.451 OA
ATOM      2  O   UNL     1     -36.016  22.928   6.004  0.00  0.00    -0.288 OA
ATOM      3  O   UNL     1     -38.493  26.190   2.218  0.00  0.00    -0.442 OA
ATOM      4  O   UNL     1     -34.484  28.320   3.749  0.00  0.00    -0.245 OA
ATOM      5  O   UNL     1     -38.613  24.914   0.298  0.00  0.00    -0.247 OA
ATOM      6  N   UNL     1     -35.707  23.626   4.869  0.00  0.00    +0.439 N 
ATOM      7  C   UNL     1     -36.710  24.770   4.636  0.00  0.00    +0.050 C 
ATOM      8  C   UNL     1     -35.863  26.049   4.552  0.00  0.00    +0.158 C 
ATOM      9  C   UNL     1     -34.355  24.274   5.007  0.00  0.00    -0.023 C 
ATOM     10  C   UNL     1     -34.665  25.697   5.432  0.00  0.00    +0.025 C 
ATOM     11  C   UNL     1     -35.838  22.739   3.643  0.00  0.00    -0.000 C 
ATOM     12  C   UNL     1     -37.530  24.351   3.449  0.00  0.00    -0.018 C 
ATOM     13  C   UNL     1     -37.049  23.221   2.918  0.00  0.00    -0.050 C 
ATOM     14  C   UNL     1     -38.782  25.047   3.040  0.00  0.00    +0.229 C 
ATOM     15  C   UNL     1     -34.806  27.464   2.939  0.00  0.00    +0.337 C 
ATOM     16  C   UNL     1     -36.943  28.033   0.685  0.00  0.00    +0.042 C 
ATOM     17  C   UNL     1     -38.201  27.308   0.132  0.00  0.00    +0.205 C 
ATOM     18  C   UNL     1     -35.665  27.161   0.530  0.00  0.00    +0.036 C 
ATOM     19  C   UNL     1     -34.569  27.573   1.478  0.00  0.00    +0.049 C 
ATOM     20  C   UNL     1     -38.455  25.989   0.865  0.00  0.00    +0.344 C 
ATOM     21  C   UNL     1     -36.711  29.399   0.015  0.00  0.00    +0.003 C 
ATOM     22  C   UNL     1     -33.379  28.053   1.093  0.00  0.00    -0.024 C 
ATOM     23  C   UNL     1     -32.974  28.229  -0.330  0.00  0.00    +0.031 C 
ENDROOT
BRANCH  17  24
ATOM     24  O   UNL     1     -37.982  26.988  -1.240  0.00  0.00    -0.375 OA
ATOM     25  H   UNL     1     -37.403  27.656  -1.640  0.00  0.00    +0.211 HD
ENDBRANCH  17  24
BRANCH  17  26
ATOM     26  C   UNL     1     -39.475  28.154   0.226  0.00  0.00    +0.175 C 
BRANCH  26  27
ATOM     27  O   UNL     1     -40.486  27.368   0.826  0.00  0.00    -0.379 OA
ATOM     28  H   UNL     1     -40.228  26.433   0.800  0.00  0.00    +0.211 HD
ENDBRANCH  26  27
ENDBRANCH  17  26
TORSDOF 3
ENDMDL
