MODEL 1
REMARK VINA RESULT:      -5.1      0.000      0.000
REMARK  Name = 191050
REMARK  12 active torsions:
REMARK  status: ('A' for Active; 'I' for Inactive)
REMARK    1  A    between atoms: C_1  and  O_2
REMARK    2  A    between atoms: C_1  and  C_4
REMARK    3  A    between atoms: C_1  and  CA_13
REMARK    4  A    between atoms: C_4  and  O_5
REMARK    5  A    between atoms: C_4  and  C_7
REMARK    6  A    between atoms: C_7  and  O_8
REMARK    7  A    between atoms: C_7  and  C_10
REMARK    8  A    between atoms: C_10  and  O_11
REMARK    9  A    between atoms: CA_13  and  N_15
REMARK   10  A    between atoms: CA_13  and  C_24
REMARK   11  A    between atoms: N_16  and  N_20
REMARK   12  A    between atoms: N_16  and  C_21
REMARK                            x       y       z     vdW  Elec       q    Type
REMARK                         _______ _______ _______ _____ _____    ______ ____
ROOT
ATOM      1  C   UNL     1     -37.113  24.922   3.477  0.00  0.00    +0.165 C 
ENDROOT
BRANCH   1   2
ATOM      2  O   UNL     1     -38.381  24.893   4.149  0.00  0.00    -0.380 OA
ATOM      3  H   UNL     1     -39.079  24.669   3.513  0.00  0.00    +0.211 HD
ENDBRANCH   1   2
BRANCH   1   4
ATOM      4  C   UNL     1     -36.032  24.499   4.493  0.00  0.00    +0.168 C 
BRANCH   4   5
ATOM      5  O   UNL     1     -36.489  23.292   5.120  0.00  0.00    -0.379 OA
ATOM      6  H   UNL     1     -37.304  23.473   5.615  0.00  0.00    +0.211 HD
ENDBRANCH   4   5
BRANCH   4   7
ATOM      7  C   UNL     1     -35.700  25.534   5.579  0.00  0.00    +0.169 C 
BRANCH   7   8
ATOM      8  O   UNL     1     -36.524  26.691   5.426  0.00  0.00    -0.379 OA
ATOM      9  H   UNL     1     -35.963  27.479   5.355  0.00  0.00    +0.211 HD
ENDBRANCH   7   8
BRANCH   7  10
ATOM     10  C   UNL     1     -34.245  25.997   5.504  0.00  0.00    +0.169 C 
BRANCH  10  11
ATOM     11  O   UNL     1     -33.513  25.091   4.684  0.00  0.00    -0.379 OA
ATOM     12  H   UNL     1     -32.814  24.673   5.209  0.00  0.00    +0.211 HD
ENDBRANCH  10  11
ENDBRANCH   7  10
ENDBRANCH   4   7
ENDBRANCH   1   4
BRANCH   1  13
ATOM     13  CA  UNL     1     -37.213  24.043   2.225  0.00  0.00    +0.168 C 
BRANCH  13  15
ATOM     14  O   UNL     1     -35.218  23.030   0.512  0.00  0.00    -0.251 OA
ATOM     15  N   UNL     1     -36.553  22.769   2.367  0.00  0.00    -0.280 N 
ATOM     16  N   UNL     1     -35.020  21.077   1.744  0.00  0.00    -0.164 N 
ATOM     17  C   UNL     1     -35.572  22.338   1.474  0.00  0.00    +0.321 C 
ATOM     18  H   UNL     1     -36.803  22.184   3.119  0.00  0.00    +0.151 HD
BRANCH  16  20
ATOM     19  O   UNL     1     -35.233  20.829   4.007  0.00  0.00    -0.078 OA
ATOM     20  N   UNL     1     -35.487  20.292   2.923  0.00  0.00    +0.054 NA
ENDBRANCH  16  20
BRANCH  16  21
ATOM     21  C   UNL     1     -33.985  20.502   0.895  0.00  0.00    +0.117 C 
ATOM     22  C   UNL     1     -33.561  19.133   1.385  0.00  0.00    +0.025 C 
ENDBRANCH  16  21
ENDBRANCH  13  15
BRANCH  13  24
ATOM     23  O   UNL     1     -39.306  22.835   2.358  0.00  0.00    -0.286 OA
ATOM     24  C   UNL     1     -38.656  23.751   1.861  0.00  0.00    +0.229 C 
ENDBRANCH  13  24
ENDBRANCH   1  13
TORSDOF 12
ENDMDL
MODEL 2
REMARK VINA RESULT:      -5.0      2.053      5.129
REMARK  Name = 191050
REMARK  12 active torsions:
REMARK  status: ('A' for Active; 'I' for Inactive)
REMARK    1  A    between atoms: C_1  and  O_2
REMARK    2  A    between atoms: C_1  and  C_4
REMARK    3  A    between atoms: C_1  and  CA_13
REMARK    4  A    between atoms: C_4  and  O_5
REMARK    5  A    between atoms: C_4  and  C_7
REMARK    6  A    between atoms: C_7  and  O_8
REMARK    7  A    between atoms: C_7  and  C_10
REMARK    8  A    between atoms: C_10  and  O_11
REMARK    9  A    between atoms: CA_13  and  N_15
REMARK   10  A    between atoms: CA_13  and  C_24
REMARK   11  A    between atoms: N_16  and  N_20
REMARK   12  A    between atoms: N_16  and  C_21
REMARK                            x       y       z     vdW  Elec       q    Type
REMARK                         _______ _______ _______ _____ _____    ______ ____
ROOT
ATOM      1  C   UNL     1     -36.788  20.640   1.455  0.00  0.00    +0.165 C 
ENDROOT
BRANCH   1   2
ATOM      2  O   UNL     1     -37.115  19.895   2.637  0.00  0.00    -0.380 OA
ATOM      3  H   UNL     1     -38.011  20.127   2.928  0.00  0.00    +0.211 HD
ENDBRANCH   1   2
BRANCH   1   4
ATOM      4  C   UNL     1     -38.016  21.497   1.084  0.00  0.00    +0.168 C 
BRANCH   4   5
ATOM      5  O   UNL     1     -37.524  22.748   0.584  0.00  0.00    -0.379 OA
ATOM      6  H   UNL     1     -38.243  23.400   0.582  0.00  0.00    +0.211 HD
ENDBRANCH   4   5
BRANCH   4   7
ATOM      7  C   UNL     1     -39.007  21.767   2.227  0.00  0.00    +0.169 C 
BRANCH   7   8
ATOM      8  O   UNL     1     -40.129  20.889   2.124  0.00  0.00    -0.379 OA
ATOM      9  H   UNL     1     -40.319  20.505   2.994  0.00  0.00    +0.211 HD
ENDBRANCH   7   8
BRANCH   7  10
ATOM     10  C   UNL     1     -39.543  23.199   2.196  0.00  0.00    +0.169 C 
BRANCH  10  11
ATOM     11  O   UNL     1     -38.865  23.967   3.184  0.00  0.00    -0.379 OA
ATOM     12  H   UNL     1     -39.109  23.647   4.066  0.00  0.00    +0.211 HD
ENDBRANCH  10  11
ENDBRANCH   7  10
ENDBRANCH   4   7
ENDBRANCH   1   4
BRANCH   1  13
ATOM     13  CA  UNL     1     -35.500  21.427   1.724  0.00  0.00    +0.168 C 
BRANCH  13  15
ATOM     14  O   UNL     1     -35.986  24.057   2.609  0.00  0.00    -0.251 OA
ATOM     15  N   UNL     1     -35.386  21.889   3.085  0.00  0.00    -0.280 N 
ATOM     16  N   UNL     1     -35.493  23.510   4.806  0.00  0.00    -0.164 N 
ATOM     17  C   UNL     1     -35.644  23.212   3.444  0.00  0.00    +0.321 C 
ATOM     18  H   UNL     1     -35.116  21.250   3.783  0.00  0.00    +0.151 HD
BRANCH  16  20
ATOM     19  O   UNL     1     -36.024  21.962   6.403  0.00  0.00    -0.078 OA
ATOM     20  N   UNL     1     -35.082  22.443   5.764  0.00  0.00    +0.054 NA
ENDBRANCH  16  20
BRANCH  16  21
ATOM     21  C   UNL     1     -35.732  24.851   5.322  0.00  0.00    +0.117 C 
ATOM     22  C   UNL     1     -34.432  25.573   5.614  0.00  0.00    +0.025 C 
ENDBRANCH  16  21
ENDBRANCH  13  15
BRANCH  13  24
ATOM     23  O   UNL     1     -34.169  19.405   1.738  0.00  0.00    -0.286 OA
ATOM     24  C   UNL     1     -34.266  20.593   1.439  0.00  0.00    +0.229 C 
ENDBRANCH  13  24
ENDBRANCH   1  13
TORSDOF 12
ENDMDL
MODEL 3
REMARK VINA RESULT:      -4.8      3.865      6.505
REMARK  Name = 191050
REMARK  12 active torsions:
REMARK  status: ('A' for Active; 'I' for Inactive)
REMARK    1  A    between atoms: C_1  and  O_2
REMARK    2  A    between atoms: C_1  and  C_4
REMARK    3  A    between atoms: C_1  and  CA_13
REMARK    4  A    between atoms: C_4  and  O_5
REMARK    5  A    between atoms: C_4  and  C_7
REMARK    6  A    between atoms: C_7  and  O_8
REMARK    7  A    between atoms: C_7  and  C_10
REMARK    8  A    between atoms: C_10  and  O_11
REMARK    9  A    between atoms: CA_13  and  N_15
REMARK   10  A    between atoms: CA_13  and  C_24
REMARK   11  A    between atoms: N_16  and  N_20
REMARK   12  A    between atoms: N_16  and  C_21
REMARK                            x       y       z     vdW  Elec       q    Type
REMARK                         _______ _______ _______ _____ _____    ______ ____
ROOT
ATOM      1  C   UNL     1     -35.602  25.692   5.169  0.00  0.00    +0.165 C 
ENDROOT
BRANCH   1   2
ATOM      2  O   UNL     1     -36.589  26.689   5.471  0.00  0.00    -0.380 OA
ATOM      3  H   UNL     1     -36.748  27.235   4.686  0.00  0.00    +0.211 HD
ENDBRANCH   1   2
BRANCH   1   4
ATOM      4  C   UNL     1     -36.235  24.685   4.186  0.00  0.00    +0.168 C 
BRANCH   4   5
ATOM      5  O   UNL     1     -37.653  24.719   4.399  0.00  0.00    -0.379 OA
ATOM      6  H   UNL     1     -37.969  23.829   4.618  0.00  0.00    +0.211 HD
ENDBRANCH   4   5
BRANCH   4   7
ATOM      7  C   UNL     1     -35.743  23.234   4.313  0.00  0.00    +0.169 C 
BRANCH   7   8
ATOM      8  O   UNL     1     -36.812  22.326   4.039  0.00  0.00    -0.379 OA
ATOM      9  H   UNL     1     -37.064  22.398   3.106  0.00  0.00    +0.211 HD
ENDBRANCH   7   8
BRANCH   7  10
ATOM     10  C   UNL     1     -35.229  22.924   5.719  0.00  0.00    +0.169 C 
BRANCH  10  11
ATOM     11  O   UNL     1     -36.115  21.998   6.340  0.00  0.00    -0.379 OA
ATOM     12  H   UNL     1     -37.005  22.380   6.383  0.00  0.00    +0.211 HD
ENDBRANCH  10  11
ENDBRANCH   7  10
ENDBRANCH   4   7
ENDBRANCH   1   4
BRANCH   1  13
ATOM     13  CA  UNL     1     -34.344  26.402   4.655  0.00  0.00    +0.168 C 
BRANCH  13  15
ATOM     14  O   UNL     1     -34.776  26.997   1.936  0.00  0.00    -0.251 OA
ATOM     15  N   UNL     1     -34.608  27.712   4.115  0.00  0.00    -0.280 N 
ATOM     16  N   UNL     1     -35.059  29.254   2.377  0.00  0.00    -0.164 N 
ATOM     17  C   UNL     1     -34.811  27.925   2.751  0.00  0.00    +0.321 C 
ATOM     18  H   UNL     1     -34.645  28.482   4.728  0.00  0.00    +0.151 HD
BRANCH  16  20
ATOM     19  O   UNL     1     -33.985  30.590   3.890  0.00  0.00    -0.078 OA
ATOM     20  N   UNL     1     -35.093  30.329   3.410  0.00  0.00    +0.054 NA
ENDBRANCH  16  20
BRANCH  16  21
ATOM     21  C   UNL     1     -35.291  29.621   0.986  0.00  0.00    +0.117 C 
ATOM     22  C   UNL     1     -36.069  30.917   0.876  0.00  0.00    +0.025 C 
ENDBRANCH  16  21
ENDBRANCH  13  15
BRANCH  13  24
ATOM     23  O   UNL     1     -32.836  27.670   6.063  0.00  0.00    -0.286 OA
ATOM     24  C   UNL     1     -33.315  26.581   5.756  0.00  0.00    +0.229 C 
ENDBRANCH  13  24
ENDBRANCH   1  13
TORSDOF 12
ENDMDL
MODEL 4
REMARK VINA RESULT:      -4.8      2.195      3.599
REMARK  Name = 191050
REMARK  12 active torsions:
REMARK  status: ('A' for Active; 'I' for Inactive)
REMARK    1  A    between atoms: C_1  and  O_2
REMARK    2  A    between atoms: C_1  and  C_4
REMARK    3  A    between atoms: C_1  and  CA_13
REMARK    4  A    between atoms: C_4  and  O_5
REMARK    5  A    between atoms: C_4  and  C_7
REMARK    6  A    between atoms: C_7  and  O_8
REMARK    7  A    between atoms: C_7  and  C_10
REMARK    8  A    between atoms: C_10  and  O_11
REMARK    9  A    between atoms: CA_13  and  N_15
REMARK   10  A    between atoms: CA_13  and  C_24
REMARK   11  A    between atoms: N_16  and  N_20
REMARK   12  A    between atoms: N_16  and  C_21
REMARK                            x       y       z     vdW  Elec       q    Type
REMARK                         _______ _______ _______ _____ _____    ______ ____
ROOT
ATOM      1  C   UNL     1     -34.874  24.854   5.413  0.00  0.00    +0.165 C 
ENDROOT
BRANCH   1   2
ATOM      2  O   UNL     1     -33.697  24.697   4.607  0.00  0.00    -0.380 OA
ATOM      3  H   UNL     1     -32.910  24.859   5.150  0.00  0.00    +0.211 HD
ENDBRANCH   1   2
BRANCH   1   4
ATOM      4  C   UNL     1     -35.559  26.172   4.995  0.00  0.00    +0.168 C 
BRANCH   4   5
ATOM      5  O   UNL     1     -36.967  25.911   4.915  0.00  0.00    -0.379 OA
ATOM      6  H   UNL     1     -37.348  26.418   4.182  0.00  0.00    +0.211 HD
ENDBRANCH   4   5
BRANCH   4   7
ATOM      7  C   UNL     1     -35.083  26.774   3.663  0.00  0.00    +0.169 C 
BRANCH   7   8
ATOM      8  O   UNL     1     -35.051  28.200   3.750  0.00  0.00    -0.379 OA
ATOM      9  H   UNL     1     -35.775  28.504   4.319  0.00  0.00    +0.211 HD
ENDBRANCH   7   8
BRANCH   7  10
ATOM     10  C   UNL     1     -36.011  26.408   2.504  0.00  0.00    +0.169 C 
BRANCH  10  11
ATOM     11  O   UNL     1     -36.994  27.429   2.360  0.00  0.00    -0.379 OA
ATOM     12  H   UNL     1     -37.163  27.584   1.419  0.00  0.00    +0.211 HD
ENDBRANCH  10  11
ENDBRANCH   7  10
ENDBRANCH   4   7
ENDBRANCH   1   4
BRANCH   1  13
ATOM     13  CA  UNL     1     -35.734  23.594   5.257  0.00  0.00    +0.168 C 
BRANCH  13  15
ATOM     14  O   UNL     1     -37.874  23.498   3.427  0.00  0.00    -0.251 OA
ATOM     15  N   UNL     1     -35.681  23.025   3.934  0.00  0.00    -0.280 N 
ATOM     16  N   UNL     1     -36.581  22.430   1.827  0.00  0.00    -0.164 N 
ATOM     17  C   UNL     1     -36.788  23.016   3.085  0.00  0.00    +0.321 C 
ATOM     18  H   UNL     1     -34.836  22.630   3.619  0.00  0.00    +0.151 HD
BRANCH  16  20
ATOM     19  O   UNL     1     -34.966  20.831   2.083  0.00  0.00    -0.078 OA
ATOM     20  N   UNL     1     -35.245  21.870   1.473  0.00  0.00    +0.054 NA
ENDBRANCH  16  20
BRANCH  16  21
ATOM     21  C   UNL     1     -37.649  22.353   0.840  0.00  0.00    +0.117 C 
ATOM     22  C   UNL     1     -38.365  21.019   0.898  0.00  0.00    +0.025 C 
ENDBRANCH  16  21
ENDBRANCH  13  15
BRANCH  13  24
ATOM     23  O   UNL     1     -34.971  21.377   5.861  0.00  0.00    -0.286 OA
ATOM     24  C   UNL     1     -35.307  22.503   6.221  0.00  0.00    +0.229 C 
ENDBRANCH  13  24
ENDBRANCH   1  13
TORSDOF 12
ENDMDL
MODEL 5
REMARK VINA RESULT:      -4.6      2.946      5.270
REMARK  Name = 191050
REMARK  12 active torsions:
REMARK  status: ('A' for Active; 'I' for Inactive)
REMARK    1  A    between atoms: C_1  and  O_2
REMARK    2  A    between atoms: C_1  and  C_4
REMARK    3  A    between atoms: C_1  and  CA_13
REMARK    4  A    between atoms: C_4  and  O_5
REMARK    5  A    between atoms: C_4  and  C_7
REMARK    6  A    between atoms: C_7  and  O_8
REMARK    7  A    between atoms: C_7  and  C_10
REMARK    8  A    between atoms: C_10  and  O_11
REMARK    9  A    between atoms: CA_13  and  N_15
REMARK   10  A    between atoms: CA_13  and  C_24
REMARK   11  A    between atoms: N_16  and  N_20
REMARK   12  A    between atoms: N_16  and  C_21
REMARK                            x       y       z     vdW  Elec       q    Type
REMARK                         _______ _______ _______ _____ _____    ______ ____
ROOT
ATOM      1  C   UNL     1     -36.525  23.836   3.074  0.00  0.00    +0.165 C 
ENDROOT
BRANCH   1   2
ATOM      2  O   UNL     1     -37.413  22.804   3.527  0.00  0.00    -0.380 OA
ATOM      3  H   UNL     1     -36.922  22.175   4.079  0.00  0.00    +0.211 HD
ENDBRANCH   1   2
BRANCH   1   4
ATOM      4  C   UNL     1     -37.199  25.194   3.357  0.00  0.00    +0.168 C 
BRANCH   4   5
ATOM      5  O   UNL     1     -37.727  25.136   4.690  0.00  0.00    -0.379 OA
ATOM      6  H   UNL     1     -36.996  25.128   5.327  0.00  0.00    +0.211 HD
ENDBRANCH   4   5
BRANCH   4   7
ATOM      7  C   UNL     1     -38.324  25.593   2.389  0.00  0.00    +0.169 C 
BRANCH   7   8
ATOM      8  O   UNL     1     -38.237  26.985   2.078  0.00  0.00    -0.379 OA
ATOM      9  H   UNL     1     -39.108  27.308   1.801  0.00  0.00    +0.211 HD
ENDBRANCH   7   8
BRANCH   7  10
ATOM     10  C   UNL     1     -39.709  25.344   2.985  0.00  0.00    +0.169 C 
BRANCH  10  11
ATOM     11  O   UNL     1     -40.170  26.544   3.599  0.00  0.00    -0.379 OA
ATOM     12  H   UNL     1     -39.886  26.563   4.525  0.00  0.00    +0.211 HD
ENDBRANCH  10  11
ENDBRANCH   7  10
ENDBRANCH   4   7
ENDBRANCH   1   4
BRANCH   1  13
ATOM     13  CA  UNL     1     -35.163  23.629   3.748  0.00  0.00    +0.168 C 
BRANCH  13  15
ATOM     14  O   UNL     1     -33.370  25.262   2.315  0.00  0.00    -0.251 OA
ATOM     15  N   UNL     1     -34.574  24.853   4.231  0.00  0.00    -0.280 N 
ATOM     16  N   UNL     1     -33.201  26.774   4.064  0.00  0.00    -0.164 N 
ATOM     17  C   UNL     1     -33.690  25.607   3.458  0.00  0.00    +0.321 C 
ATOM     18  H   UNL     1     -34.800  25.166   5.137  0.00  0.00    +0.151 HD
BRANCH  16  20
ATOM     19  O   UNL     1     -32.902  26.672   6.328  0.00  0.00    -0.078 OA
ATOM     20  N   UNL     1     -33.630  27.137   5.445  0.00  0.00    +0.054 NA
ENDBRANCH  16  20
BRANCH  16  21
ATOM     21  C   UNL     1     -32.272  27.657   3.371  0.00  0.00    +0.117 C 
ATOM     22  C   UNL     1     -32.933  28.966   2.987  0.00  0.00    +0.025 C 
ENDBRANCH  16  21
ENDBRANCH  13  15
BRANCH  13  24
ATOM     23  O   UNL     1     -35.990  22.906   5.906  0.00  0.00    -0.286 OA
ATOM     24  C   UNL     1     -35.265  22.692   4.937  0.00  0.00    +0.229 C 
ENDBRANCH  13  24
ENDBRANCH   1  13
TORSDOF 12
ENDMDL
MODEL 6
REMARK VINA RESULT:      -4.5      2.339      5.676
REMARK  Name = 191050
REMARK  12 active torsions:
REMARK  status: ('A' for Active; 'I' for Inactive)
REMARK    1  A    between atoms: C_1  and  O_2
REMARK    2  A    between atoms: C_1  and  C_4
REMARK    3  A    between atoms: C_1  and  CA_13
REMARK    4  A    between atoms: C_4  and  O_5
REMARK    5  A    between atoms: C_4  and  C_7
REMARK    6  A    between atoms: C_7  and  O_8
REMARK    7  A    between atoms: C_7  and  C_10
REMARK    8  A    between atoms: C_10  and  O_11
REMARK    9  A    between atoms: CA_13  and  N_15
REMARK   10  A    between atoms: CA_13  and  C_24
REMARK   11  A    between atoms: N_16  and  N_20
REMARK   12  A    between atoms: N_16  and  C_21
REMARK                            x       y       z     vdW  Elec       q    Type
REMARK                         _______ _______ _______ _____ _____    ______ ____
ROOT
ATOM      1  C   UNL     1     -35.519  21.594   3.071  0.00  0.00    +0.165 C 
ENDROOT
BRANCH   1   2
ATOM      2  O   UNL     1     -35.722  20.580   4.066  0.00  0.00    -0.380 OA
ATOM      3  H   UNL     1     -35.515  20.940   4.942  0.00  0.00    +0.211 HD
ENDBRANCH   1   2
BRANCH   1   4
ATOM      4  C   UNL     1     -36.553  21.367   1.949  0.00  0.00    +0.168 C 
BRANCH   4   5
ATOM      5  O   UNL     1     -37.814  21.105   2.581  0.00  0.00    -0.379 OA
ATOM      6  H   UNL     1     -38.520  21.559   2.094  0.00  0.00    +0.211 HD
ENDBRANCH   4   5
BRANCH   4   7
ATOM      7  C   UNL     1     -36.234  20.223   0.973  0.00  0.00    +0.169 C 
BRANCH   7   8
ATOM      8  O   UNL     1     -36.742  18.987   1.480  0.00  0.00    -0.379 OA
ATOM      9  H   UNL     1     -36.705  18.314   0.784  0.00  0.00    +0.211 HD
ENDBRANCH   7   8
BRANCH   7  10
ATOM     10  C   UNL     1     -34.729  20.047   0.768  0.00  0.00    +0.169 C 
BRANCH  10  11
ATOM     11  O   UNL     1     -34.349  18.753   1.226  0.00  0.00    -0.379 OA
ATOM     12  H   UNL     1     -34.749  18.078   0.656  0.00  0.00    +0.211 HD
ENDBRANCH  10  11
ENDBRANCH   7  10
ENDBRANCH   4   7
ENDBRANCH   1   4
BRANCH   1  13
ATOM     13  CA  UNL     1     -35.592  22.963   3.758  0.00  0.00    +0.168 C 
BRANCH  13  15
ATOM     14  O   UNL     1     -36.092  25.292   2.255  0.00  0.00    -0.251 OA
ATOM     15  N   UNL     1     -36.873  23.608   3.613  0.00  0.00    -0.280 N 
ATOM     16  N   UNL     1     -38.344  25.274   2.800  0.00  0.00    -0.164 N 
ATOM     17  C   UNL     1     -37.039  24.763   2.848  0.00  0.00    +0.321 C 
ATOM     18  H   UNL     1     -37.655  23.221   4.068  0.00  0.00    +0.151 HD
BRANCH  16  20
ATOM     19  O   UNL     1     -39.737  23.480   3.066  0.00  0.00    -0.078 OA
ATOM     20  N   UNL     1     -39.445  24.586   3.534  0.00  0.00    +0.054 NA
ENDBRANCH  16  20
BRANCH  16  21
ATOM     21  C   UNL     1     -38.663  26.474   2.037  0.00  0.00    +0.117 C 
ATOM     22  C   UNL     1     -39.241  26.132   0.679  0.00  0.00    +0.025 C 
ENDBRANCH  16  21
ENDBRANCH  13  15
BRANCH  13  24
ATOM     23  O   UNL     1     -36.154  22.452   6.057  0.00  0.00    -0.286 OA
ATOM     24  C   UNL     1     -35.322  22.855   5.247  0.00  0.00    +0.229 C 
ENDBRANCH  13  24
ENDBRANCH   1  13
TORSDOF 12
ENDMDL
MODEL 7
REMARK VINA RESULT:      -4.5      1.491      3.584
REMARK  Name = 191050
REMARK  12 active torsions:
REMARK  status: ('A' for Active; 'I' for Inactive)
REMARK    1  A    between atoms: C_1  and  O_2
REMARK    2  A    between atoms: C_1  and  C_4
REMARK    3  A    between atoms: C_1  and  CA_13
REMARK    4  A    between atoms: C_4  and  O_5
REMARK    5  A    between atoms: C_4  and  C_7
REMARK    6  A    between atoms: C_7  and  O_8
REMARK    7  A    between atoms: C_7  and  C_10
REMARK    8  A    between atoms: C_10  and  O_11
REMARK    9  A    between atoms: CA_13  and  N_15
REMARK   10  A    between atoms: CA_13  and  C_24
REMARK   11  A    between atoms: N_16  and  N_20
REMARK   12  A    between atoms: N_16  and  C_21
REMARK                            x       y       z     vdW  Elec       q    Type
REMARK                         _______ _______ _______ _____ _____    ______ ____
ROOT
ATOM      1  C   UNL     1     -36.708  25.134   4.515  0.00  0.00    +0.165 C 
ENDROOT
BRANCH   1   2
ATOM      2  O   UNL     1     -36.416  26.021   5.605  0.00  0.00    -0.380 OA
ATOM      3  H   UNL     1     -37.236  26.442   5.907  0.00  0.00    +0.211 HD
ENDBRANCH   1   2
BRANCH   1   4
ATOM      4  C   UNL     1     -36.544  25.930   3.204  0.00  0.00    +0.168 C 
BRANCH   4   5
ATOM      5  O   UNL     1     -35.877  27.156   3.533  0.00  0.00    -0.379 OA
ATOM      6  H   UNL     1     -36.457  27.906   3.324  0.00  0.00    +0.211 HD
ENDBRANCH   4   5
BRANCH   4   7
ATOM      7  C   UNL     1     -37.848  26.252   2.456  0.00  0.00    +0.169 C 
BRANCH   7   8
ATOM      8  O   UNL     1     -38.919  26.427   3.385  0.00  0.00    -0.379 OA
ATOM      9  H   UNL     1     -38.619  26.981   4.122  0.00  0.00    +0.211 HD
ENDBRANCH   7   8
BRANCH   7  10
ATOM     10  C   UNL     1     -38.253  25.131   1.498  0.00  0.00    +0.169 C 
BRANCH  10  11
ATOM     11  O   UNL     1     -37.081  24.447   1.067  0.00  0.00    -0.379 OA
ATOM     12  H   UNL     1     -36.516  25.057   0.568  0.00  0.00    +0.211 HD
ENDBRANCH  10  11
ENDBRANCH   7  10
ENDBRANCH   4   7
ENDBRANCH   1   4
BRANCH   1  13
ATOM     13  CA  UNL     1     -35.808  23.900   4.646  0.00  0.00    +0.168 C 
BRANCH  13  15
ATOM     14  O   UNL     1     -35.380  21.134   4.321  0.00  0.00    -0.251 OA
ATOM     15  N   UNL     1     -35.571  23.229   3.392  0.00  0.00    -0.280 N 
ATOM     16  N   UNL     1     -35.151  21.344   2.024  0.00  0.00    -0.164 N 
ATOM     17  C   UNL     1     -35.367  21.851   3.314  0.00  0.00    +0.321 C 
ATOM     18  H   UNL     1     -35.552  23.761   2.564  0.00  0.00    +0.151 HD
BRANCH  16  20
ATOM     19  O   UNL     1     -34.282  23.138   0.904  0.00  0.00    -0.078 OA
ATOM     20  N   UNL     1     -35.152  22.261   0.848  0.00  0.00    +0.054 NA
ENDBRANCH  16  20
BRANCH  16  21
ATOM     21  C   UNL     1     -34.926  19.923   1.794  0.00  0.00    +0.117 C 
ATOM     22  C   UNL     1     -33.600  19.675   1.105  0.00  0.00    +0.025 C 
ENDBRANCH  16  21
ENDBRANCH  13  15
BRANCH  13  24
ATOM     23  O   UNL     1     -33.682  25.057   4.683  0.00  0.00    -0.286 OA
ATOM     24  C   UNL     1     -34.448  24.257   5.215  0.00  0.00    +0.229 C 
ENDBRANCH  13  24
ENDBRANCH   1  13
TORSDOF 12
ENDMDL
MODEL 8
REMARK VINA RESULT:      -4.5      3.302      5.720
REMARK  Name = 191050
REMARK  12 active torsions:
REMARK  status: ('A' for Active; 'I' for Inactive)
REMARK    1  A    between atoms: C_1  and  O_2
REMARK    2  A    between atoms: C_1  and  C_4
REMARK    3  A    between atoms: C_1  and  CA_13
REMARK    4  A    between atoms: C_4  and  O_5
REMARK    5  A    between atoms: C_4  and  C_7
REMARK    6  A    between atoms: C_7  and  O_8
REMARK    7  A    between atoms: C_7  and  C_10
REMARK    8  A    between atoms: C_10  and  O_11
REMARK    9  A    between atoms: CA_13  and  N_15
REMARK   10  A    between atoms: CA_13  and  C_24
REMARK   11  A    between atoms: N_16  and  N_20
REMARK   12  A    between atoms: N_16  and  C_21
REMARK                            x       y       z     vdW  Elec       q    Type
REMARK                         _______ _______ _______ _____ _____    ______ ____
ROOT
ATOM      1  C   UNL     1     -36.517  25.364   4.499  0.00  0.00    +0.165 C 
ENDROOT
BRANCH   1   2
ATOM      2  O   UNL     1     -36.462  26.646   5.142  0.00  0.00    -0.380 OA
ATOM      3  H   UNL     1     -35.588  26.769   5.543  0.00  0.00    +0.211 HD
ENDBRANCH   1   2
BRANCH   1   4
ATOM      4  C   UNL     1     -37.113  25.568   3.091  0.00  0.00    +0.168 C 
BRANCH   4   5
ATOM      5  O   UNL     1     -37.225  26.982   2.879  0.00  0.00    -0.379 OA
ATOM      6  H   UNL     1     -37.234  27.438   3.735  0.00  0.00    +0.211 HD
ENDBRANCH   4   5
BRANCH   4   7
ATOM      7  C   UNL     1     -38.483  24.915   2.848  0.00  0.00    +0.169 C 
BRANCH   7   8
ATOM      8  O   UNL     1     -39.208  24.821   4.076  0.00  0.00    -0.379 OA
ATOM      9  H   UNL     1     -38.832  24.110   4.618  0.00  0.00    +0.211 HD
ENDBRANCH   7   8
BRANCH   7  10
ATOM     10  C   UNL     1     -38.353  23.499   2.286  0.00  0.00    +0.169 C 
BRANCH  10  11
ATOM     11  O   UNL     1     -37.793  22.655   3.287  0.00  0.00    -0.379 OA
ATOM     12  H   UNL     1     -37.072  22.133   2.903  0.00  0.00    +0.211 HD
ENDBRANCH  10  11
ENDBRANCH   7  10
ENDBRANCH   4   7
ENDBRANCH   1   4
BRANCH   1  13
ATOM     13  CA  UNL     1     -35.112  24.750   4.529  0.00  0.00    +0.168 C 
BRANCH  13  15
ATOM     14  O   UNL     1     -34.088  27.014   3.201  0.00  0.00    -0.251 OA
ATOM     15  N   UNL     1     -34.109  25.646   5.050  0.00  0.00    -0.280 N 
ATOM     16  N   UNL     1     -32.676  27.528   4.966  0.00  0.00    -0.164 N 
ATOM     17  C   UNL     1     -33.652  26.749   4.327  0.00  0.00    +0.321 C 
ATOM     18  H   UNL     1     -33.733  25.473   5.943  0.00  0.00    +0.151 HD
BRANCH  16  20
ATOM     19  O   UNL     1     -33.020  27.377   7.221  0.00  0.00    -0.078 OA
ATOM     20  N   UNL     1     -32.195  27.157   6.328  0.00  0.00    +0.054 NA
ENDBRANCH  16  20
BRANCH  16  21
ATOM     21  C   UNL     1     -32.111  28.710   4.328  0.00  0.00    +0.117 C 
ATOM     22  C   UNL     1     -30.796  28.397   3.644  0.00  0.00    +0.025 C 
ENDBRANCH  16  21
ENDBRANCH  13  15
BRANCH  13  24
ATOM     23  O   UNL     1     -36.073  22.894   5.750  0.00  0.00    -0.286 OA
ATOM     24  C   UNL     1     -35.068  23.498   5.385  0.00  0.00    +0.229 C 
ENDBRANCH  13  24
ENDBRANCH   1  13
TORSDOF 12
ENDMDL
MODEL 9
REMARK VINA RESULT:      -4.4      3.261      5.297
REMARK  Name = 191050
REMARK  12 active torsions:
REMARK  status: ('A' for Active; 'I' for Inactive)
REMARK    1  A    between atoms: C_1  and  O_2
REMARK    2  A    between atoms: C_1  and  C_4
REMARK    3  A    between atoms: C_1  and  CA_13
REMARK    4  A    between atoms: C_4  and  O_5
REMARK    5  A    between atoms: C_4  and  C_7
REMARK    6  A    between atoms: C_7  and  O_8
REMARK    7  A    between atoms: C_7  and  C_10
REMARK    8  A    between atoms: C_10  and  O_11
REMARK    9  A    between atoms: CA_13  and  N_15
REMARK   10  A    between atoms: CA_13  and  C_24
REMARK   11  A    between atoms: N_16  and  N_20
REMARK   12  A    between atoms: N_16  and  C_21
REMARK                            x       y       z     vdW  Elec       q    Type
REMARK                         _______ _______ _______ _____ _____    ______ ____
ROOT
ATOM      1  C   UNL     1     -36.875  24.519   3.778  0.00  0.00    +0.165 C 
ENDROOT
BRANCH   1   2
ATOM      2  O   UNL     1     -37.513  23.249   3.575  0.00  0.00    -0.380 OA
ATOM      3  H   UNL     1     -38.408  23.388   3.229  0.00  0.00    +0.211 HD
ENDBRANCH   1   2
BRANCH   1   4
ATOM      4  C   UNL     1     -35.782  24.330   4.850  0.00  0.00    +0.168 C 
BRANCH   4   5
ATOM      5  O   UNL     1     -36.144  23.181   5.628  0.00  0.00    -0.379 OA
ATOM      6  H   UNL     1     -37.008  23.330   6.042  0.00  0.00    +0.211 HD
ENDBRANCH   4   5
BRANCH   4   7
ATOM      7  C   UNL     1     -35.562  25.525   5.791  0.00  0.00    +0.169 C 
BRANCH   7   8
ATOM      8  O   UNL     1     -36.426  26.604   5.428  0.00  0.00    -0.379 OA
ATOM      9  H   UNL     1     -36.220  26.892   4.525  0.00  0.00    +0.211 HD
ENDBRANCH   7   8
BRANCH   7  10
ATOM     10  C   UNL     1     -34.127  26.050   5.728  0.00  0.00    +0.169 C 
BRANCH  10  11
ATOM     11  O   UNL     1     -33.585  25.758   4.443  0.00  0.00    -0.379 OA
ATOM     12  H   UNL     1     -34.307  25.579   3.821  0.00  0.00    +0.211 HD
ENDBRANCH  10  11
ENDBRANCH   7  10
ENDBRANCH   4   7
ENDBRANCH   1   4
BRANCH   1  13
ATOM     13  CA  UNL     1     -36.378  25.029   2.421  0.00  0.00    +0.168 C 
BRANCH  13  15
ATOM     14  O   UNL     1     -37.352  27.531   1.567  0.00  0.00    -0.251 OA
ATOM     15  N   UNL     1     -35.666  26.280   2.506  0.00  0.00    -0.280 N 
ATOM     16  N   UNL     1     -35.407  28.614   2.211  0.00  0.00    -0.164 N 
ATOM     17  C   UNL     1     -36.220  27.481   2.059  0.00  0.00    +0.321 C 
ATOM     18  H   UNL     1     -34.760  26.287   2.891  0.00  0.00    +0.151 HD
BRANCH  16  20
ATOM     19  O   UNL     1     -33.288  27.756   2.177  0.00  0.00    -0.078 OA
ATOM     20  N   UNL     1     -34.051  28.488   2.817  0.00  0.00    +0.054 NA
ENDBRANCH  16  20
BRANCH  16  21
ATOM     21  C   UNL     1     -35.858  29.934   1.789  0.00  0.00    +0.117 C 
ATOM     22  C   UNL     1     -35.523  30.991   2.822  0.00  0.00    +0.025 C 
ENDBRANCH  16  21
ENDBRANCH  13  15
BRANCH  13  24
ATOM     23  O   UNL     1     -34.219  24.164   1.748  0.00  0.00    -0.286 OA
ATOM     24  C   UNL     1     -35.441  24.036   1.760  0.00  0.00    +0.229 C 
ENDBRANCH  13  24
ENDBRANCH   1  13
TORSDOF 12
ENDMDL
