MODEL 1
REMARK VINA RESULT:      -5.4      0.000      0.000
REMARK  Name = 195175
REMARK  8 active torsions:
REMARK  status: ('A' for Active; 'I' for Inactive)
REMARK    1  A    between atoms: C_1  and  C_4
REMARK    2  A    between atoms: C_1  and  S_9
REMARK    3  A    between atoms: C_1  and  C_15
REMARK    4  A    between atoms: S_9  and  C_10
REMARK    5  A    between atoms: C_10  and  C_12
REMARK    6  A    between atoms: C_12  and  O_13
REMARK    7  A    between atoms: C_15  and  C_17
REMARK    8  A    between atoms: C_17  and  O_18
REMARK                            x       y       z     vdW  Elec       q    Type
REMARK                         _______ _______ _______ _____ _____    ______ ____
ROOT
ATOM      1  C   UNL     1     -36.133  22.940   3.485  0.00  0.00    +0.096 C 
ENDROOT
BRANCH   1   4
ATOM      2  N   UNL     1     -38.409  23.889   3.134  0.00  0.00    -0.318 N 
ATOM      3  N   UNL     1     -38.194  26.019   3.725  0.00  0.00    -0.315 N 
ATOM      4  C   UNL     1     -37.137  24.080   3.512  0.00  0.00    +0.048 C 
ATOM      5  C   UNL     1     -36.995  25.367   3.870  0.00  0.00    +0.070 C 
ATOM      6  C   UNL     1     -39.023  25.102   3.279  0.00  0.00    +0.182 C 
ATOM      7  H   UNL     1     -38.815  23.050   2.819  0.00  0.00    +0.148 HD
ATOM      8  H   UNL     1     -38.389  26.966   3.912  0.00  0.00    +0.148 HD
ENDBRANCH   1   4
BRANCH   1   9
ATOM      9  S   UNL     1     -35.216  22.922   1.900  0.00  0.00    -0.123 S 
BRANCH   9  10
ATOM     10  C   UNL     1     -35.947  21.422   1.210  0.00  0.00    +0.167 C 
BRANCH  10  12
ATOM     11  O   UNL     1     -34.574  19.852   2.417  0.00  0.00    -0.249 OA
ATOM     12  C   UNL     1     -35.690  20.269   2.136  0.00  0.00    +0.325 C 
BRANCH  12  13
ATOM     13  O   UNL     1     -36.831  19.742   2.647  0.00  0.00    -0.480 OA
ATOM     14  H   UNL     1     -37.665  20.044   2.342  0.00  0.00    +0.295 HD
ENDBRANCH  12  13
ENDBRANCH  10  12
ENDBRANCH   9  10
ENDBRANCH   1   9
BRANCH   1  15
ATOM     15  C   UNL     1     -35.148  22.963   4.661  0.00  0.00    +0.126 C 
BRANCH  15  17
ATOM     16  O   UNL     1     -36.025  22.129   6.754  0.00  0.00    -0.250 OA
ATOM     17  C   UNL     1     -35.487  21.897   5.679  0.00  0.00    +0.315 C 
BRANCH  17  18
ATOM     18  O   UNL     1     -35.107  20.655   5.291  0.00  0.00    -0.480 OA
ATOM     19  H   UNL     1     -35.388  20.315   4.464  0.00  0.00    +0.295 HD
ENDBRANCH  17  18
ENDBRANCH  15  17
ENDBRANCH   1  15
TORSDOF 8
ENDMDL
MODEL 2
REMARK VINA RESULT:      -4.9      3.645      5.214
REMARK  Name = 195175
REMARK  8 active torsions:
REMARK  status: ('A' for Active; 'I' for Inactive)
REMARK    1  A    between atoms: C_1  and  C_4
REMARK    2  A    between atoms: C_1  and  S_9
REMARK    3  A    between atoms: C_1  and  C_15
REMARK    4  A    between atoms: S_9  and  C_10
REMARK    5  A    between atoms: C_10  and  C_12
REMARK    6  A    between atoms: C_12  and  O_13
REMARK    7  A    between atoms: C_15  and  C_17
REMARK    8  A    between atoms: C_17  and  O_18
REMARK                            x       y       z     vdW  Elec       q    Type
REMARK                         _______ _______ _______ _____ _____    ______ ____
ROOT
ATOM      1  C   UNL     1     -36.348  24.206   3.721  0.00  0.00    +0.096 C 
ENDROOT
BRANCH   1   4
ATOM      2  N   UNL     1     -35.778  23.212   5.932  0.00  0.00    -0.318 N 
ATOM      3  N   UNL     1     -35.172  21.132   5.440  0.00  0.00    -0.315 N 
ATOM      4  C   UNL     1     -35.882  23.061   4.604  0.00  0.00    +0.048 C 
ATOM      5  C   UNL     1     -35.517  21.806   4.295  0.00  0.00    +0.070 C 
ATOM      6  C   UNL     1     -35.340  22.006   6.407  0.00  0.00    +0.182 C 
ATOM      7  H   UNL     1     -35.976  24.021   6.455  0.00  0.00    +0.148 HD
ATOM      8  H   UNL     1     -34.866  20.200   5.520  0.00  0.00    +0.148 HD
ENDBRANCH   1   4
BRANCH   1   9
ATOM      9  S   UNL     1     -35.038  24.679   2.530  0.00  0.00    -0.123 S 
BRANCH   9  10
ATOM     10  C   UNL     1     -33.951  25.535   3.690  0.00  0.00    +0.167 C 
BRANCH  10  12
ATOM     11  O   UNL     1     -34.845  26.337   5.779  0.00  0.00    -0.249 OA
ATOM     12  C   UNL     1     -34.766  26.445   4.561  0.00  0.00    +0.325 C 
BRANCH  12  13
ATOM     13  O   UNL     1     -35.400  27.416   3.858  0.00  0.00    -0.480 OA
ATOM     14  H   UNL     1     -35.513  28.268   4.232  0.00  0.00    +0.295 HD
ENDBRANCH  12  13
ENDBRANCH  10  12
ENDBRANCH   9  10
ENDBRANCH   1   9
BRANCH   1  15
ATOM     15  C   UNL     1     -37.654  23.911   2.973  0.00  0.00    +0.126 C 
BRANCH  15  17
ATOM     16  O   UNL     1     -39.920  24.714   3.234  0.00  0.00    -0.250 OA
ATOM     17  C   UNL     1     -38.717  24.934   3.306  0.00  0.00    +0.315 C 
BRANCH  17  18
ATOM     18  O   UNL     1     -38.202  26.135   3.667  0.00  0.00    -0.480 OA
ATOM     19  H   UNL     1     -37.859  26.714   3.014  0.00  0.00    +0.295 HD
ENDBRANCH  17  18
ENDBRANCH  15  17
ENDBRANCH   1  15
TORSDOF 8
ENDMDL
MODEL 3
REMARK VINA RESULT:      -4.9      3.022      4.245
REMARK  Name = 195175
REMARK  8 active torsions:
REMARK  status: ('A' for Active; 'I' for Inactive)
REMARK    1  A    between atoms: C_1  and  C_4
REMARK    2  A    between atoms: C_1  and  S_9
REMARK    3  A    between atoms: C_1  and  C_15
REMARK    4  A    between atoms: S_9  and  C_10
REMARK    5  A    between atoms: C_10  and  C_12
REMARK    6  A    between atoms: C_12  and  O_13
REMARK    7  A    between atoms: C_15  and  C_17
REMARK    8  A    between atoms: C_17  and  O_18
REMARK                            x       y       z     vdW  Elec       q    Type
REMARK                         _______ _______ _______ _____ _____    ______ ____
ROOT
ATOM      1  C   UNL     1     -35.891  24.101   3.502  0.00  0.00    +0.096 C 
ENDROOT
BRANCH   1   4
ATOM      2  N   UNL     1     -35.800  23.210   5.826  0.00  0.00    -0.318 N 
ATOM      3  N   UNL     1     -35.260  21.072   5.556  0.00  0.00    -0.315 N 
ATOM      4  C   UNL     1     -35.672  22.986   4.510  0.00  0.00    +0.048 C 
ATOM      5  C   UNL     1     -35.344  21.695   4.336  0.00  0.00    +0.070 C 
ATOM      6  C   UNL     1     -35.539  22.011   6.432  0.00  0.00    +0.182 C 
ATOM      7  H   UNL     1     -36.034  24.059   6.264  0.00  0.00    +0.148 HD
ATOM      8  H   UNL     1     -35.038  20.130   5.736  0.00  0.00    +0.148 HD
ENDBRANCH   1   4
BRANCH   1   9
ATOM      9  S   UNL     1     -36.716  23.460   1.997  0.00  0.00    -0.123 S 
BRANCH   9  10
ATOM     10  C   UNL     1     -38.391  23.355   2.661  0.00  0.00    +0.167 C 
BRANCH  10  12
ATOM     11  O   UNL     1     -40.168  21.985   1.781  0.00  0.00    -0.249 OA
ATOM     12  C   UNL     1     -39.025  22.070   2.216  0.00  0.00    +0.325 C 
BRANCH  12  13
ATOM     13  O   UNL     1     -38.192  21.006   2.329  0.00  0.00    -0.480 OA
ATOM     14  H   UNL     1     -37.561  20.976   3.022  0.00  0.00    +0.295 HD
ENDBRANCH  12  13
ENDBRANCH  10  12
ENDBRANCH   9  10
ENDBRANCH   1   9
BRANCH   1  15
ATOM     15  C   UNL     1     -36.678  25.291   4.065  0.00  0.00    +0.126 C 
BRANCH  15  17
ATOM     16  O   UNL     1     -35.155  26.280   5.661  0.00  0.00    -0.250 OA
ATOM     17  C   UNL     1     -35.749  26.360   4.593  0.00  0.00    +0.315 C 
BRANCH  17  18
ATOM     18  O   UNL     1     -35.658  27.436   3.772  0.00  0.00    -0.480 OA
ATOM     19  H   UNL     1     -34.930  27.521   3.189  0.00  0.00    +0.295 HD
ENDBRANCH  17  18
ENDBRANCH  15  17
ENDBRANCH   1  15
TORSDOF 8
ENDMDL
MODEL 4
REMARK VINA RESULT:      -4.8      2.988      4.612
REMARK  Name = 195175
REMARK  8 active torsions:
REMARK  status: ('A' for Active; 'I' for Inactive)
REMARK    1  A    between atoms: C_1  and  C_4
REMARK    2  A    between atoms: C_1  and  S_9
REMARK    3  A    between atoms: C_1  and  C_15
REMARK    4  A    between atoms: S_9  and  C_10
REMARK    5  A    between atoms: C_10  and  C_12
REMARK    6  A    between atoms: C_12  and  O_13
REMARK    7  A    between atoms: C_15  and  C_17
REMARK    8  A    between atoms: C_17  and  O_18
REMARK                            x       y       z     vdW  Elec       q    Type
REMARK                         _______ _______ _______ _____ _____    ______ ____
ROOT
ATOM      1  C   UNL     1     -35.081  23.893   4.183  0.00  0.00    +0.096 C 
ENDROOT
BRANCH   1   4
ATOM      2  N   UNL     1     -37.335  24.950   4.243  0.00  0.00    -0.318 N 
ATOM      3  N   UNL     1     -38.562  23.664   2.911  0.00  0.00    -0.315 N 
ATOM      4  C   UNL     1     -36.543  23.973   3.778  0.00  0.00    +0.048 C 
ATOM      5  C   UNL     1     -37.275  23.188   2.971  0.00  0.00    +0.070 C 
ATOM      6  C   UNL     1     -38.564  24.724   3.687  0.00  0.00    +0.182 C 
ATOM      7  H   UNL     1     -37.084  25.678   4.856  0.00  0.00    +0.148 HD
ATOM      8  H   UNL     1     -39.316  23.292   2.399  0.00  0.00    +0.148 HD
ENDBRANCH   1   4
BRANCH   1   9
ATOM      9  S   UNL     1     -34.268  25.524   3.996  0.00  0.00    -0.123 S 
BRANCH   9  10
ATOM     10  C   UNL     1     -34.131  25.932   5.749  0.00  0.00    +0.167 C 
BRANCH  10  12
ATOM     11  O   UNL     1     -32.959  27.949   5.142  0.00  0.00    -0.249 OA
ATOM     12  C   UNL     1     -33.118  27.025   5.931  0.00  0.00    +0.325 C 
BRANCH  12  13
ATOM     13  O   UNL     1     -32.401  26.892   7.074  0.00  0.00    -0.480 OA
ATOM     14  H   UNL     1     -31.550  27.279   7.142  0.00  0.00    +0.295 HD
ENDBRANCH  12  13
ENDBRANCH  10  12
ENDBRANCH   9  10
ENDBRANCH   1   9
BRANCH   1  15
ATOM     15  C   UNL     1     -34.867  23.360   5.605  0.00  0.00    +0.126 C 
BRANCH  15  17
ATOM     16  O   UNL     1     -34.968  21.008   5.058  0.00  0.00    -0.250 OA
ATOM     17  C   UNL     1     -35.372  21.942   5.739  0.00  0.00    +0.315 C 
BRANCH  17  18
ATOM     18  O   UNL     1     -36.344  21.812   6.676  0.00  0.00    -0.480 OA
ATOM     19  H   UNL     1     -36.122  21.553   7.549  0.00  0.00    +0.295 HD
ENDBRANCH  17  18
ENDBRANCH  15  17
ENDBRANCH   1  15
TORSDOF 8
ENDMDL
MODEL 5
REMARK VINA RESULT:      -4.8      1.399      1.690
REMARK  Name = 195175
REMARK  8 active torsions:
REMARK  status: ('A' for Active; 'I' for Inactive)
REMARK    1  A    between atoms: C_1  and  C_4
REMARK    2  A    between atoms: C_1  and  S_9
REMARK    3  A    between atoms: C_1  and  C_15
REMARK    4  A    between atoms: S_9  and  C_10
REMARK    5  A    between atoms: C_10  and  C_12
REMARK    6  A    between atoms: C_12  and  O_13
REMARK    7  A    between atoms: C_15  and  C_17
REMARK    8  A    between atoms: C_17  and  O_18
REMARK                            x       y       z     vdW  Elec       q    Type
REMARK                         _______ _______ _______ _____ _____    ______ ____
ROOT
ATOM      1  C   UNL     1     -36.510  23.458   3.947  0.00  0.00    +0.096 C 
ENDROOT
BRANCH   1   4
ATOM      2  N   UNL     1     -35.171  25.525   3.572  0.00  0.00    -0.318 N 
ATOM      3  N   UNL     1     -36.657  26.991   2.814  0.00  0.00    -0.315 N 
ATOM      4  C   UNL     1     -36.362  24.910   3.524  0.00  0.00    +0.048 C 
ATOM      5  C   UNL     1     -37.269  25.789   3.067  0.00  0.00    +0.070 C 
ATOM      6  C   UNL     1     -35.396  26.799   3.128  0.00  0.00    +0.182 C 
ATOM      7  H   UNL     1     -34.315  25.139   3.864  0.00  0.00    +0.148 HD
ATOM      8  H   UNL     1     -37.072  27.816   2.472  0.00  0.00    +0.148 HD
ENDBRANCH   1   4
BRANCH   1   9
ATOM      9  S   UNL     1     -37.167  22.446   2.568  0.00  0.00    -0.123 S 
BRANCH   9  10
ATOM     10  C   UNL     1     -35.592  21.808   1.959  0.00  0.00    +0.167 C 
BRANCH  10  12
ATOM     11  O   UNL     1     -34.774  19.597   1.458  0.00  0.00    -0.249 OA
ATOM     12  C   UNL     1     -35.612  20.308   1.999  0.00  0.00    +0.325 C 
BRANCH  12  13
ATOM     13  O   UNL     1     -36.654  19.816   2.715  0.00  0.00    -0.480 OA
ATOM     14  H   UNL     1     -37.466  19.621   2.288  0.00  0.00    +0.295 HD
ENDBRANCH  12  13
ENDBRANCH  10  12
ENDBRANCH   9  10
ENDBRANCH   1   9
BRANCH   1  15
ATOM     15  C   UNL     1     -35.211  22.839   4.478  0.00  0.00    +0.126 C 
BRANCH  15  17
ATOM     16  O   UNL     1     -35.996  22.231   6.683  0.00  0.00    -0.250 OA
ATOM     17  C   UNL     1     -35.487  21.890   5.622  0.00  0.00    +0.315 C 
BRANCH  17  18
ATOM     18  O   UNL     1     -35.086  20.620   5.366  0.00  0.00    -0.480 OA
ATOM     19  H   UNL     1     -34.525  20.444   4.637  0.00  0.00    +0.295 HD
ENDBRANCH  17  18
ENDBRANCH  15  17
ENDBRANCH   1  15
TORSDOF 8
ENDMDL
MODEL 6
REMARK VINA RESULT:      -4.8      3.675      5.178
REMARK  Name = 195175
REMARK  8 active torsions:
REMARK  status: ('A' for Active; 'I' for Inactive)
REMARK    1  A    between atoms: C_1  and  C_4
REMARK    2  A    between atoms: C_1  and  S_9
REMARK    3  A    between atoms: C_1  and  C_15
REMARK    4  A    between atoms: S_9  and  C_10
REMARK    5  A    between atoms: C_10  and  C_12
REMARK    6  A    between atoms: C_12  and  O_13
REMARK    7  A    between atoms: C_15  and  C_17
REMARK    8  A    between atoms: C_17  and  O_18
REMARK                            x       y       z     vdW  Elec       q    Type
REMARK                         _______ _______ _______ _____ _____    ______ ____
ROOT
ATOM      1  C   UNL     1     -36.267  24.305   3.865  0.00  0.00    +0.096 C 
ENDROOT
BRANCH   1   4
ATOM      2  N   UNL     1     -35.782  23.092   5.985  0.00  0.00    -0.318 N 
ATOM      3  N   UNL     1     -35.186  21.061   5.311  0.00  0.00    -0.315 N 
ATOM      4  C   UNL     1     -35.844  23.072   4.646  0.00  0.00    +0.048 C 
ATOM      5  C   UNL     1     -35.485  21.848   4.227  0.00  0.00    +0.070 C 
ATOM      6  C   UNL     1     -35.374  21.839   6.353  0.00  0.00    +0.182 C 
ATOM      7  H   UNL     1     -35.987  23.849   6.579  0.00  0.00    +0.148 HD
ATOM      8  H   UNL     1     -34.894  20.120   5.308  0.00  0.00    +0.148 HD
ENDBRANCH   1   4
BRANCH   1   9
ATOM      9  S   UNL     1     -37.741  23.946   2.837  0.00  0.00    -0.123 S 
BRANCH   9  10
ATOM     10  C   UNL     1     -38.257  25.651   2.545  0.00  0.00    +0.167 C 
BRANCH  10  12
ATOM     11  O   UNL     1     -40.438  26.676   2.581  0.00  0.00    -0.249 OA
ATOM     12  C   UNL     1     -39.666  25.836   3.028  0.00  0.00    +0.325 C 
BRANCH  12  13
ATOM     13  O   UNL     1     -40.005  24.960   4.007  0.00  0.00    -0.480 OA
ATOM     14  H   UNL     1     -40.803  25.076   4.484  0.00  0.00    +0.295 HD
ENDBRANCH  12  13
ENDBRANCH  10  12
ENDBRANCH   9  10
ENDBRANCH   1   9
BRANCH   1  15
ATOM     15  C   UNL     1     -36.531  25.530   4.749  0.00  0.00    +0.126 C 
BRANCH  15  17
ATOM     16  O   UNL     1     -34.392  26.039   5.755  0.00  0.00    -0.250 OA
ATOM     17  C   UNL     1     -35.270  26.338   4.955  0.00  0.00    +0.315 C 
BRANCH  17  18
ATOM     18  O   UNL     1     -35.219  27.449   4.179  0.00  0.00    -0.480 OA
ATOM     19  H   UNL     1     -35.003  27.377   3.270  0.00  0.00    +0.295 HD
ENDBRANCH  17  18
ENDBRANCH  15  17
ENDBRANCH   1  15
TORSDOF 8
ENDMDL
MODEL 7
REMARK VINA RESULT:      -4.7      2.280      3.187
REMARK  Name = 195175
REMARK  8 active torsions:
REMARK  status: ('A' for Active; 'I' for Inactive)
REMARK    1  A    between atoms: C_1  and  C_4
REMARK    2  A    between atoms: C_1  and  S_9
REMARK    3  A    between atoms: C_1  and  C_15
REMARK    4  A    between atoms: S_9  and  C_10
REMARK    5  A    between atoms: C_10  and  C_12
REMARK    6  A    between atoms: C_12  and  O_13
REMARK    7  A    between atoms: C_15  and  C_17
REMARK    8  A    between atoms: C_17  and  O_18
REMARK                            x       y       z     vdW  Elec       q    Type
REMARK                         _______ _______ _______ _____ _____    ______ ____
ROOT
ATOM      1  C   UNL     1     -36.943  23.129   3.112  0.00  0.00    +0.096 C 
ENDROOT
BRANCH   1   4
ATOM      2  N   UNL     1     -35.919  24.305   5.054  0.00  0.00    -0.318 N 
ATOM      3  N   UNL     1     -36.649  26.393   4.858  0.00  0.00    -0.315 N 
ATOM      4  C   UNL     1     -36.698  24.363   3.964  0.00  0.00    +0.048 C 
ATOM      5  C   UNL     1     -37.146  25.622   3.837  0.00  0.00    +0.070 C 
ATOM      6  C   UNL     1     -35.915  25.570   5.573  0.00  0.00    +0.182 C 
ATOM      7  H   UNL     1     -35.447  23.516   5.406  0.00  0.00    +0.148 HD
ATOM      8  H   UNL     1     -36.809  27.351   5.020  0.00  0.00    +0.148 HD
ENDBRANCH   1   4
BRANCH   1   9
ATOM      9  S   UNL     1     -37.998  23.538   1.671  0.00  0.00    -0.123 S 
BRANCH   9  10
ATOM     10  C   UNL     1     -39.489  22.672   2.206  0.00  0.00    +0.167 C 
BRANCH  10  12
ATOM     11  O   UNL     1     -40.675  21.046   0.880  0.00  0.00    -0.249 OA
ATOM     12  C   UNL     1     -39.636  21.400   1.423  0.00  0.00    +0.325 C 
BRANCH  12  13
ATOM     13  O   UNL     1     -38.485  20.683   1.366  0.00  0.00    -0.480 OA
ATOM     14  H   UNL     1     -37.811  20.926   0.762  0.00  0.00    +0.295 HD
ENDBRANCH  12  13
ENDBRANCH  10  12
ENDBRANCH   9  10
ENDBRANCH   1   9
BRANCH   1  15
ATOM     15  C   UNL     1     -35.654  22.444   2.640  0.00  0.00    +0.126 C 
BRANCH  15  17
ATOM     16  O   UNL     1     -35.627  20.031   2.494  0.00  0.00    -0.250 OA
ATOM     17  C   UNL     1     -35.552  21.038   3.186  0.00  0.00    +0.315 C 
BRANCH  17  18
ATOM     18  O   UNL     1     -35.395  21.003   4.533  0.00  0.00    -0.480 OA
ATOM     19  H   UNL     1     -34.537  21.054   4.906  0.00  0.00    +0.295 HD
ENDBRANCH  17  18
ENDBRANCH  15  17
ENDBRANCH   1  15
TORSDOF 8
ENDMDL
MODEL 8
REMARK VINA RESULT:      -4.7      2.981      3.965
REMARK  Name = 195175
REMARK  8 active torsions:
REMARK  status: ('A' for Active; 'I' for Inactive)
REMARK    1  A    between atoms: C_1  and  C_4
REMARK    2  A    between atoms: C_1  and  S_9
REMARK    3  A    between atoms: C_1  and  C_15
REMARK    4  A    between atoms: S_9  and  C_10
REMARK    5  A    between atoms: C_10  and  C_12
REMARK    6  A    between atoms: C_12  and  O_13
REMARK    7  A    between atoms: C_15  and  C_17
REMARK    8  A    between atoms: C_17  and  O_18
REMARK                            x       y       z     vdW  Elec       q    Type
REMARK                         _______ _______ _______ _____ _____    ______ ____
ROOT
ATOM      1  C   UNL     1     -36.131  23.875   3.971  0.00  0.00    +0.096 C 
ENDROOT
BRANCH   1   4
ATOM      2  N   UNL     1     -34.451  25.010   5.418  0.00  0.00    -0.318 N 
ATOM      3  N   UNL     1     -34.476  27.116   4.711  0.00  0.00    -0.315 N 
ATOM      4  C   UNL     1     -35.347  25.095   4.424  0.00  0.00    +0.048 C 
ATOM      5  C   UNL     1     -35.370  26.366   3.989  0.00  0.00    +0.070 C 
ATOM      6  C   UNL     1     -33.939  26.271   5.563  0.00  0.00    +0.182 C 
ATOM      7  H   UNL     1     -34.211  24.208   5.934  0.00  0.00    +0.148 HD
ATOM      8  H   UNL     1     -34.279  28.075   4.613  0.00  0.00    +0.148 HD
ENDBRANCH   1   4
BRANCH   1   9
ATOM      9  S   UNL     1     -36.758  24.106   2.266  0.00  0.00    -0.123 S 
BRANCH   9  10
ATOM     10  C   UNL     1     -38.517  23.913   2.623  0.00  0.00    +0.167 C 
BRANCH  10  12
ATOM     11  O   UNL     1     -38.731  26.310   2.756  0.00  0.00    -0.249 OA
ATOM     12  C   UNL     1     -39.062  25.203   3.163  0.00  0.00    +0.325 C 
BRANCH  12  13
ATOM     13  O   UNL     1     -39.977  25.016   4.147  0.00  0.00    -0.480 OA
ATOM     14  H   UNL     1     -40.631  24.350   4.057  0.00  0.00    +0.295 HD
ENDBRANCH  12  13
ENDBRANCH  10  12
ENDBRANCH   9  10
ENDBRANCH   1   9
BRANCH   1  15
ATOM     15  C   UNL     1     -35.337  22.566   4.065  0.00  0.00    +0.126 C 
BRANCH  15  17
ATOM     16  O   UNL     1     -36.030  22.458   6.379  0.00  0.00    -0.250 OA
ATOM     17  C   UNL     1     -35.542  21.897   5.405  0.00  0.00    +0.315 C 
BRANCH  17  18
ATOM     18  O   UNL     1     -35.103  20.614   5.430  0.00  0.00    -0.480 OA
ATOM     19  H   UNL     1     -35.637  19.930   5.077  0.00  0.00    +0.295 HD
ENDBRANCH  17  18
ENDBRANCH  15  17
ENDBRANCH   1  15
TORSDOF 8
ENDMDL
MODEL 9
REMARK VINA RESULT:      -4.7      2.843      4.653
REMARK  Name = 195175
REMARK  8 active torsions:
REMARK  status: ('A' for Active; 'I' for Inactive)
REMARK    1  A    between atoms: C_1  and  C_4
REMARK    2  A    between atoms: C_1  and  S_9
REMARK    3  A    between atoms: C_1  and  C_15
REMARK    4  A    between atoms: S_9  and  C_10
REMARK    5  A    between atoms: C_10  and  C_12
REMARK    6  A    between atoms: C_12  and  O_13
REMARK    7  A    between atoms: C_15  and  C_17
REMARK    8  A    between atoms: C_17  and  O_18
REMARK                            x       y       z     vdW  Elec       q    Type
REMARK                         _______ _______ _______ _____ _____    ______ ____
ROOT
ATOM      1  C   UNL     1     -36.350  22.391   2.717  0.00  0.00    +0.096 C 
ENDROOT
BRANCH   1   4
ATOM      2  N   UNL     1     -35.991  21.793   5.107  0.00  0.00    -0.318 N 
ATOM      3  N   UNL     1     -34.912  23.547   5.939  0.00  0.00    -0.315 N 
ATOM      4  C   UNL     1     -35.830  22.680   4.115  0.00  0.00    +0.048 C 
ATOM      5  C   UNL     1     -35.179  23.746   4.607  0.00  0.00    +0.070 C 
ATOM      6  C   UNL     1     -35.414  22.364   6.209  0.00  0.00    +0.182 C 
ATOM      7  H   UNL     1     -36.431  20.915   5.054  0.00  0.00    +0.148 HD
ATOM      8  H   UNL     1     -34.447  24.158   6.556  0.00  0.00    +0.148 HD
ENDBRANCH   1   4
BRANCH   1   9
ATOM      9  S   UNL     1     -36.741  23.950   1.837  0.00  0.00    -0.123 S 
BRANCH   9  10
ATOM     10  C   UNL     1     -38.312  24.305   2.653  0.00  0.00    +0.167 C 
BRANCH  10  12
ATOM     11  O   UNL     1     -39.008  26.592   2.348  0.00  0.00    -0.249 OA
ATOM     12  C   UNL     1     -38.378  25.765   2.996  0.00  0.00    +0.325 C 
BRANCH  12  13
ATOM     13  O   UNL     1     -37.675  26.074   4.114  0.00  0.00    -0.480 OA
ATOM     14  H   UNL     1     -37.600  26.967   4.388  0.00  0.00    +0.295 HD
ENDBRANCH  12  13
ENDBRANCH  10  12
ENDBRANCH   9  10
ENDBRANCH   1   9
BRANCH   1  15
ATOM     15  C   UNL     1     -35.397  21.537   1.872  0.00  0.00    +0.126 C 
BRANCH  15  17
ATOM     16  O   UNL     1     -35.607  19.385   0.791  0.00  0.00    -0.250 OA
ATOM     17  C   UNL     1     -35.921  20.128   1.712  0.00  0.00    +0.315 C 
BRANCH  17  18
ATOM     18  O   UNL     1     -36.802  19.777   2.681  0.00  0.00    -0.480 OA
ATOM     19  H   UNL     1     -36.927  18.874   2.896  0.00  0.00    +0.295 HD
ENDBRANCH  17  18
ENDBRANCH  15  17
ENDBRANCH   1  15
TORSDOF 8
ENDMDL
