MODEL 1
REMARK VINA RESULT:      -5.9      0.000      0.000
REMARK  Name = 51086
REMARK  7 active torsions:
REMARK  status: ('A' for Active; 'I' for Inactive)
REMARK    1  A    between atoms: N_2  and  C_25
REMARK    2  A    between atoms: C_4  and  O_9
REMARK    3  A    between atoms: C_5  and  N_11
REMARK    4  A    between atoms: C_7  and  C_24
REMARK    5  A    between atoms: N_11  and  N_12
REMARK    6  A    between atoms: N_12  and  C_14
REMARK    7  A    between atoms: C_15  and  N_22
REMARK                            x       y       z     vdW  Elec       q    Type
REMARK                         _______ _______ _______ _____ _____    ______ ____
ROOT
ATOM      1  O   UNL     1     -35.170  22.572   3.789  0.00  0.00    -0.265 OA
ATOM      2  N   UNL     1     -36.310  21.148   2.336  0.00  0.00    -0.265 N 
ATOM      3  C   UNL     1     -38.500  22.889   2.556  0.00  0.00    +0.014 A 
ATOM      4  C   UNL     1     -37.485  20.877   1.635  0.00  0.00    +0.214 A 
ATOM      5  C   UNL     1     -37.380  23.185   3.244  0.00  0.00    +0.142 A 
ATOM      6  C   UNL     1     -36.184  22.281   3.153  0.00  0.00    +0.280 A 
ATOM      7  C   UNL     1     -38.552  21.693   1.722  0.00  0.00    +0.117 A 
ATOM      8  C   UNL     1     -39.754  23.730   2.624  0.00  0.00    +0.033 C 
ENDROOT
BRANCH   4   9
ATOM      9  O   UNL     1     -37.547  19.746   0.835  0.00  0.00    -0.493 OA
ATOM     10  H   UNL     1     -37.317  18.909   1.187  0.00  0.00    +0.294 HD
ENDBRANCH   4   9
BRANCH   7  12
ATOM     11  N   UNL     1     -40.697  21.141   0.382  0.00  0.00    -0.191 NA
ATOM     12  C   UNL     1     -39.736  21.387   0.983  0.00  0.00    +0.105 C 
ENDBRANCH   7  12
BRANCH   2  13
ATOM     13  C   UNL     1     -35.165  20.243   2.235  0.00  0.00    +0.112 C 
ATOM     14  C   UNL     1     -34.271  20.619   1.066  0.00  0.00    +0.027 C 
ENDBRANCH   2  13
BRANCH   5  15
ATOM     15  N   UNL     1     -37.213  24.283   4.047  0.00  0.00    -0.123 NA
BRANCH  15  16
ATOM     16  N   UNL     1     -36.915  25.322   3.428  0.00  0.00    -0.126 NA
BRANCH  16  18
ATOM     17 CL   UNL     1     -32.152  27.732   5.970  0.00  0.00    -0.082 Cl
ATOM     18  C   UNL     1     -35.780  25.907   4.015  0.00  0.00    +0.112 C 
ATOM     19  C   UNL     1     -35.002  26.824   3.313  0.00  0.00    +0.160 C 
ATOM     20  C   UNL     1     -35.442  25.551   5.319  0.00  0.00    +0.021 C 
ATOM     21  C   UNL     1     -33.880  27.389   3.918  0.00  0.00    +0.037 C 
ATOM     22  C   UNL     1     -34.320  26.117   5.924  0.00  0.00    +0.013 C 
ATOM     23  C   UNL     1     -33.539  27.036   5.223  0.00  0.00    +0.059 C 
BRANCH  19  26
ATOM     24  O   UNL     1     -34.869  26.524   1.031  0.00  0.00    -0.126 OA
ATOM     25  O   UNL     1     -36.073  28.193   1.797  0.00  0.00    -0.126 OA
ATOM     26  N   UNL     1     -35.331  27.199   1.980  0.00  0.00    +0.059 N 
ENDBRANCH  19  26
ENDBRANCH  16  18
ENDBRANCH  15  16
ENDBRANCH   5  15
TORSDOF 7
ENDMDL
MODEL 2
REMARK VINA RESULT:      -5.8      3.284      5.353
REMARK  Name = 51086
REMARK  7 active torsions:
REMARK  status: ('A' for Active; 'I' for Inactive)
REMARK    1  A    between atoms: N_2  and  C_25
REMARK    2  A    between atoms: C_4  and  O_9
REMARK    3  A    between atoms: C_5  and  N_11
REMARK    4  A    between atoms: C_7  and  C_24
REMARK    5  A    between atoms: N_11  and  N_12
REMARK    6  A    between atoms: N_12  and  C_14
REMARK    7  A    between atoms: C_15  and  N_22
REMARK                            x       y       z     vdW  Elec       q    Type
REMARK                         _______ _______ _______ _____ _____    ______ ____
ROOT
ATOM      1  O   UNL     1     -36.478  27.203   2.119  0.00  0.00    -0.265 OA
ATOM      2  N   UNL     1     -36.918  25.035   2.858  0.00  0.00    -0.265 N 
ATOM      3  C   UNL     1     -35.036  25.486   4.891  0.00  0.00    +0.014 A 
ATOM      4  C   UNL     1     -36.649  24.032   3.790  0.00  0.00    +0.214 A 
ATOM      5  C   UNL     1     -35.274  26.479   4.012  0.00  0.00    +0.142 A 
ATOM      6  C   UNL     1     -36.275  26.280   2.910  0.00  0.00    +0.280 A 
ATOM      7  C   UNL     1     -35.751  24.219   4.774  0.00  0.00    +0.117 A 
ATOM      8  C   UNL     1     -34.020  25.598   6.005  0.00  0.00    +0.033 C 
ENDROOT
BRANCH   4   9
ATOM      9  O   UNL     1     -37.323  22.824   3.694  0.00  0.00    -0.493 OA
ATOM     10  H   UNL     1     -37.667  22.416   4.465  0.00  0.00    +0.294 HD
ENDBRANCH   4   9
BRANCH   7  12
ATOM     11  N   UNL     1     -35.310  22.320   6.479  0.00  0.00    -0.191 NA
ATOM     12  C   UNL     1     -35.506  23.171   5.715  0.00  0.00    +0.105 C 
ENDBRANCH   7  12
BRANCH   2  13
ATOM     13  C   UNL     1     -37.891  24.808   1.790  0.00  0.00    +0.112 C 
ATOM     14  C   UNL     1     -39.286  25.229   2.220  0.00  0.00    +0.027 C 
ENDBRANCH   2  13
BRANCH   5  15
ATOM     15  N   UNL     1     -34.674  27.711   4.030  0.00  0.00    -0.123 NA
BRANCH  15  16
ATOM     16  N   UNL     1     -33.506  27.711   3.600  0.00  0.00    -0.126 NA
BRANCH  16  18
ATOM     17 CL   UNL     1     -31.560  33.284   3.272  0.00  0.00    -0.082 Cl
ATOM     18  C   UNL     1     -33.030  29.032   3.538  0.00  0.00    +0.112 C 
ATOM     19  C   UNL     1     -32.117  29.510   4.475  0.00  0.00    +0.160 C 
ATOM     20  C   UNL     1     -33.492  29.863   2.520  0.00  0.00    +0.021 C 
ATOM     21  C   UNL     1     -31.661  30.825   4.392  0.00  0.00    +0.037 C 
ATOM     22  C   UNL     1     -33.036  31.178   2.437  0.00  0.00    +0.013 C 
ATOM     23  C   UNL     1     -32.121  31.659   3.374  0.00  0.00    +0.059 C 
BRANCH  19  26
ATOM     24  O   UNL     1     -30.620  27.970   5.315  0.00  0.00    -0.126 OA
ATOM     25  O   UNL     1     -32.238  28.675   6.621  0.00  0.00    -0.126 OA
ATOM     26  N   UNL     1     -31.634  28.677   5.523  0.00  0.00    +0.059 N 
ENDBRANCH  19  26
ENDBRANCH  16  18
ENDBRANCH  15  16
ENDBRANCH   5  15
TORSDOF 7
ENDMDL
MODEL 3
REMARK VINA RESULT:      -5.7      2.981      5.468
REMARK  Name = 51086
REMARK  7 active torsions:
REMARK  status: ('A' for Active; 'I' for Inactive)
REMARK    1  A    between atoms: N_2  and  C_25
REMARK    2  A    between atoms: C_4  and  O_9
REMARK    3  A    between atoms: C_5  and  N_11
REMARK    4  A    between atoms: C_7  and  C_24
REMARK    5  A    between atoms: N_11  and  N_12
REMARK    6  A    between atoms: N_12  and  C_14
REMARK    7  A    between atoms: C_15  and  N_22
REMARK                            x       y       z     vdW  Elec       q    Type
REMARK                         _______ _______ _______ _____ _____    ______ ____
ROOT
ATOM      1  O   UNL     1     -35.330  21.904   4.105  0.00  0.00    -0.265 OA
ATOM      2  N   UNL     1     -36.195  24.041   4.456  0.00  0.00    -0.265 N 
ATOM      3  C   UNL     1     -38.112  23.446   2.494  0.00  0.00    +0.014 A 
ATOM      4  C   UNL     1     -37.161  24.989   4.120  0.00  0.00    +0.214 A 
ATOM      5  C   UNL     1     -37.197  22.504   2.796  0.00  0.00    +0.142 A 
ATOM      6  C   UNL     1     -36.155  22.780   3.842  0.00  0.00    +0.280 A 
ATOM      7  C   UNL     1     -38.091  24.733   3.181  0.00  0.00    +0.117 A 
ATOM      8  C   UNL     1     -39.169  23.256   1.430  0.00  0.00    +0.033 C 
ENDROOT
BRANCH   4   9
ATOM      9  O   UNL     1     -37.157  26.215   4.768  0.00  0.00    -0.493 OA
ATOM     10  H   UNL     1     -37.765  26.882   4.514  0.00  0.00    +0.294 HD
ENDBRANCH   4   9
BRANCH   7  12
ATOM     11  N   UNL     1     -39.865  26.533   2.615  0.00  0.00    -0.191 NA
ATOM     12  C   UNL     1     -39.070  25.726   2.868  0.00  0.00    +0.105 C 
ENDBRANCH   7  12
BRANCH   2  13
ATOM     13  C   UNL     1     -35.187  24.342   5.472  0.00  0.00    +0.112 C 
ATOM     14  C   UNL     1     -34.006  25.084   4.869  0.00  0.00    +0.027 C 
ENDBRANCH   2  13
BRANCH   5  15
ATOM     15  N   UNL     1     -37.126  21.260   2.226  0.00  0.00    -0.123 NA
BRANCH  15  16
ATOM     16  N   UNL     1     -36.832  21.273   1.017  0.00  0.00    -0.126 NA
BRANCH  16  18
ATOM     17 CL   UNL     1     -31.265  19.398   0.354  0.00  0.00    -0.082 Cl
ATOM     18  C   UNL     1     -35.503  20.847   0.854  0.00  0.00    +0.112 C 
ATOM     19  C   UNL     1     -34.525  21.717   0.379  0.00  0.00    +0.160 C 
ATOM     20  C   UNL     1     -35.178  19.531   1.175  0.00  0.00    +0.021 C 
ATOM     21  C   UNL     1     -33.213  21.269   0.225  0.00  0.00    +0.037 C 
ATOM     22  C   UNL     1     -33.867  19.083   1.021  0.00  0.00    +0.013 C 
ATOM     23  C   UNL     1     -32.884  19.952   0.546  0.00  0.00    +0.059 C 
BRANCH  19  26
ATOM     24  O   UNL     1     -34.614  23.964   0.889  0.00  0.00    -0.126 OA
ATOM     25  O   UNL     1     -35.328  23.310  -1.082  0.00  0.00    -0.126 OA
ATOM     26  N   UNL     1     -34.838  23.064   0.045  0.00  0.00    +0.059 N 
ENDBRANCH  19  26
ENDBRANCH  16  18
ENDBRANCH  15  16
ENDBRANCH   5  15
TORSDOF 7
ENDMDL
MODEL 4
REMARK VINA RESULT:      -5.7      3.392      4.664
REMARK  Name = 51086
REMARK  7 active torsions:
REMARK  status: ('A' for Active; 'I' for Inactive)
REMARK    1  A    between atoms: N_2  and  C_25
REMARK    2  A    between atoms: C_4  and  O_9
REMARK    3  A    between atoms: C_5  and  N_11
REMARK    4  A    between atoms: C_7  and  C_24
REMARK    5  A    between atoms: N_11  and  N_12
REMARK    6  A    between atoms: N_12  and  C_14
REMARK    7  A    between atoms: C_15  and  N_22
REMARK                            x       y       z     vdW  Elec       q    Type
REMARK                         _______ _______ _______ _____ _____    ______ ____
ROOT
ATOM      1  O   UNL     1     -34.354  25.530   6.095  0.00  0.00    -0.265 OA
ATOM      2  N   UNL     1     -35.730  24.033   4.954  0.00  0.00    -0.265 N 
ATOM      3  C   UNL     1     -35.959  25.977   2.943  0.00  0.00    +0.014 A 
ATOM      4  C   UNL     1     -36.500  23.771   3.821  0.00  0.00    +0.214 A 
ATOM      5  C   UNL     1     -35.203  26.262   4.021  0.00  0.00    +0.142 A 
ATOM      6  C   UNL     1     -35.052  25.249   5.120  0.00  0.00    +0.280 A 
ATOM      7  C   UNL     1     -36.630  24.685   2.841  0.00  0.00    +0.117 A 
ATOM      8  C   UNL     1     -36.187  26.957   1.815  0.00  0.00    +0.033 C 
ENDROOT
BRANCH   4   9
ATOM      9  O   UNL     1     -37.140  22.546   3.708  0.00  0.00    -0.493 OA
ATOM     10  H   UNL     1     -37.373  22.215   2.862  0.00  0.00    +0.294 HD
ENDBRANCH   4   9
BRANCH   7  12
ATOM     11  N   UNL     1     -38.063  24.130   0.757  0.00  0.00    -0.191 NA
ATOM     12  C   UNL     1     -37.421  24.380   1.691  0.00  0.00    +0.105 C 
ENDBRANCH   7  12
BRANCH   2  13
ATOM     13  C   UNL     1     -35.610  23.030   6.012  0.00  0.00    +0.112 C 
ATOM     14  C   UNL     1     -34.651  21.922   5.611  0.00  0.00    +0.027 C 
ENDBRANCH   2  13
BRANCH   5  15
ATOM     15  N   UNL     1     -34.519  27.434   4.220  0.00  0.00    -0.123 NA
BRANCH  15  16
ATOM     16  N   UNL     1     -33.334  27.398   3.841  0.00  0.00    -0.126 NA
BRANCH  16  18
ATOM     17 CL   UNL     1     -31.183  32.902   3.669  0.00  0.00    -0.082 Cl
ATOM     18  C   UNL     1     -32.812  28.702   3.817  0.00  0.00    +0.112 C 
ATOM     19  C   UNL     1     -31.986  29.162   4.840  0.00  0.00    +0.160 C 
ATOM     20  C   UNL     1     -33.137  29.535   2.749  0.00  0.00    +0.021 C 
ATOM     21  C   UNL     1     -31.481  30.461   4.794  0.00  0.00    +0.037 C 
ATOM     22  C   UNL     1     -32.632  30.834   2.703  0.00  0.00    +0.013 C 
ATOM     23  C   UNL     1     -31.804  31.297   3.726  0.00  0.00    +0.059 C 
BRANCH  19  26
ATOM     24  O   UNL     1     -32.460  28.204   6.884  0.00  0.00    -0.126 OA
ATOM     25  O   UNL     1     -30.536  27.739   5.932  0.00  0.00    -0.126 OA
ATOM     26  N   UNL     1     -31.644  28.327   5.940  0.00  0.00    +0.059 N 
ENDBRANCH  19  26
ENDBRANCH  16  18
ENDBRANCH  15  16
ENDBRANCH   5  15
TORSDOF 7
ENDMDL
MODEL 5
REMARK VINA RESULT:      -5.7      3.312      6.631
REMARK  Name = 51086
REMARK  7 active torsions:
REMARK  status: ('A' for Active; 'I' for Inactive)
REMARK    1  A    between atoms: N_2  and  C_25
REMARK    2  A    between atoms: C_4  and  O_9
REMARK    3  A    between atoms: C_5  and  N_11
REMARK    4  A    between atoms: C_7  and  C_24
REMARK    5  A    between atoms: N_11  and  N_12
REMARK    6  A    between atoms: N_12  and  C_14
REMARK    7  A    between atoms: C_15  and  N_22
REMARK                            x       y       z     vdW  Elec       q    Type
REMARK                         _______ _______ _______ _____ _____    ______ ____
ROOT
ATOM      1  O   UNL     1     -35.298  21.839   4.096  0.00  0.00    -0.265 OA
ATOM      2  N   UNL     1     -36.215  23.958   4.422  0.00  0.00    -0.265 N 
ATOM      3  C   UNL     1     -38.002  23.364   2.341  0.00  0.00    +0.014 A 
ATOM      4  C   UNL     1     -37.173  24.898   4.041  0.00  0.00    +0.214 A 
ATOM      5  C   UNL     1     -37.093  22.431   2.686  0.00  0.00    +0.142 A 
ATOM      6  C   UNL     1     -36.119  22.707   3.796  0.00  0.00    +0.280 A 
ATOM      7  C   UNL     1     -38.042  24.642   3.045  0.00  0.00    +0.117 A 
ATOM      8  C   UNL     1     -38.990  23.173   1.213  0.00  0.00    +0.033 C 
ENDROOT
BRANCH   4   9
ATOM      9  O   UNL     1     -37.226  26.114   4.704  0.00  0.00    -0.493 OA
ATOM     10  H   UNL     1     -36.434  26.547   4.955  0.00  0.00    +0.294 HD
ENDBRANCH   4   9
BRANCH   7  12
ATOM     11  N   UNL     1     -39.806  26.422   2.396  0.00  0.00    -0.191 NA
ATOM     12  C   UNL     1     -39.015  25.625   2.687  0.00  0.00    +0.105 C 
ENDBRANCH   7  12
BRANCH   2  13
ATOM     13  C   UNL     1     -35.274  24.260   5.500  0.00  0.00    +0.112 C 
ATOM     14  C   UNL     1     -34.059  25.005   4.975  0.00  0.00    +0.027 C 
ENDBRANCH   2  13
BRANCH   5  15
ATOM     15  N   UNL     1     -36.969  21.196   2.105  0.00  0.00    -0.123 NA
BRANCH  15  16
ATOM     16  N   UNL     1     -36.489  21.223   0.957  0.00  0.00    -0.126 NA
BRANCH  16  18
ATOM     17 CL   UNL     1     -32.829  16.627   0.290  0.00  0.00    -0.082 Cl
ATOM     18  C   UNL     1     -35.631  20.123   0.783  0.00  0.00    +0.112 C 
ATOM     19  C   UNL     1     -35.948  19.101  -0.109  0.00  0.00    +0.160 C 
ATOM     20  C   UNL     1     -34.452  20.069   1.523  0.00  0.00    +0.021 C 
ATOM     21  C   UNL     1     -35.081  18.019  -0.262  0.00  0.00    +0.037 C 
ATOM     22  C   UNL     1     -33.585  18.988   1.370  0.00  0.00    +0.013 C 
ATOM     23  C   UNL     1     -33.900  17.963   0.477  0.00  0.00    +0.059 C 
BRANCH  19  26
ATOM     24  O   UNL     1     -38.179  18.598  -0.407  0.00  0.00    -0.126 OA
ATOM     25  O   UNL     1     -37.137  19.708  -1.989  0.00  0.00    -0.126 OA
ATOM     26  N   UNL     1     -37.148  19.137  -0.873  0.00  0.00    +0.059 N 
ENDBRANCH  19  26
ENDBRANCH  16  18
ENDBRANCH  15  16
ENDBRANCH   5  15
TORSDOF 7
ENDMDL
MODEL 6
REMARK VINA RESULT:      -5.6      3.170      7.056
REMARK  Name = 51086
REMARK  7 active torsions:
REMARK  status: ('A' for Active; 'I' for Inactive)
REMARK    1  A    between atoms: N_2  and  C_25
REMARK    2  A    between atoms: C_4  and  O_9
REMARK    3  A    between atoms: C_5  and  N_11
REMARK    4  A    between atoms: C_7  and  C_24
REMARK    5  A    between atoms: N_11  and  N_12
REMARK    6  A    between atoms: N_12  and  C_14
REMARK    7  A    between atoms: C_15  and  N_22
REMARK                            x       y       z     vdW  Elec       q    Type
REMARK                         _______ _______ _______ _____ _____    ______ ____
ROOT
ATOM      1  O   UNL     1     -37.899  25.833   1.825  0.00  0.00    -0.265 OA
ATOM      2  N   UNL     1     -36.107  27.117   2.584  0.00  0.00    -0.265 N 
ATOM      3  C   UNL     1     -35.751  25.196   4.599  0.00  0.00    +0.014 A 
ATOM      4  C   UNL     1     -35.076  27.268   3.512  0.00  0.00    +0.214 A 
ATOM      5  C   UNL     1     -36.753  25.015   3.717  0.00  0.00    +0.142 A 
ATOM      6  C   UNL     1     -36.978  26.019   2.622  0.00  0.00    +0.280 A 
ATOM      7  C   UNL     1     -34.882  26.364   4.490  0.00  0.00    +0.117 A 
ATOM      8  C   UNL     1     -35.484  24.250   5.747  0.00  0.00    +0.033 C 
ENDROOT
BRANCH   4   9
ATOM      9  O   UNL     1     -34.240  28.370   3.418  0.00  0.00    -0.493 OA
ATOM     10  H   UNL     1     -33.417  28.373   3.866  0.00  0.00    +0.294 HD
ENDBRANCH   4   9
BRANCH   7  12
ATOM     11  N   UNL     1     -32.941  26.696   6.171  0.00  0.00    -0.191 NA
ATOM     12  C   UNL     1     -33.812  26.547   5.418  0.00  0.00    +0.105 C 
ENDBRANCH   7  12
BRANCH   2  13
ATOM     13  C   UNL     1     -36.306  28.116   1.535  0.00  0.00    +0.112 C 
ATOM     14  C   UNL     1     -35.481  27.790   0.302  0.00  0.00    +0.027 C 
ENDBRANCH   2  13
BRANCH   5  15
ATOM     15  N   UNL     1     -37.622  23.955   3.714  0.00  0.00    -0.123 NA
BRANCH  15  16
ATOM     16  N   UNL     1     -37.069  22.849   3.573  0.00  0.00    -0.126 NA
BRANCH  16  18
ATOM     17 CL   UNL     1     -39.604  20.028  -0.962  0.00  0.00    -0.082 Cl
ATOM     18  C   UNL     1     -37.654  22.168   2.492  0.00  0.00    +0.112 C 
ATOM     19  C   UNL     1     -36.905  21.296   1.705  0.00  0.00    +0.160 C 
ATOM     20  C   UNL     1     -39.002  22.382   2.216  0.00  0.00    +0.021 C 
ATOM     21  C   UNL     1     -37.509  20.633   0.637  0.00  0.00    +0.037 C 
ATOM     22  C   UNL     1     -39.605  21.719   1.148  0.00  0.00    +0.013 C 
ATOM     23  C   UNL     1     -38.859  20.845   0.358  0.00  0.00    +0.059 C 
BRANCH  19  26
ATOM     24  O   UNL     1     -34.669  21.710   1.324  0.00  0.00    -0.126 OA
ATOM     25  O   UNL     1     -35.212  20.222   2.844  0.00  0.00    -0.126 OA
ATOM     26  N   UNL     1     -35.527  21.064   1.971  0.00  0.00    +0.059 N 
ENDBRANCH  19  26
ENDBRANCH  16  18
ENDBRANCH  15  16
ENDBRANCH   5  15
TORSDOF 7
ENDMDL
MODEL 7
REMARK VINA RESULT:      -5.6      2.713      4.728
REMARK  Name = 51086
REMARK  7 active torsions:
REMARK  status: ('A' for Active; 'I' for Inactive)
REMARK    1  A    between atoms: N_2  and  C_25
REMARK    2  A    between atoms: C_4  and  O_9
REMARK    3  A    between atoms: C_5  and  N_11
REMARK    4  A    between atoms: C_7  and  C_24
REMARK    5  A    between atoms: N_11  and  N_12
REMARK    6  A    between atoms: N_12  and  C_14
REMARK    7  A    between atoms: C_15  and  N_22
REMARK                            x       y       z     vdW  Elec       q    Type
REMARK                         _______ _______ _______ _____ _____    ______ ____
ROOT
ATOM      1  O   UNL     1     -36.878  26.942   2.056  0.00  0.00    -0.265 OA
ATOM      2  N   UNL     1     -37.081  24.748   2.820  0.00  0.00    -0.265 N 
ATOM      3  C   UNL     1     -35.179  25.391   4.781  0.00  0.00    +0.014 A 
ATOM      4  C   UNL     1     -36.685  23.782   3.746  0.00  0.00    +0.214 A 
ATOM      5  C   UNL     1     -35.542  26.351   3.908  0.00  0.00    +0.142 A 
ATOM      6  C   UNL     1     -36.559  26.049   2.844  0.00  0.00    +0.280 A 
ATOM      7  C   UNL     1     -35.773  24.061   4.696  0.00  0.00    +0.117 A 
ATOM      8  C   UNL     1     -34.139  25.609   5.856  0.00  0.00    +0.033 C 
ENDROOT
BRANCH   4   9
ATOM      9  O   UNL     1     -37.244  22.515   3.680  0.00  0.00    -0.493 OA
ATOM     10  H   UNL     1     -37.848  22.234   4.339  0.00  0.00    +0.294 HD
ENDBRANCH   4   9
BRANCH   7  12
ATOM     11  N   UNL     1     -35.092  22.227   6.392  0.00  0.00    -0.191 NA
ATOM     12  C   UNL     1     -35.397  23.049   5.631  0.00  0.00    +0.105 C 
ENDBRANCH   7  12
BRANCH   2  13
ATOM     13  C   UNL     1     -38.066  24.421   1.790  0.00  0.00    +0.112 C 
ATOM     14  C   UNL     1     -39.480  24.686   2.278  0.00  0.00    +0.027 C 
ENDBRANCH   2  13
BRANCH   5  15
ATOM     15  N   UNL     1     -35.062  27.635   3.898  0.00  0.00    -0.123 NA
BRANCH  15  16
ATOM     16  N   UNL     1     -34.207  27.848   3.020  0.00  0.00    -0.126 NA
BRANCH  16  18
ATOM     17 CL   UNL     1     -29.780  31.028   5.311  0.00  0.00    -0.082 Cl
ATOM     18  C   UNL     1     -33.165  28.622   3.561  0.00  0.00    +0.112 C 
ATOM     19  C   UNL     1     -33.214  30.013   3.527  0.00  0.00    +0.160 C 
ATOM     20  C   UNL     1     -32.075  27.970   4.133  0.00  0.00    +0.021 C 
ATOM     21  C   UNL     1     -32.167  30.758   4.069  0.00  0.00    +0.037 C 
ATOM     22  C   UNL     1     -31.028  28.715   4.675  0.00  0.00    +0.013 C 
ATOM     23  C   UNL     1     -31.074  30.109   4.643  0.00  0.00    +0.059 C 
BRANCH  19  26
ATOM     24  O   UNL     1     -34.280  30.981   1.726  0.00  0.00    -0.126 OA
ATOM     25  O   UNL     1     -35.296  30.993   3.672  0.00  0.00    -0.126 OA
ATOM     26  N   UNL     1     -34.319  30.696   2.946  0.00  0.00    +0.059 N 
ENDBRANCH  19  26
ENDBRANCH  16  18
ENDBRANCH  15  16
ENDBRANCH   5  15
TORSDOF 7
ENDMDL
MODEL 8
REMARK VINA RESULT:      -5.5      3.511      7.042
REMARK  Name = 51086
REMARK  7 active torsions:
REMARK  status: ('A' for Active; 'I' for Inactive)
REMARK    1  A    between atoms: N_2  and  C_25
REMARK    2  A    between atoms: C_4  and  O_9
REMARK    3  A    between atoms: C_5  and  N_11
REMARK    4  A    between atoms: C_7  and  C_24
REMARK    5  A    between atoms: N_11  and  N_12
REMARK    6  A    between atoms: N_12  and  C_14
REMARK    7  A    between atoms: C_15  and  N_22
REMARK                            x       y       z     vdW  Elec       q    Type
REMARK                         _______ _______ _______ _____ _____    ______ ____
ROOT
ATOM      1  O   UNL     1     -39.238  22.140   1.379  0.00  0.00    -0.265 OA
ATOM      2  N   UNL     1     -39.119  24.183   2.497  0.00  0.00    -0.265 N 
ATOM      3  C   UNL     1     -36.561  23.415   3.359  0.00  0.00    +0.014 A 
ATOM      4  C   UNL     1     -38.372  25.042   3.302  0.00  0.00    +0.214 A 
ATOM      5  C   UNL     1     -37.252  22.562   2.578  0.00  0.00    +0.142 A 
ATOM      6  C   UNL     1     -38.624  22.934   2.093  0.00  0.00    +0.280 A 
ATOM      7  C   UNL     1     -37.143  24.700   3.733  0.00  0.00    +0.117 A 
ATOM      8  C   UNL     1     -35.191  23.097   3.914  0.00  0.00    +0.033 C 
ENDROOT
BRANCH   4   9
ATOM      9  O   UNL     1     -38.910  26.268   3.662  0.00  0.00    -0.493 OA
ATOM     10  H   UNL     1     -39.617  26.308   4.275  0.00  0.00    +0.294 HD
ENDBRANCH   4   9
BRANCH   7  12
ATOM     11  N   UNL     1     -35.802  26.346   5.216  0.00  0.00    -0.191 NA
ATOM     12  C   UNL     1     -36.403  25.609   4.550  0.00  0.00    +0.105 C 
ENDBRANCH   7  12
BRANCH   2  13
ATOM     13  C   UNL     1     -40.456  24.569   2.049  0.00  0.00    +0.112 C 
ATOM     14  C   UNL     1     -40.398  25.306   0.721  0.00  0.00    +0.027 C 
ENDBRANCH   2  13
BRANCH   5  15
ATOM     15  N   UNL     1     -36.805  21.337   2.156  0.00  0.00    -0.123 NA
BRANCH  15  16
ATOM     16  N   UNL     1     -36.320  21.344   1.009  0.00  0.00    -0.126 NA
BRANCH  16  18
ATOM     17 CL   UNL     1     -32.804  16.634   0.375  0.00  0.00    -0.082 Cl
ATOM     18  C   UNL     1     -35.497  20.217   0.843  0.00  0.00    +0.112 C 
ATOM     19  C   UNL     1     -35.833  19.211  -0.059  0.00  0.00    +0.160 C 
ATOM     20  C   UNL     1     -34.333  20.121   1.602  0.00  0.00    +0.021 C 
ATOM     21  C   UNL     1     -34.999  18.102  -0.205  0.00  0.00    +0.037 C 
ATOM     22  C   UNL     1     -33.499  19.013   1.456  0.00  0.00    +0.013 C 
ATOM     23  C   UNL     1     -33.832  18.003   0.553  0.00  0.00    +0.059 C 
BRANCH  19  26
ATOM     24  O   UNL     1     -36.940  19.729  -2.014  0.00  0.00    -0.126 OA
ATOM     25  O   UNL     1     -38.104  18.921  -0.337  0.00  0.00    -0.126 OA
ATOM     26  N   UNL     1     -37.018  19.291  -0.843  0.00  0.00    +0.059 N 
ENDBRANCH  19  26
ENDBRANCH  16  18
ENDBRANCH  15  16
ENDBRANCH   5  15
TORSDOF 7
ENDMDL
MODEL 9
REMARK VINA RESULT:      -5.4      3.829      6.988
REMARK  Name = 51086
REMARK  7 active torsions:
REMARK  status: ('A' for Active; 'I' for Inactive)
REMARK    1  A    between atoms: N_2  and  C_25
REMARK    2  A    between atoms: C_4  and  O_9
REMARK    3  A    between atoms: C_5  and  N_11
REMARK    4  A    between atoms: C_7  and  C_24
REMARK    5  A    between atoms: N_11  and  N_12
REMARK    6  A    between atoms: N_12  and  C_14
REMARK    7  A    between atoms: C_15  and  N_22
REMARK                            x       y       z     vdW  Elec       q    Type
REMARK                         _______ _______ _______ _____ _____    ______ ____
ROOT
ATOM      1  O   UNL     1     -35.547  21.738   3.733  0.00  0.00    -0.265 OA
ATOM      2  N   UNL     1     -36.330  23.871   4.259  0.00  0.00    -0.265 N 
ATOM      3  C   UNL     1     -38.375  23.441   2.385  0.00  0.00    +0.014 A 
ATOM      4  C   UNL     1     -37.288  24.861   4.038  0.00  0.00    +0.214 A 
ATOM      5  C   UNL     1     -37.471  22.461   2.577  0.00  0.00    +0.142 A 
ATOM      6  C   UNL     1     -36.361  22.649   3.572  0.00  0.00    +0.280 A 
ATOM      7  C   UNL     1     -38.278  24.684   3.144  0.00  0.00    +0.117 A 
ATOM      8  C   UNL     1     -39.497  23.340   1.378  0.00  0.00    +0.033 C 
ENDROOT
BRANCH   4   9
ATOM      9  O   UNL     1     -37.211  26.046   4.754  0.00  0.00    -0.493 OA
ATOM     10  H   UNL     1     -37.454  26.063   5.659  0.00  0.00    +0.294 HD
ENDBRANCH   4   9
BRANCH   7  12
ATOM     11  N   UNL     1     -40.031  26.557   2.791  0.00  0.00    -0.191 NA
ATOM     12  C   UNL     1     -39.245  25.718   2.948  0.00  0.00    +0.105 C 
ENDBRANCH   7  12
BRANCH   2  13
ATOM     13  C   UNL     1     -35.256  24.088   5.228  0.00  0.00    +0.112 C 
ATOM     14  C   UNL     1     -34.063  24.771   4.581  0.00  0.00    +0.027 C 
ENDBRANCH   2  13
BRANCH   5  15
ATOM     15  N   UNL     1     -37.468  21.251   1.933  0.00  0.00    -0.123 NA
BRANCH  15  16
ATOM     16  N   UNL     1     -36.812  21.243   0.875  0.00  0.00    -0.126 NA
BRANCH  16  18
ATOM     17 CL   UNL     1     -37.043  15.837  -1.506  0.00  0.00    -0.082 Cl
ATOM     18  C   UNL     1     -36.846  19.955   0.313  0.00  0.00    +0.112 C 
ATOM     19  C   UNL     1     -35.689  19.187   0.211  0.00  0.00    +0.160 C 
ATOM     20  C   UNL     1     -38.064  19.457  -0.145  0.00  0.00    +0.021 C 
ATOM     21  C   UNL     1     -35.750  17.912  -0.351  0.00  0.00    +0.037 C 
ATOM     22  C   UNL     1     -38.124  18.182  -0.707  0.00  0.00    +0.013 C 
ATOM     23  C   UNL     1     -36.967  17.410  -0.810  0.00  0.00    +0.059 C 
BRANCH  19  26
ATOM     24  O   UNL     1     -34.077  19.414   1.844  0.00  0.00    -0.126 OA
ATOM     25  O   UNL     1     -33.730  20.362  -0.105  0.00  0.00    -0.126 OA
ATOM     26  N   UNL     1     -34.436  19.678   0.673  0.00  0.00    +0.059 N 
ENDBRANCH  19  26
ENDBRANCH  16  18
ENDBRANCH  15  16
ENDBRANCH   5  15
TORSDOF 7
ENDMDL
