MODEL 1
REMARK VINA RESULT:      -5.8      0.000      0.000
REMARK  Name = 196445
REMARK  7 active torsions:
REMARK  status: ('A' for Active; 'I' for Inactive)
REMARK    1  A    between atoms: C_4  and  C_13
REMARK    2  A    between atoms: C_7  and  C_10
REMARK    3  A    between atoms: C_8  and  S_15
REMARK    4  A    between atoms: C_10  and  O_11
REMARK    5  A    between atoms: S_15  and  C_16
REMARK    6  A    between atoms: C_16  and  C_17
REMARK    7  A    between atoms: C_17  and  N_19
REMARK                            x       y       z     vdW  Elec       q    Type
REMARK                         _______ _______ _______ _____ _____    ______ ____
ROOT
ATOM      1  O   UNL     1     -37.086  22.931   0.922  0.00  0.00    -0.274 OA
ATOM      2  N   UNL     1     -36.953  22.936   3.278  0.00  0.00    -0.254 N 
ATOM      3  C   UNL     1     -35.835  22.205   3.914  0.00  0.00    +0.093 C 
ATOM      4  C   UNL     1     -35.439  21.755   2.483  0.00  0.00    +0.096 C 
ATOM      5  C   UNL     1     -35.088  23.277   4.716  0.00  0.00    +0.055 C 
ATOM      6  C   UNL     1     -36.641  22.594   1.996  0.00  0.00    +0.231 C 
ATOM      7  C   UNL     1     -37.012  24.211   3.764  0.00  0.00    +0.132 C 
ATOM      8  C   UNL     1     -36.001  24.471   4.603  0.00  0.00    +0.025 C 
ENDROOT
BRANCH   7  10
ATOM      9  O   UNL     1     -37.898  26.008   2.484  0.00  0.00    -0.244 OA
ATOM     10  C   UNL     1     -38.057  25.124   3.310  0.00  0.00    +0.352 C 
BRANCH  10  11
ATOM     11  O   UNL     1     -39.218  24.842   3.943  0.00  0.00    -0.476 OA
ATOM     12  H   UNL     1     -39.334  24.011   4.359  0.00  0.00    +0.295 HD
ENDBRANCH  10  11
ENDBRANCH   7  10
BRANCH   4  13
ATOM     13  C   UNL     1     -35.528  20.282   2.161  0.00  0.00    +0.011 C 
ATOM     14  C   UNL     1     -34.221  19.742   1.595  0.00  0.00    +0.001 C 
ENDBRANCH   4  13
BRANCH   8  15
ATOM     15  S   UNL     1     -35.673  25.945   5.415  0.00  0.00    -0.115 S 
BRANCH  15  16
ATOM     16  C   UNL     1     -34.783  26.835   4.117  0.00  0.00    +0.083 C 
BRANCH  16  17
ATOM     17  C   UNL     1     -33.296  26.962   4.422  0.00  0.00    +0.101 C 
BRANCH  17  19
ATOM     18  O   UNL     1     -31.202  27.509   6.357  0.00  0.00    -0.275 OA
ATOM     19  N   UNL     1     -32.947  28.233   4.995  0.00  0.00    -0.303 N 
ATOM     20  C   UNL     1     -31.925  28.401   5.919  0.00  0.00    +0.223 C 
ATOM     21  C   UNL     1     -31.755  29.837   6.338  0.00  0.00    +0.095 C 
ATOM     22  H   UNL     1     -33.460  29.027   4.719  0.00  0.00    +0.149 HD
ENDBRANCH  17  19
ENDBRANCH  16  17
ENDBRANCH  15  16
ENDBRANCH   8  15
TORSDOF 7
ENDMDL
MODEL 2
REMARK VINA RESULT:      -5.6      1.778      1.980
REMARK  Name = 196445
REMARK  7 active torsions:
REMARK  status: ('A' for Active; 'I' for Inactive)
REMARK    1  A    between atoms: C_4  and  C_13
REMARK    2  A    between atoms: C_7  and  C_10
REMARK    3  A    between atoms: C_8  and  S_15
REMARK    4  A    between atoms: C_10  and  O_11
REMARK    5  A    between atoms: S_15  and  C_16
REMARK    6  A    between atoms: C_16  and  C_17
REMARK    7  A    between atoms: C_17  and  N_19
REMARK                            x       y       z     vdW  Elec       q    Type
REMARK                         _______ _______ _______ _____ _____    ______ ____
ROOT
ATOM      1  O   UNL     1     -36.905  23.073   1.020  0.00  0.00    -0.274 OA
ATOM      2  N   UNL     1     -36.875  23.005   3.379  0.00  0.00    -0.254 N 
ATOM      3  C   UNL     1     -35.814  22.212   4.039  0.00  0.00    +0.093 C 
ATOM      4  C   UNL     1     -35.373  21.789   2.612  0.00  0.00    +0.096 C 
ATOM      5  C   UNL     1     -35.063  23.230   4.905  0.00  0.00    +0.055 C 
ATOM      6  C   UNL     1     -36.520  22.688   2.101  0.00  0.00    +0.231 C 
ATOM      7  C   UNL     1     -36.907  24.267   3.901  0.00  0.00    +0.132 C 
ATOM      8  C   UNL     1     -35.925  24.462   4.789  0.00  0.00    +0.025 C 
ENDROOT
BRANCH   7  10
ATOM      9  O   UNL     1     -37.656  26.164   2.681  0.00  0.00    -0.244 OA
ATOM     10  C   UNL     1     -37.896  25.232   3.432  0.00  0.00    +0.352 C 
BRANCH  10  11
ATOM     11  O   UNL     1     -39.107  24.937   3.954  0.00  0.00    -0.476 OA
ATOM     12  H   UNL     1     -39.563  25.574   4.468  0.00  0.00    +0.295 HD
ENDBRANCH  10  11
ENDBRANCH   7  10
BRANCH   4  13
ATOM     13  C   UNL     1     -35.504  20.331   2.242  0.00  0.00    +0.011 C 
ATOM     14  C   UNL     1     -34.253  19.804   1.550  0.00  0.00    +0.001 C 
ENDBRANCH   4  13
BRANCH   8  15
ATOM     15  S   UNL     1     -35.577  25.898   5.660  0.00  0.00    -0.115 S 
BRANCH  15  16
ATOM     16  C   UNL     1     -34.106  26.462   4.774  0.00  0.00    +0.083 C 
BRANCH  16  17
ATOM     17  C   UNL     1     -34.429  26.930   3.361  0.00  0.00    +0.101 C 
BRANCH  17  19
ATOM     18  O   UNL     1     -33.353  29.427   2.344  0.00  0.00    -0.275 OA
ATOM     19  N   UNL     1     -35.078  28.212   3.329  0.00  0.00    -0.303 N 
ATOM     20  C   UNL     1     -34.483  29.358   2.821  0.00  0.00    +0.223 C 
ATOM     21  C   UNL     1     -35.391  30.557   2.886  0.00  0.00    +0.095 C 
ATOM     22  H   UNL     1     -35.993  28.281   3.687  0.00  0.00    +0.149 HD
ENDBRANCH  17  19
ENDBRANCH  16  17
ENDBRANCH  15  16
ENDBRANCH   8  15
TORSDOF 7
ENDMDL
MODEL 3
REMARK VINA RESULT:      -5.6      2.383      2.947
REMARK  Name = 196445
REMARK  7 active torsions:
REMARK  status: ('A' for Active; 'I' for Inactive)
REMARK    1  A    between atoms: C_4  and  C_13
REMARK    2  A    between atoms: C_7  and  C_10
REMARK    3  A    between atoms: C_8  and  S_15
REMARK    4  A    between atoms: C_10  and  O_11
REMARK    5  A    between atoms: S_15  and  C_16
REMARK    6  A    between atoms: C_16  and  C_17
REMARK    7  A    between atoms: C_17  and  N_19
REMARK                            x       y       z     vdW  Elec       q    Type
REMARK                         _______ _______ _______ _____ _____    ______ ____
ROOT
ATOM      1  O   UNL     1     -36.741  20.269  -0.323  0.00  0.00    -0.274 OA
ATOM      2  N   UNL     1     -36.966  20.873   1.948  0.00  0.00    -0.254 N 
ATOM      3  C   UNL     1     -35.734  21.131   2.725  0.00  0.00    +0.093 C 
ATOM      4  C   UNL     1     -34.954  20.711   1.450  0.00  0.00    +0.096 C 
ATOM      5  C   UNL     1     -35.883  22.579   3.204  0.00  0.00    +0.055 C 
ATOM      6  C   UNL     1     -36.337  20.518   0.791  0.00  0.00    +0.231 C 
ATOM      7  C   UNL     1     -37.833  21.918   2.088  0.00  0.00    +0.132 C 
ATOM      8  C   UNL     1     -37.299  22.914   2.807  0.00  0.00    +0.025 C 
ENDROOT
BRANCH   7  10
ATOM      9  O   UNL     1     -39.433  22.508   0.431  0.00  0.00    -0.244 OA
ATOM     10  C   UNL     1     -39.139  21.883   1.438  0.00  0.00    +0.352 C 
BRANCH  10  11
ATOM     11  O   UNL     1     -39.968  21.060   2.119  0.00  0.00    -0.476 OA
ATOM     12  H   UNL     1     -39.749  20.155   2.222  0.00  0.00    +0.295 HD
ENDBRANCH  10  11
ENDBRANCH   7  10
BRANCH   4  13
ATOM     13  C   UNL     1     -34.112  19.461   1.524  0.00  0.00    +0.011 C 
ATOM     14  C   UNL     1     -32.822  19.594   0.723  0.00  0.00    +0.001 C 
ENDBRANCH   4  13
BRANCH   8  15
ATOM     15  S   UNL     1     -38.021  24.419   3.201  0.00  0.00    -0.115 S 
BRANCH  15  16
ATOM     16  C   UNL     1     -36.881  24.995   4.481  0.00  0.00    +0.083 C 
BRANCH  16  17
ATOM     17  C   UNL     1     -36.028  26.165   4.009  0.00  0.00    +0.101 C 
BRANCH  17  19
ATOM     18  O   UNL     1     -33.447  25.081   4.780  0.00  0.00    -0.275 OA
ATOM     19  N   UNL     1     -35.141  26.660   5.026  0.00  0.00    -0.303 N 
ATOM     20  C   UNL     1     -33.920  26.074   5.328  0.00  0.00    +0.223 C 
ATOM     21  C   UNL     1     -33.181  26.806   6.416  0.00  0.00    +0.095 C 
ATOM     22  H   UNL     1     -35.415  27.457   5.537  0.00  0.00    +0.149 HD
ENDBRANCH  17  19
ENDBRANCH  16  17
ENDBRANCH  15  16
ENDBRANCH   8  15
TORSDOF 7
ENDMDL
MODEL 4
REMARK VINA RESULT:      -5.5      2.304      2.851
REMARK  Name = 196445
REMARK  7 active torsions:
REMARK  status: ('A' for Active; 'I' for Inactive)
REMARK    1  A    between atoms: C_4  and  C_13
REMARK    2  A    between atoms: C_7  and  C_10
REMARK    3  A    between atoms: C_8  and  S_15
REMARK    4  A    between atoms: C_10  and  O_11
REMARK    5  A    between atoms: S_15  and  C_16
REMARK    6  A    between atoms: C_16  and  C_17
REMARK    7  A    between atoms: C_17  and  N_19
REMARK                            x       y       z     vdW  Elec       q    Type
REMARK                         _______ _______ _______ _____ _____    ______ ____
ROOT
ATOM      1  O   UNL     1     -36.345  23.050   5.476  0.00  0.00    -0.274 OA
ATOM      2  N   UNL     1     -34.865  24.084   3.956  0.00  0.00    -0.254 N 
ATOM      3  C   UNL     1     -34.828  23.577   2.567  0.00  0.00    +0.093 C 
ATOM      4  C   UNL     1     -35.836  22.494   3.034  0.00  0.00    +0.096 C 
ATOM      5  C   UNL     1     -35.207  24.791   1.710  0.00  0.00    +0.055 C 
ATOM      6  C   UNL     1     -35.766  23.172   4.420  0.00  0.00    +0.231 C 
ATOM      7  C   UNL     1     -35.039  25.439   3.954  0.00  0.00    +0.132 C 
ATOM      8  C   UNL     1     -35.217  25.915   2.715  0.00  0.00    +0.025 C 
ENDROOT
BRANCH   7  10
ATOM      9  O   UNL     1     -34.091  26.536   5.838  0.00  0.00    -0.244 OA
ATOM     10  C   UNL     1     -35.076  26.177   5.212  0.00  0.00    +0.352 C 
BRANCH  10  11
ATOM     11  O   UNL     1     -36.359  26.400   5.575  0.00  0.00    -0.476 OA
ATOM     12  H   UNL     1     -37.015  25.755   5.398  0.00  0.00    +0.295 HD
ENDBRANCH  10  11
ENDBRANCH   7  10
BRANCH   4  13
ATOM     13  C   UNL     1     -35.377  21.055   3.015  0.00  0.00    +0.011 C 
ATOM     14  C   UNL     1     -36.169  20.218   2.019  0.00  0.00    +0.001 C 
ENDBRANCH   4  13
BRANCH   8  15
ATOM     15  S   UNL     1     -35.499  27.543   2.255  0.00  0.00    -0.115 S 
BRANCH  15  16
ATOM     16  C   UNL     1     -33.801  28.160   2.208  0.00  0.00    +0.083 C 
BRANCH  16  17
ATOM     17  C   UNL     1     -33.529  29.183   3.303  0.00  0.00    +0.101 C 
BRANCH  17  19
ATOM     18  O   UNL     1     -32.528  30.628   5.613  0.00  0.00    -0.275 OA
ATOM     19  N   UNL     1     -32.635  28.696   4.318  0.00  0.00    -0.303 N 
ATOM     20  C   UNL     1     -32.207  29.463   5.392  0.00  0.00    +0.223 C 
ATOM     21  C   UNL     1     -31.296  28.702   6.318  0.00  0.00    +0.095 C 
ATOM     22  H   UNL     1     -32.308  27.770   4.246  0.00  0.00    +0.149 HD
ENDBRANCH  17  19
ENDBRANCH  16  17
ENDBRANCH  15  16
ENDBRANCH   8  15
TORSDOF 7
ENDMDL
MODEL 5
REMARK VINA RESULT:      -5.5      2.346      2.768
REMARK  Name = 196445
REMARK  7 active torsions:
REMARK  status: ('A' for Active; 'I' for Inactive)
REMARK    1  A    between atoms: C_4  and  C_13
REMARK    2  A    between atoms: C_7  and  C_10
REMARK    3  A    between atoms: C_8  and  S_15
REMARK    4  A    between atoms: C_10  and  O_11
REMARK    5  A    between atoms: S_15  and  C_16
REMARK    6  A    between atoms: C_16  and  C_17
REMARK    7  A    between atoms: C_17  and  N_19
REMARK                            x       y       z     vdW  Elec       q    Type
REMARK                         _______ _______ _______ _____ _____    ______ ____
ROOT
ATOM      1  O   UNL     1     -37.069  22.886   3.279  0.00  0.00    -0.274 OA
ATOM      2  N   UNL     1     -36.711  24.988   4.292  0.00  0.00    -0.254 N 
ATOM      3  C   UNL     1     -35.575  25.125   5.229  0.00  0.00    +0.093 C 
ATOM      4  C   UNL     1     -35.340  23.605   5.019  0.00  0.00    +0.096 C 
ATOM      5  C   UNL     1     -34.703  26.224   4.611  0.00  0.00    +0.055 C 
ATOM      6  C   UNL     1     -36.540  23.657   4.048  0.00  0.00    +0.231 C 
ATOM      7  C   UNL     1     -36.661  25.977   3.351  0.00  0.00    +0.132 C 
ATOM      8  C   UNL     1     -35.563  26.732   3.482  0.00  0.00    +0.025 C 
ENDROOT
BRANCH   7  10
ATOM      9  O   UNL     1     -37.567  25.716   1.169  0.00  0.00    -0.244 OA
ATOM     10  C   UNL     1     -37.698  26.073   2.329  0.00  0.00    +0.352 C 
BRANCH  10  11
ATOM     11  O   UNL     1     -38.816  26.616   2.860  0.00  0.00    -0.476 OA
ATOM     12  H   UNL     1     -39.601  26.108   2.919  0.00  0.00    +0.295 HD
ENDBRANCH  10  11
ENDBRANCH   7  10
BRANCH   4  13
ATOM     13  C   UNL     1     -35.532  22.695   6.209  0.00  0.00    +0.011 C 
ATOM     14  C   UNL     1     -34.846  21.349   6.013  0.00  0.00    +0.001 C 
ENDBRANCH   4  13
BRANCH   8  15
ATOM     15  S   UNL     1     -35.086  28.058   2.503  0.00  0.00    -0.115 S 
BRANCH  15  16
ATOM     16  C   UNL     1     -33.318  28.112   2.877  0.00  0.00    +0.083 C 
BRANCH  16  17
ATOM     17  C   UNL     1     -32.920  29.397   3.591  0.00  0.00    +0.101 C 
BRANCH  17  19
ATOM     18  O   UNL     1     -31.441  31.204   5.316  0.00  0.00    -0.275 OA
ATOM     19  N   UNL     1     -32.544  29.184   4.962  0.00  0.00    -0.303 N 
ATOM     20  C   UNL     1     -31.833  30.110   5.713  0.00  0.00    +0.223 C 
ATOM     21  C   UNL     1     -31.593  29.646   7.125  0.00  0.00    +0.095 C 
ATOM     22  H   UNL     1     -32.804  28.336   5.392  0.00  0.00    +0.149 HD
ENDBRANCH  17  19
ENDBRANCH  16  17
ENDBRANCH  15  16
ENDBRANCH   8  15
TORSDOF 7
ENDMDL
MODEL 6
REMARK VINA RESULT:      -5.4      1.927      2.592
REMARK  Name = 196445
REMARK  7 active torsions:
REMARK  status: ('A' for Active; 'I' for Inactive)
REMARK    1  A    between atoms: C_4  and  C_13
REMARK    2  A    between atoms: C_7  and  C_10
REMARK    3  A    between atoms: C_8  and  S_15
REMARK    4  A    between atoms: C_10  and  O_11
REMARK    5  A    between atoms: S_15  and  C_16
REMARK    6  A    between atoms: C_16  and  C_17
REMARK    7  A    between atoms: C_17  and  N_19
REMARK                            x       y       z     vdW  Elec       q    Type
REMARK                         _______ _______ _______ _____ _____    ______ ____
ROOT
ATOM      1  O   UNL     1     -37.016  22.894   0.886  0.00  0.00    -0.274 OA
ATOM      2  N   UNL     1     -36.968  22.887   3.246  0.00  0.00    -0.254 N 
ATOM      3  C   UNL     1     -35.846  22.195   3.917  0.00  0.00    +0.093 C 
ATOM      4  C   UNL     1     -35.381  21.771   2.499  0.00  0.00    +0.096 C 
ATOM      5  C   UNL     1     -35.171  23.290   4.752  0.00  0.00    +0.055 C 
ATOM      6  C   UNL     1     -36.597  22.567   1.973  0.00  0.00    +0.231 C 
ATOM      7  C   UNL     1     -37.095  24.156   3.736  0.00  0.00    +0.132 C 
ATOM      8  C   UNL     1     -36.126  24.448   4.613  0.00  0.00    +0.025 C 
ENDROOT
BRANCH   7  10
ATOM      9  O   UNL     1     -38.039  25.824   2.331  0.00  0.00    -0.244 OA
ATOM     10  C   UNL     1     -38.157  25.030   3.250  0.00  0.00    +0.352 C 
BRANCH  10  11
ATOM     11  O   UNL     1     -39.283  24.828   3.971  0.00  0.00    -0.476 OA
ATOM     12  H   UNL     1     -40.118  24.843   3.549  0.00  0.00    +0.295 HD
ENDBRANCH  10  11
ENDBRANCH   7  10
BRANCH   4  13
ATOM     13  C   UNL     1     -35.402  20.299   2.166  0.00  0.00    +0.011 C 
ATOM     14  C   UNL     1     -34.146  19.866   1.421  0.00  0.00    +0.001 C 
ENDBRANCH   4  13
BRANCH   8  15
ATOM     15  S   UNL     1     -35.885  25.928   5.445  0.00  0.00    -0.115 S 
BRANCH  15  16
ATOM     16  C   UNL     1     -34.079  26.002   5.450  0.00  0.00    +0.083 C 
BRANCH  16  17
ATOM     17  C   UNL     1     -33.528  26.705   4.216  0.00  0.00    +0.101 C 
BRANCH  17  19
ATOM     18  O   UNL     1     -34.967  26.403   1.712  0.00  0.00    -0.275 OA
ATOM     19  N   UNL     1     -33.229  25.799   3.140  0.00  0.00    -0.303 N 
ATOM     20  C   UNL     1     -33.977  25.724   1.973  0.00  0.00    +0.223 C 
ATOM     21  C   UNL     1     -33.432  24.709   1.003  0.00  0.00    +0.095 C 
ATOM     22  H   UNL     1     -32.453  25.200   3.236  0.00  0.00    +0.149 HD
ENDBRANCH  17  19
ENDBRANCH  16  17
ENDBRANCH  15  16
ENDBRANCH   8  15
TORSDOF 7
ENDMDL
MODEL 7
REMARK VINA RESULT:      -5.4      2.555      5.618
REMARK  Name = 196445
REMARK  7 active torsions:
REMARK  status: ('A' for Active; 'I' for Inactive)
REMARK    1  A    between atoms: C_4  and  C_13
REMARK    2  A    between atoms: C_7  and  C_10
REMARK    3  A    between atoms: C_8  and  S_15
REMARK    4  A    between atoms: C_10  and  O_11
REMARK    5  A    between atoms: S_15  and  C_16
REMARK    6  A    between atoms: C_16  and  C_17
REMARK    7  A    between atoms: C_17  and  N_19
REMARK                            x       y       z     vdW  Elec       q    Type
REMARK                         _______ _______ _______ _____ _____    ______ ____
ROOT
ATOM      1  O   UNL     1     -35.378  26.557   5.376  0.00  0.00    -0.274 OA
ATOM      2  N   UNL     1     -35.664  26.736   3.040  0.00  0.00    -0.254 N 
ATOM      3  C   UNL     1     -34.460  26.663   2.184  0.00  0.00    +0.093 C 
ATOM      4  C   UNL     1     -33.642  26.597   3.501  0.00  0.00    +0.096 C 
ATOM      5  C   UNL     1     -34.716  25.460   1.269  0.00  0.00    +0.055 C 
ATOM      6  C   UNL     1     -35.002  26.656   4.230  0.00  0.00    +0.231 C 
ATOM      7  C   UNL     1     -36.605  25.850   2.598  0.00  0.00    +0.132 C 
ATOM      8  C   UNL     1     -36.149  25.107   1.581  0.00  0.00    +0.025 C 
ENDROOT
BRANCH   7  10
ATOM      9  O   UNL     1     -38.918  26.313   2.886  0.00  0.00    -0.244 OA
ATOM     10  C   UNL     1     -37.899  25.757   3.265  0.00  0.00    +0.352 C 
BRANCH  10  11
ATOM     11  O   UNL     1     -37.796  24.969   4.358  0.00  0.00    -0.476 OA
ATOM     12  H   UNL     1     -36.964  24.845   4.769  0.00  0.00    +0.295 HD
ENDBRANCH  10  11
ENDBRANCH   7  10
BRANCH   4  13
ATOM     13  C   UNL     1     -32.713  27.747   3.808  0.00  0.00    +0.011 C 
ATOM     14  C   UNL     1     -31.354  27.576   3.140  0.00  0.00    +0.001 C 
ENDBRANCH   4  13
BRANCH   8  15
ATOM     15  S   UNL     1     -36.979  23.860   0.746  0.00  0.00    -0.115 S 
BRANCH  15  16
ATOM     16  C   UNL     1     -36.210  22.406   1.495  0.00  0.00    +0.083 C 
BRANCH  16  17
ATOM     17  C   UNL     1     -36.989  21.900   2.701  0.00  0.00    +0.101 C 
BRANCH  17  19
ATOM     18  O   UNL     1     -35.068  20.805   4.582  0.00  0.00    -0.275 OA
ATOM     19  N   UNL     1     -36.549  22.483   3.940  0.00  0.00    -0.303 N 
ATOM     20  C   UNL     1     -35.621  21.884   4.780  0.00  0.00    +0.223 C 
ATOM     21  C   UNL     1     -35.320  22.718   5.996  0.00  0.00    +0.095 C 
ATOM     22  H   UNL     1     -36.925  23.354   4.206  0.00  0.00    +0.149 HD
ENDBRANCH  17  19
ENDBRANCH  16  17
ENDBRANCH  15  16
ENDBRANCH   8  15
TORSDOF 7
ENDMDL
MODEL 8
REMARK VINA RESULT:      -5.3      4.035      5.951
REMARK  Name = 196445
REMARK  7 active torsions:
REMARK  status: ('A' for Active; 'I' for Inactive)
REMARK    1  A    between atoms: C_4  and  C_13
REMARK    2  A    between atoms: C_7  and  C_10
REMARK    3  A    between atoms: C_8  and  S_15
REMARK    4  A    between atoms: C_10  and  O_11
REMARK    5  A    between atoms: S_15  and  C_16
REMARK    6  A    between atoms: C_16  and  C_17
REMARK    7  A    between atoms: C_17  and  N_19
REMARK                            x       y       z     vdW  Elec       q    Type
REMARK                         _______ _______ _______ _____ _____    ______ ____
ROOT
ATOM      1  O   UNL     1     -34.108  18.140  -1.499  0.00  0.00    -0.274 OA
ATOM      2  N   UNL     1     -34.867  18.699   0.665  0.00  0.00    -0.254 N 
ATOM      3  C   UNL     1     -33.984  19.520   1.522  0.00  0.00    +0.093 C 
ATOM      4  C   UNL     1     -32.941  19.427   0.376  0.00  0.00    +0.096 C 
ATOM      5  C   UNL     1     -34.812  20.773   1.830  0.00  0.00    +0.055 C 
ATOM      6  C   UNL     1     -34.002  18.601  -0.385  0.00  0.00    +0.231 C 
ATOM      7  C   UNL     1     -36.114  19.253   0.613  0.00  0.00    +0.132 C 
ATOM      8  C   UNL     1     -36.167  20.419   1.270  0.00  0.00    +0.025 C 
ENDROOT
BRANCH   7  10
ATOM      9  O   UNL     1     -37.715  19.080  -1.135  0.00  0.00    -0.244 OA
ATOM     10  C   UNL     1     -37.176  18.605  -0.148  0.00  0.00    +0.352 C 
BRANCH  10  11
ATOM     11  O   UNL     1     -37.471  17.407   0.405  0.00  0.00    -0.476 OA
ATOM     12  H   UNL     1     -38.221  17.319   0.959  0.00  0.00    +0.295 HD
ENDBRANCH  10  11
ENDBRANCH   7  10
BRANCH   4  13
ATOM     13  C   UNL     1     -31.654  18.689   0.659  0.00  0.00    +0.011 C 
ATOM     14  C   UNL     1     -30.464  19.331  -0.043  0.00  0.00    +0.001 C 
ENDBRANCH   4  13
BRANCH   8  15
ATOM     15  S   UNL     1     -37.518  21.462   1.435  0.00  0.00    -0.115 S 
BRANCH  15  16
ATOM     16  C   UNL     1     -36.686  22.987   1.934  0.00  0.00    +0.083 C 
BRANCH  16  17
ATOM     17  C   UNL     1     -37.091  23.434   3.333  0.00  0.00    +0.101 C 
BRANCH  17  19
ATOM     18  O   UNL     1     -35.226  24.235   5.408  0.00  0.00    -0.275 OA
ATOM     19  N   UNL     1     -36.531  22.610   4.370  0.00  0.00    -0.303 N 
ATOM     20  C   UNL     1     -35.641  23.082   5.324  0.00  0.00    +0.223 C 
ATOM     21  C   UNL     1     -35.230  22.017   6.306  0.00  0.00    +0.095 C 
ATOM     22  H   UNL     1     -36.792  21.661   4.404  0.00  0.00    +0.149 HD
ENDBRANCH  17  19
ENDBRANCH  16  17
ENDBRANCH  15  16
ENDBRANCH   8  15
TORSDOF 7
ENDMDL
MODEL 9
REMARK VINA RESULT:      -5.3      3.714      4.856
REMARK  Name = 196445
REMARK  7 active torsions:
REMARK  status: ('A' for Active; 'I' for Inactive)
REMARK    1  A    between atoms: C_4  and  C_13
REMARK    2  A    between atoms: C_7  and  C_10
REMARK    3  A    between atoms: C_8  and  S_15
REMARK    4  A    between atoms: C_10  and  O_11
REMARK    5  A    between atoms: S_15  and  C_16
REMARK    6  A    between atoms: C_16  and  C_17
REMARK    7  A    between atoms: C_17  and  N_19
REMARK                            x       y       z     vdW  Elec       q    Type
REMARK                         _______ _______ _______ _____ _____    ______ ____
ROOT
ATOM      1  O   UNL     1     -34.951  19.810  -1.392  0.00  0.00    -0.274 OA
ATOM      2  N   UNL     1     -35.909  19.769   0.765  0.00  0.00    -0.254 N 
ATOM      3  C   UNL     1     -35.018  19.987   1.926  0.00  0.00    +0.093 C 
ATOM      4  C   UNL     1     -33.850  20.023   0.904  0.00  0.00    +0.096 C 
ATOM      5  C   UNL     1     -35.594  21.228   2.618  0.00  0.00    +0.055 C 
ATOM      6  C   UNL     1     -34.928  19.816  -0.182  0.00  0.00    +0.231 C 
ATOM      7  C   UNL     1     -36.981  20.613   0.835  0.00  0.00    +0.132 C 
ATOM      8  C   UNL     1     -36.884  21.454   1.872  0.00  0.00    +0.025 C 
ENDROOT
BRANCH   7  10
ATOM      9  O   UNL     1     -38.016  21.219  -1.218  0.00  0.00    -0.244 OA
ATOM     10  C   UNL     1     -38.022  20.565  -0.186  0.00  0.00    +0.352 C 
BRANCH  10  11
ATOM     11  O   UNL     1     -38.988  19.695   0.184  0.00  0.00    -0.476 OA
ATOM     12  H   UNL     1     -39.710  19.989   0.703  0.00  0.00    +0.295 HD
ENDBRANCH  10  11
ENDBRANCH   7  10
BRANCH   4  13
ATOM     13  C   UNL     1     -32.816  18.926   0.983  0.00  0.00    +0.011 C 
ATOM     14  C   UNL     1     -31.482  19.356   0.387  0.00  0.00    +0.001 C 
ENDBRANCH   4  13
BRANCH   8  15
ATOM     15  S   UNL     1     -37.986  22.690   2.318  0.00  0.00    -0.115 S 
BRANCH  15  16
ATOM     16  C   UNL     1     -36.848  24.083   2.498  0.00  0.00    +0.083 C 
BRANCH  16  17
ATOM     17  C   UNL     1     -36.793  24.601   3.929  0.00  0.00    +0.101 C 
BRANCH  17  19
ATOM     18  O   UNL     1     -34.279  23.994   5.249  0.00  0.00    -0.275 OA
ATOM     19  N   UNL     1     -36.540  23.564   4.892  0.00  0.00    -0.303 N 
ATOM     20  C   UNL     1     -35.299  23.346   5.474  0.00  0.00    +0.223 C 
ATOM     21  C   UNL     1     -35.316  22.214   6.466  0.00  0.00    +0.095 C 
ATOM     22  H   UNL     1     -37.286  22.976   5.153  0.00  0.00    +0.149 HD
ENDBRANCH  17  19
ENDBRANCH  16  17
ENDBRANCH  15  16
ENDBRANCH   8  15
TORSDOF 7
ENDMDL
