MODEL 1
REMARK VINA RESULT:      -7.1      0.000      0.000
REMARK  Name = 21121406
REMARK  7 active torsions:
REMARK  status: ('A' for Active; 'I' for Inactive)
REMARK    1  A    between atoms: C_6  and  C_24
REMARK    2  A    between atoms: C_10  and  O_20
REMARK    3  A    between atoms: C_19  and  O_22
REMARK    4  A    between atoms: C_24  and  C_26
REMARK    5  A    between atoms: C_26  and  C_27
REMARK    6  A    between atoms: C_27  and  C_28
REMARK    7  A    between atoms: C_28  and  S_29
REMARK                            x       y       z     vdW  Elec       q    Type
REMARK                         _______ _______ _______ _____ _____    ______ ____
ROOT
ATOM      1  C   UNL     1     -37.167  21.663   1.838  0.00  0.00    +0.002 C 
ATOM      2  C   UNL     1     -35.823  21.894   2.562  0.00  0.00    +0.000 C 
ATOM      3  C   UNL     1     -37.000  21.057   0.436  0.00  0.00    +0.027 C 
ATOM      4  C   UNL     1     -36.269  19.678   0.572  0.00  0.00    +0.002 C 
ATOM      5  C   UNL     1     -36.059  18.989  -0.830  0.00  0.00    +0.000 C 
ATOM      6  C   UNL     1     -36.351  22.550   3.861  0.00  0.00    +0.000 C 
ATOM      7  C   UNL     1     -37.442  18.841  -1.546  0.00  0.00    +0.005 C 
ATOM      8  C   UNL     1     -35.161  20.524   2.758  0.00  0.00    +0.000 C 
ATOM      9  C   UNL     1     -34.971  19.789   1.420  0.00  0.00    +0.000 C 
ATOM     10  C   UNL     1     -38.342  20.928  -0.310  0.00  0.00    +0.110 C 
ATOM     11  C   UNL     1     -37.884  23.002   1.979  0.00  0.00    +0.000 C 
ATOM     12  C   UNL     1     -37.447  23.520   3.362  0.00  0.00    +0.000 C 
ATOM     13  C   UNL     1     -38.202  20.179  -1.639  0.00  0.00    +0.029 C 
ATOM     14  C   UNL     1     -35.403  17.581  -0.714  0.00  0.00    +0.002 C 
ATOM     15  C   UNL     1     -34.853  22.842   1.813  0.00  0.00    +0.000 C 
ATOM     16  C   UNL     1     -38.326  17.740  -0.924  0.00  0.00    +0.029 C 
ATOM     17  C   UNL     1     -35.105  19.824  -1.728  0.00  0.00    +0.000 C 
ATOM     18  C   UNL     1     -36.298  16.530  -0.070  0.00  0.00    +0.029 C 
ATOM     19  C   UNL     1     -37.609  16.397  -0.833  0.00  0.00    +0.111 C 
ENDROOT
BRANCH  10  20
ATOM     20  O   UNL     1     -39.309  20.286   0.517  0.00  0.00    -0.384 OA
ATOM     21  H   UNL     1     -40.093  20.068  -0.013  0.00  0.00    +0.210 HD
ENDBRANCH  10  20
BRANCH  19  22
ATOM     22  O   UNL     1     -38.434  15.456  -0.156  0.00  0.00    -0.384 OA
ATOM     23  H   UNL     1     -38.427  15.645   0.796  0.00  0.00    +0.210 HD
ENDBRANCH  19  22
BRANCH   6  24
ATOM     24  C   UNL     1     -35.319  23.229   4.750  0.00  0.00    +0.000 C 
ATOM     25  C   UNL     1     -34.930  22.302   5.906  0.00  0.00    +0.000 C 
BRANCH  24  26
ATOM     26  C   UNL     1     -35.860  24.586   5.250  0.00  0.00    +0.002 C 
BRANCH  26  27
ATOM     27  C   UNL     1     -34.766  25.617   5.540  0.00  0.00    +0.026 C 
BRANCH  27  28
ATOM     28  C   UNL     1     -33.882  25.837   4.321  0.00  0.00    +0.158 C 
BRANCH  28  29
ATOM     29  S   UNL     1     -33.070  27.401   4.389  0.00  0.00    +0.023 S 
ATOM     30  O   UNL     1     -31.846  27.177   3.621  0.00  0.00    -0.069 OA
ATOM     31  O   UNL     1     -34.033  28.305   3.764  0.00  0.00    -0.069 OA
ATOM     32  O   UNL     1     -32.868  27.610   5.822  0.00  0.00    -0.069 OA
ENDBRANCH  28  29
ENDBRANCH  27  28
ENDBRANCH  26  27
ENDBRANCH  24  26
ENDBRANCH   6  24
TORSDOF 7
ENDMDL
MODEL 2
REMARK VINA RESULT:      -6.8      1.422      1.727
REMARK  Name = 21121406
REMARK  7 active torsions:
REMARK  status: ('A' for Active; 'I' for Inactive)
REMARK    1  A    between atoms: C_6  and  C_24
REMARK    2  A    between atoms: C_10  and  O_20
REMARK    3  A    between atoms: C_19  and  O_22
REMARK    4  A    between atoms: C_24  and  C_26
REMARK    5  A    between atoms: C_26  and  C_27
REMARK    6  A    between atoms: C_27  and  C_28
REMARK    7  A    between atoms: C_28  and  S_29
REMARK                            x       y       z     vdW  Elec       q    Type
REMARK                         _______ _______ _______ _____ _____    ______ ____
ROOT
ATOM      1  C   UNL     1     -36.614  20.632   1.217  0.00  0.00    +0.002 C 
ATOM      2  C   UNL     1     -35.503  21.327   2.033  0.00  0.00    +0.000 C 
ATOM      3  C   UNL     1     -36.114  20.063  -0.120  0.00  0.00    +0.027 C 
ATOM      4  C   UNL     1     -34.988  19.013   0.174  0.00  0.00    +0.002 C 
ATOM      5  C   UNL     1     -34.420  18.381  -1.153  0.00  0.00    +0.000 C 
ATOM      6  C   UNL     1     -36.348  21.818   3.234  0.00  0.00    +0.000 C 
ATOM      7  C   UNL     1     -35.597  17.752  -1.971  0.00  0.00    +0.005 C 
ATOM      8  C   UNL     1     -34.451  20.265   2.381  0.00  0.00    +0.000 C 
ATOM      9  C   UNL     1     -33.894  19.584   1.119  0.00  0.00    +0.000 C 
ATOM     10  C   UNL     1     -37.254  19.464  -0.965  0.00  0.00    +0.110 C 
ATOM     11  C   UNL     1     -37.743  21.659   1.203  0.00  0.00    +0.000 C 
ATOM     12  C   UNL     1     -37.644  22.346   2.577  0.00  0.00    +0.000 C 
ATOM     13  C   UNL     1     -36.741  18.755  -2.221  0.00  0.00    +0.029 C 
ATOM     14  C   UNL     1     -33.354  17.278  -0.884  0.00  0.00    +0.002 C 
ATOM     15  C   UNL     1     -34.827  22.514   1.304  0.00  0.00    +0.000 C 
ATOM     16  C   UNL     1     -36.128  16.444  -1.349  0.00  0.00    +0.029 C 
ATOM     17  C   UNL     1     -33.708  19.451  -2.024  0.00  0.00    +0.000 C 
ATOM     18  C   UNL     1     -33.914  16.014  -0.245  0.00  0.00    +0.029 C 
ATOM     19  C   UNL     1     -35.023  15.422  -1.104  0.00  0.00    +0.111 C 
ENDROOT
BRANCH  10  20
ATOM     20  O   UNL     1     -38.036  18.568  -0.180  0.00  0.00    -0.384 OA
ATOM     21  H   UNL     1     -37.716  18.579   0.737  0.00  0.00    +0.210 HD
ENDBRANCH  10  20
BRANCH  19  22
ATOM     22  O   UNL     1     -35.558  14.286  -0.434  0.00  0.00    -0.384 OA
ATOM     23  H   UNL     1     -36.520  14.384  -0.349  0.00  0.00    +0.210 HD
ENDBRANCH  19  22
BRANCH   6  24
ATOM     24  C   UNL     1     -35.694  22.836   4.156  0.00  0.00    +0.000 C 
ATOM     25  C   UNL     1     -35.366  22.188   5.505  0.00  0.00    +0.000 C 
BRANCH  24  26
ATOM     26  C   UNL     1     -36.605  24.073   4.312  0.00  0.00    +0.002 C 
BRANCH  26  27
ATOM     27  C   UNL     1     -36.055  25.126   5.277  0.00  0.00    +0.026 C 
BRANCH  27  28
ATOM     28  C   UNL     1     -35.487  26.319   4.521  0.00  0.00    +0.158 C 
BRANCH  28  29
ATOM     29  S   UNL     1     -33.782  26.566   4.897  0.00  0.00    +0.023 S 
ATOM     30  O   UNL     1     -33.129  25.423   4.260  0.00  0.00    -0.069 OA
ATOM     31  O   UNL     1     -33.489  27.862   4.287  0.00  0.00    -0.069 OA
ATOM     32  O   UNL     1     -33.756  26.554   6.359  0.00  0.00    -0.069 OA
ENDBRANCH  28  29
ENDBRANCH  27  28
ENDBRANCH  26  27
ENDBRANCH  24  26
ENDBRANCH   6  24
TORSDOF 7
ENDMDL
MODEL 3
REMARK VINA RESULT:      -6.5      3.452      6.026
REMARK  Name = 21121406
REMARK  7 active torsions:
REMARK  status: ('A' for Active; 'I' for Inactive)
REMARK    1  A    between atoms: C_6  and  C_24
REMARK    2  A    between atoms: C_10  and  O_20
REMARK    3  A    between atoms: C_19  and  O_22
REMARK    4  A    between atoms: C_24  and  C_26
REMARK    5  A    between atoms: C_26  and  C_27
REMARK    6  A    between atoms: C_27  and  C_28
REMARK    7  A    between atoms: C_28  and  S_29
REMARK                            x       y       z     vdW  Elec       q    Type
REMARK                         _______ _______ _______ _____ _____    ______ ____
ROOT
ATOM      1  C   UNL     1     -33.879  25.578   4.463  0.00  0.00    +0.002 C 
ATOM      2  C   UNL     1     -33.330  26.703   3.560  0.00  0.00    +0.000 C 
ATOM      3  C   UNL     1     -35.054  24.816   3.829  0.00  0.00    +0.027 C 
ATOM      4  C   UNL     1     -34.567  24.177   2.484  0.00  0.00    +0.002 C 
ATOM      5  C   UNL     1     -35.720  23.374   1.769  0.00  0.00    +0.000 C 
ATOM      6  C   UNL     1     -32.247  27.275   4.508  0.00  0.00    +0.000 C 
ATOM      7  C   UNL     1     -36.284  22.294   2.751  0.00  0.00    +0.005 C 
ATOM      8  C   UNL     1     -32.784  26.049   2.284  0.00  0.00    +0.000 C 
ATOM      9  C   UNL     1     -33.861  25.215   1.569  0.00  0.00    +0.000 C 
ATOM     10  C   UNL     1     -35.654  23.766   4.783  0.00  0.00    +0.110 C 
ATOM     11  C   UNL     1     -34.090  26.268   5.807  0.00  0.00    +0.000 C 
ATOM     12  C   UNL     1     -32.943  27.292   5.889  0.00  0.00    +0.000 C 
ATOM     13  C   UNL     1     -36.716  22.897   4.103  0.00  0.00    +0.029 C 
ATOM     14  C   UNL     1     -35.240  22.664   0.469  0.00  0.00    +0.002 C 
ATOM     15  C   UNL     1     -34.373  27.786   3.187  0.00  0.00    +0.000 C 
ATOM     16  C   UNL     1     -35.322  21.105   2.953  0.00  0.00    +0.029 C 
ATOM     17  C   UNL     1     -36.872  24.319   1.332  0.00  0.00    +0.000 C 
ATOM     18  C   UNL     1     -34.271  21.514   0.710  0.00  0.00    +0.029 C 
ATOM     19  C   UNL     1     -34.888  20.474   1.634  0.00  0.00    +0.111 C 
ENDROOT
BRANCH  10  20
ATOM     20  O   UNL     1     -34.624  22.946   5.330  0.00  0.00    -0.384 OA
ATOM     21  H   UNL     1     -34.202  22.440   4.617  0.00  0.00    +0.210 HD
ENDBRANCH  10  20
BRANCH  19  22
ATOM     22  O   UNL     1     -33.923  19.458   1.882  0.00  0.00    -0.384 OA
ATOM     23  H   UNL     1     -33.052  19.757   1.576  0.00  0.00    +0.210 HD
ENDBRANCH  19  22
BRANCH   6  24
ATOM     24  C   UNL     1     -31.652  28.623   4.129  0.00  0.00    +0.000 C 
ATOM     25  C   UNL     1     -30.267  28.427   3.503  0.00  0.00    +0.000 C 
BRANCH  24  26
ATOM     26  C   UNL     1     -31.607  29.549   5.362  0.00  0.00    +0.002 C 
BRANCH  26  27
ATOM     27  C   UNL     1     -30.192  29.970   5.766  0.00  0.00    +0.026 C 
BRANCH  27  28
ATOM     28  C   UNL     1     -29.806  29.377   7.114  0.00  0.00    +0.158 C 
BRANCH  28  29
ATOM     29  S   UNL     1     -28.321  28.431   6.998  0.00  0.00    +0.023 S 
ATOM     30  O   UNL     1     -27.683  28.649   8.296  0.00  0.00    -0.069 OA
ATOM     31  O   UNL     1     -28.807  27.072   6.771  0.00  0.00    -0.069 OA
ATOM     32  O   UNL     1     -27.627  29.036   5.862  0.00  0.00    -0.069 OA
ENDBRANCH  28  29
ENDBRANCH  27  28
ENDBRANCH  26  27
ENDBRANCH  24  26
ENDBRANCH   6  24
TORSDOF 7
ENDMDL
MODEL 4
REMARK VINA RESULT:      -6.5      4.818      7.160
REMARK  Name = 21121406
REMARK  7 active torsions:
REMARK  status: ('A' for Active; 'I' for Inactive)
REMARK    1  A    between atoms: C_6  and  C_24
REMARK    2  A    between atoms: C_10  and  O_20
REMARK    3  A    between atoms: C_19  and  O_22
REMARK    4  A    between atoms: C_24  and  C_26
REMARK    5  A    between atoms: C_26  and  C_27
REMARK    6  A    between atoms: C_27  and  C_28
REMARK    7  A    between atoms: C_28  and  S_29
REMARK                            x       y       z     vdW  Elec       q    Type
REMARK                         _______ _______ _______ _____ _____    ______ ____
ROOT
ATOM      1  C   UNL     1     -39.288  23.774   1.701  0.00  0.00    +0.002 C 
ATOM      2  C   UNL     1     -39.579  25.266   1.969  0.00  0.00    +0.000 C 
ATOM      3  C   UNL     1     -37.787  23.462   1.594  0.00  0.00    +0.027 C 
ATOM      4  C   UNL     1     -37.097  23.866   2.942  0.00  0.00    +0.002 C 
ATOM      5  C   UNL     1     -35.547  23.576   2.912  0.00  0.00    +0.000 C 
ATOM      6  C   UNL     1     -41.127  25.224   1.948  0.00  0.00    +0.000 C 
ATOM      7  C   UNL     1     -35.310  22.068   2.571  0.00  0.00    +0.005 C 
ATOM      8  C   UNL     1     -38.966  25.621   3.330  0.00  0.00    +0.000 C 
ATOM      9  C   UNL     1     -37.458  25.316   3.369  0.00  0.00    +0.000 C 
ATOM     10  C   UNL     1     -37.519  21.991   1.227  0.00  0.00    +0.110 C 
ATOM     11  C   UNL     1     -40.194  23.439   0.519  0.00  0.00    +0.000 C 
ATOM     12  C   UNL     1     -41.451  24.296   0.754  0.00  0.00    +0.000 C 
ATOM     13  C   UNL     1     -36.029  21.638   1.277  0.00  0.00    +0.029 C 
ATOM     14  C   UNL     1     -34.851  23.897   4.268  0.00  0.00    +0.002 C 
ATOM     15  C   UNL     1     -39.033  26.226   0.882  0.00  0.00    +0.000 C 
ATOM     16  C   UNL     1     -35.657  21.125   3.742  0.00  0.00    +0.029 C 
ATOM     17  C   UNL     1     -34.832  24.459   1.854  0.00  0.00    +0.000 C 
ATOM     18  C   UNL     1     -35.242  22.960   5.404  0.00  0.00    +0.029 C 
ATOM     19  C   UNL     1     -34.948  21.513   5.035  0.00  0.00    +0.111 C 
ENDROOT
BRANCH  10  20
ATOM     20  O   UNL     1     -38.259  21.123   2.081  0.00  0.00    -0.384 OA
ATOM     21  H   UNL     1     -39.209  21.266   1.943  0.00  0.00    +0.210 HD
ENDBRANCH  10  20
BRANCH  19  22
ATOM     22  O   UNL     1     -35.391  20.675   6.097  0.00  0.00    -0.384 OA
ATOM     23  H   UNL     1     -35.985  21.176   6.678  0.00  0.00    +0.210 HD
ENDBRANCH  19  22
BRANCH   6  24
ATOM     24  C   UNL     1     -41.844  26.563   1.868  0.00  0.00    +0.000 C 
ATOM     25  C   UNL     1     -42.541  26.865   3.199  0.00  0.00    +0.000 C 
BRANCH  24  26
ATOM     26  C   UNL     1     -42.831  26.568   0.681  0.00  0.00    +0.002 C 
BRANCH  26  27
ATOM     27  C   UNL     1     -42.659  27.764  -0.259  0.00  0.00    +0.026 C 
BRANCH  27  28
ATOM     28  C   UNL     1     -41.531  28.673   0.209  0.00  0.00    +0.158 C 
BRANCH  28  29
ATOM     29  S   UNL     1     -42.125  30.287   0.600  0.00  0.00    +0.023 S 
ATOM     30  O   UNL     1     -42.874  30.667  -0.597  0.00  0.00    -0.069 OA
ATOM     31  O   UNL     1     -42.941  30.063   1.792  0.00  0.00    -0.069 OA
ATOM     32  O   UNL     1     -40.898  31.049   0.827  0.00  0.00    -0.069 OA
ENDBRANCH  28  29
ENDBRANCH  27  28
ENDBRANCH  26  27
ENDBRANCH  24  26
ENDBRANCH   6  24
TORSDOF 7
ENDMDL
MODEL 5
REMARK VINA RESULT:      -6.3      3.005      8.700
REMARK  Name = 21121406
REMARK  7 active torsions:
REMARK  status: ('A' for Active; 'I' for Inactive)
REMARK    1  A    between atoms: C_6  and  C_24
REMARK    2  A    between atoms: C_10  and  O_20
REMARK    3  A    between atoms: C_19  and  O_22
REMARK    4  A    between atoms: C_24  and  C_26
REMARK    5  A    between atoms: C_26  and  C_27
REMARK    6  A    between atoms: C_27  and  C_28
REMARK    7  A    between atoms: C_28  and  S_29
REMARK                            x       y       z     vdW  Elec       q    Type
REMARK                         _______ _______ _______ _____ _____    ______ ____
ROOT
ATOM      1  C   UNL     1     -34.425  22.559   0.900  0.00  0.00    +0.002 C 
ATOM      2  C   UNL     1     -34.990  21.170   1.268  0.00  0.00    +0.000 C 
ATOM      3  C   UNL     1     -35.259  23.719   1.466  0.00  0.00    +0.027 C 
ATOM      4  C   UNL     1     -35.291  23.596   3.028  0.00  0.00    +0.002 C 
ATOM      5  C   UNL     1     -36.132  24.755   3.686  0.00  0.00    +0.000 C 
ATOM      6  C   UNL     1     -33.978  20.281   0.506  0.00  0.00    +0.000 C 
ATOM      7  C   UNL     1     -35.558  26.137   3.227  0.00  0.00    +0.005 C 
ATOM      8  C   UNL     1     -34.937  21.038   2.796  0.00  0.00    +0.000 C 
ATOM      9  C   UNL     1     -35.708  22.173   3.491  0.00  0.00    +0.000 C 
ATOM     10  C   UNL     1     -34.739  25.093   1.005  0.00  0.00    +0.110 C 
ATOM     11  C   UNL     1     -34.215  22.472  -0.608  0.00  0.00    +0.000 C 
ATOM     12  C   UNL     1     -33.798  21.009  -0.847  0.00  0.00    +0.000 C 
ATOM     13  C   UNL     1     -35.466  26.254   1.692  0.00  0.00    +0.029 C 
ATOM     14  C   UNL     1     -36.114  24.700   5.243  0.00  0.00    +0.002 C 
ATOM     15  C   UNL     1     -36.436  20.921   0.772  0.00  0.00    +0.000 C 
ATOM     16  C   UNL     1     -34.209  26.478   3.893  0.00  0.00    +0.029 C 
ATOM     17  C   UNL     1     -37.628  24.663   3.280  0.00  0.00    +0.000 C 
ATOM     18  C   UNL     1     -34.758  25.016   5.860  0.00  0.00    +0.029 C 
ATOM     19  C   UNL     1     -34.270  26.388   5.415  0.00  0.00    +0.111 C 
ENDROOT
BRANCH  10  20
ATOM     20  O   UNL     1     -33.335  25.193   1.227  0.00  0.00    -0.384 OA
ATOM     21  H   UNL     1     -32.864  24.695   0.540  0.00  0.00    +0.210 HD
ENDBRANCH  10  20
BRANCH  19  22
ATOM     22  O   UNL     1     -32.974  26.608   5.962  0.00  0.00    -0.384 OA
ATOM     23  H   UNL     1     -32.747  27.548   5.887  0.00  0.00    +0.210 HD
ENDBRANCH  19  22
BRANCH   6  24
ATOM     24  C   UNL     1     -34.347  18.814   0.344  0.00  0.00    +0.000 C 
ATOM     25  C   UNL     1     -33.287  17.930   1.010  0.00  0.00    +0.000 C 
BRANCH  24  26
ATOM     26  C   UNL     1     -34.531  18.474  -1.151  0.00  0.00    +0.002 C 
BRANCH  26  27
ATOM     27  C   UNL     1     -35.975  18.139  -1.533  0.00  0.00    +0.026 C 
BRANCH  27  28
ATOM     28  C   UNL     1     -36.714  17.489  -0.371  0.00  0.00    +0.158 C 
BRANCH  28  29
ATOM     29  S   UNL     1     -36.887  15.750  -0.612  0.00  0.00    +0.023 S 
ATOM     30  O   UNL     1     -38.165  15.448   0.032  0.00  0.00    -0.069 OA
ATOM     31  O   UNL     1     -36.882  15.612  -2.067  0.00  0.00    -0.069 OA
ATOM     32  O   UNL     1     -35.712  15.201   0.064  0.00  0.00    -0.069 OA
ENDBRANCH  28  29
ENDBRANCH  27  28
ENDBRANCH  26  27
ENDBRANCH  24  26
ENDBRANCH   6  24
TORSDOF 7
ENDMDL
MODEL 6
REMARK VINA RESULT:      -6.1      4.958      8.067
REMARK  Name = 21121406
REMARK  7 active torsions:
REMARK  status: ('A' for Active; 'I' for Inactive)
REMARK    1  A    between atoms: C_6  and  C_24
REMARK    2  A    between atoms: C_10  and  O_20
REMARK    3  A    between atoms: C_19  and  O_22
REMARK    4  A    between atoms: C_24  and  C_26
REMARK    5  A    between atoms: C_26  and  C_27
REMARK    6  A    between atoms: C_27  and  C_28
REMARK    7  A    between atoms: C_28  and  S_29
REMARK                            x       y       z     vdW  Elec       q    Type
REMARK                         _______ _______ _______ _____ _____    ______ ____
ROOT
ATOM      1  C   UNL     1     -39.324  23.742   1.667  0.00  0.00    +0.002 C 
ATOM      2  C   UNL     1     -39.656  25.222   1.953  0.00  0.00    +0.000 C 
ATOM      3  C   UNL     1     -37.814  23.468   1.586  0.00  0.00    +0.027 C 
ATOM      4  C   UNL     1     -37.161  23.865   2.954  0.00  0.00    +0.002 C 
ATOM      5  C   UNL     1     -35.605  23.613   2.951  0.00  0.00    +0.000 C 
ATOM      6  C   UNL     1     -41.202  25.144   1.900  0.00  0.00    +0.000 C 
ATOM      7  C   UNL     1     -35.324  22.116   2.590  0.00  0.00    +0.005 C 
ATOM      8  C   UNL     1     -39.079  25.569   3.331  0.00  0.00    +0.000 C 
ATOM      9  C   UNL     1     -37.566  25.299   3.397  0.00  0.00    +0.000 C 
ATOM     10  C   UNL     1     -37.503  22.010   1.200  0.00  0.00    +0.110 C 
ATOM     11  C   UNL     1     -40.198  23.406   0.462  0.00  0.00    +0.000 C 
ATOM     12  C   UNL     1     -41.479  24.229   0.685  0.00  0.00    +0.000 C 
ATOM     13  C   UNL     1     -36.007  21.691   1.275  0.00  0.00    +0.029 C 
ATOM     14  C   UNL     1     -34.944  23.927   4.326  0.00  0.00    +0.002 C 
ATOM     15  C   UNL     1     -39.112  26.213   0.894  0.00  0.00    +0.000 C 
ATOM     16  C   UNL     1     -35.672  21.146   3.738  0.00  0.00    +0.029 C 
ATOM     17  C   UNL     1     -34.890  24.529   1.922  0.00  0.00    +0.000 C 
ATOM     18  C   UNL     1     -35.334  22.963   5.438  0.00  0.00    +0.029 C 
ATOM     19  C   UNL     1     -34.998  21.529   5.052  0.00  0.00    +0.111 C 
ENDROOT
BRANCH  10  20
ATOM     20  O   UNL     1     -38.239  21.110   2.026  0.00  0.00    -0.384 OA
ATOM     21  H   UNL     1     -38.008  20.197   1.794  0.00  0.00    +0.210 HD
ENDBRANCH  10  20
BRANCH  19  22
ATOM     22  O   UNL     1     -35.442  20.663   6.090  0.00  0.00    -0.384 OA
ATOM     23  H   UNL     1     -34.697  20.450   6.675  0.00  0.00    +0.210 HD
ENDBRANCH  19  22
BRANCH   6  24
ATOM     24  C   UNL     1     -41.949  26.467   1.827  0.00  0.00    +0.000 C 
ATOM     25  C   UNL     1     -42.485  26.843   3.213  0.00  0.00    +0.000 C 
BRANCH  24  26
ATOM     26  C   UNL     1     -43.073  26.385   0.772  0.00  0.00    +0.002 C 
BRANCH  26  27
ATOM     27  C   UNL     1     -44.468  26.670   1.333  0.00  0.00    +0.026 C 
BRANCH  27  28
ATOM     28  C   UNL     1     -45.532  25.876   0.589  0.00  0.00    +0.158 C 
BRANCH  28  29
ATOM     29  S   UNL     1     -45.921  24.376   1.431  0.00  0.00    +0.023 S 
ATOM     30  O   UNL     1     -47.329  24.161   1.100  0.00  0.00    -0.069 OA
ATOM     31  O   UNL     1     -44.995  23.411   0.842  0.00  0.00    -0.069 OA
ATOM     32  O   UNL     1     -45.662  24.703   2.833  0.00  0.00    -0.069 OA
ENDBRANCH  28  29
ENDBRANCH  27  28
ENDBRANCH  26  27
ENDBRANCH  24  26
ENDBRANCH   6  24
TORSDOF 7
ENDMDL
MODEL 7
REMARK VINA RESULT:      -6.0      5.091      9.898
REMARK  Name = 21121406
REMARK  7 active torsions:
REMARK  status: ('A' for Active; 'I' for Inactive)
REMARK    1  A    between atoms: C_6  and  C_24
REMARK    2  A    between atoms: C_10  and  O_20
REMARK    3  A    between atoms: C_19  and  O_22
REMARK    4  A    between atoms: C_24  and  C_26
REMARK    5  A    between atoms: C_26  and  C_27
REMARK    6  A    between atoms: C_27  and  C_28
REMARK    7  A    between atoms: C_28  and  S_29
REMARK                            x       y       z     vdW  Elec       q    Type
REMARK                         _______ _______ _______ _____ _____    ______ ____
ROOT
ATOM      1  C   UNL     1     -32.946  26.111   3.574  0.00  0.00    +0.002 C 
ATOM      2  C   UNL     1     -34.102  25.950   4.585  0.00  0.00    +0.000 C 
ATOM      3  C   UNL     1     -32.375  27.537   3.534  0.00  0.00    +0.027 C 
ATOM      4  C   UNL     1     -31.838  27.900   4.961  0.00  0.00    +0.002 C 
ATOM      5  C   UNL     1     -31.232  29.355   5.003  0.00  0.00    +0.000 C 
ATOM      6  C   UNL     1     -34.462  24.468   4.316  0.00  0.00    +0.000 C 
ATOM      7  C   UNL     1     -30.114  29.482   3.916  0.00  0.00    +0.005 C 
ATOM      8  C   UNL     1     -33.537  26.229   5.984  0.00  0.00    +0.000 C 
ATOM      9  C   UNL     1     -32.894  27.624   6.067  0.00  0.00    +0.000 C 
ATOM     10  C   UNL     1     -31.293  27.705   2.451  0.00  0.00    +0.110 C 
ATOM     11  C   UNL     1     -33.507  25.508   2.290  0.00  0.00    +0.000 C 
ATOM     12  C   UNL     1     -34.399  24.351   2.775  0.00  0.00    +0.000 C 
ATOM     13  C   UNL     1     -30.609  29.074   2.514  0.00  0.00    +0.029 C 
ATOM     14  C   UNL     1     -30.621  29.710   6.391  0.00  0.00    +0.002 C 
ATOM     15  C   UNL     1     -35.315  26.875   4.316  0.00  0.00    +0.000 C 
ATOM     16  C   UNL     1     -28.822  28.727   4.292  0.00  0.00    +0.029 C 
ATOM     17  C   UNL     1     -32.326  30.425   4.739  0.00  0.00    +0.000 C 
ATOM     18  C   UNL     1     -29.363  28.924   6.736  0.00  0.00    +0.029 C 
ATOM     19  C   UNL     1     -28.296  29.120   5.668  0.00  0.00    +0.111 C 
ENDROOT
BRANCH  10  20
ATOM     20  O   UNL     1     -30.323  26.666   2.553  0.00  0.00    -0.384 OA
ATOM     21  H   UNL     1     -30.543  25.956   1.928  0.00  0.00    +0.210 HD
ENDBRANCH  10  20
BRANCH  19  22
ATOM     22  O   UNL     1     -27.169  28.315   6.000  0.00  0.00    -0.384 OA
ATOM     23  H   UNL     1     -27.463  27.411   6.194  0.00  0.00    +0.210 HD
ENDBRANCH  19  22
BRANCH   6  24
ATOM     24  C   UNL     1     -35.777  23.970   4.895  0.00  0.00    +0.000 C 
ATOM     25  C   UNL     1     -35.524  22.774   5.819  0.00  0.00    +0.000 C 
BRANCH  24  26
ATOM     26  C   UNL     1     -36.762  23.628   3.757  0.00  0.00    +0.002 C 
BRANCH  26  27
ATOM     27  C   UNL     1     -37.975  24.561   3.690  0.00  0.00    +0.026 C 
BRANCH  27  28
ATOM     28  C   UNL     1     -38.586  24.567   2.296  0.00  0.00    +0.158 C 
BRANCH  28  29
ATOM     29  S   UNL     1     -39.194  26.167   1.868  0.00  0.00    +0.023 S 
ATOM     30  O   UNL     1     -40.104  26.485   2.967  0.00  0.00    -0.069 OA
ATOM     31  O   UNL     1     -37.981  26.982   1.817  0.00  0.00    -0.069 OA
ATOM     32  O   UNL     1     -39.841  25.944   0.576  0.00  0.00    -0.069 OA
ENDBRANCH  28  29
ENDBRANCH  27  28
ENDBRANCH  26  27
ENDBRANCH  24  26
ENDBRANCH   6  24
TORSDOF 7
ENDMDL
MODEL 8
REMARK VINA RESULT:      -5.9      3.939      7.929
REMARK  Name = 21121406
REMARK  7 active torsions:
REMARK  status: ('A' for Active; 'I' for Inactive)
REMARK    1  A    between atoms: C_6  and  C_24
REMARK    2  A    between atoms: C_10  and  O_20
REMARK    3  A    between atoms: C_19  and  O_22
REMARK    4  A    between atoms: C_24  and  C_26
REMARK    5  A    between atoms: C_26  and  C_27
REMARK    6  A    between atoms: C_27  and  C_28
REMARK    7  A    between atoms: C_28  and  S_29
REMARK                            x       y       z     vdW  Elec       q    Type
REMARK                         _______ _______ _______ _____ _____    ______ ____
ROOT
ATOM      1  C   UNL     1     -35.249  21.351   1.385  0.00  0.00    +0.002 C 
ATOM      2  C   UNL     1     -34.569  21.467   0.003  0.00  0.00    +0.000 C 
ATOM      3  C   UNL     1     -34.933  22.535   2.313  0.00  0.00    +0.027 C 
ATOM      4  C   UNL     1     -35.430  23.853   1.628  0.00  0.00    +0.002 C 
ATOM      5  C   UNL     1     -35.140  25.119   2.522  0.00  0.00    +0.000 C 
ATOM      6  C   UNL     1     -35.035  20.127  -0.615  0.00  0.00    +0.000 C 
ATOM      7  C   UNL     1     -35.793  24.918   3.930  0.00  0.00    +0.005 C 
ATOM      8  C   UNL     1     -35.129  22.719  -0.685  0.00  0.00    +0.000 C 
ATOM      9  C   UNL     1     -34.911  23.981   0.169  0.00  0.00    +0.000 C 
ATOM     10  C   UNL     1     -35.535  22.352   3.719  0.00  0.00    +0.110 C 
ATOM     11  C   UNL     1     -34.889  19.941   1.843  0.00  0.00    +0.000 C 
ATOM     12  C   UNL     1     -34.876  19.115   0.544  0.00  0.00    +0.000 C 
ATOM     13  C   UNL     1     -35.361  23.596   4.596  0.00  0.00    +0.029 C 
ATOM     14  C   UNL     1     -35.694  26.434   1.898  0.00  0.00    +0.002 C 
ATOM     15  C   UNL     1     -33.024  21.549   0.060  0.00  0.00    +0.000 C 
ATOM     16  C   UNL     1     -37.330  25.051   3.903  0.00  0.00    +0.029 C 
ATOM     17  C   UNL     1     -33.614  25.346   2.695  0.00  0.00    +0.000 C 
ATOM     18  C   UNL     1     -37.215  26.514   1.865  0.00  0.00    +0.029 C 
ATOM     19  C   UNL     1     -37.793  26.357   3.265  0.00  0.00    +0.111 C 
ENDROOT
BRANCH  10  20
ATOM     20  O   UNL     1     -36.914  22.006   3.627  0.00  0.00    -0.384 OA
ATOM     21  H   UNL     1     -37.457  22.795   3.786  0.00  0.00    +0.210 HD
ENDBRANCH  10  20
BRANCH  19  22
ATOM     22  O   UNL     1     -39.213  26.371   3.174  0.00  0.00    -0.384 OA
ATOM     23  H   UNL     1     -39.479  26.756   2.324  0.00  0.00    +0.210 HD
ENDBRANCH  19  22
BRANCH   6  24
ATOM     24  C   UNL     1     -34.331  19.683  -1.889  0.00  0.00    +0.000 C 
ATOM     25  C   UNL     1     -35.262  19.864  -3.093  0.00  0.00    +0.000 C 
BRANCH  24  26
ATOM     26  C   UNL     1     -33.843  18.226  -1.746  0.00  0.00    +0.002 C 
BRANCH  26  27
ATOM     27  C   UNL     1     -32.319  18.089  -1.684  0.00  0.00    +0.026 C 
BRANCH  27  28
ATOM     28  C   UNL     1     -31.903  17.036  -0.667  0.00  0.00    +0.158 C 
BRANCH  28  29
ATOM     29  S   UNL     1     -30.967  17.747   0.648  0.00  0.00    +0.023 S 
ATOM     30  O   UNL     1     -31.918  17.777   1.758  0.00  0.00    -0.069 OA
ATOM     31  O   UNL     1     -29.857  16.810   0.812  0.00  0.00    -0.069 OA
ATOM     32  O   UNL     1     -30.594  19.059   0.121  0.00  0.00    -0.069 OA
ENDBRANCH  28  29
ENDBRANCH  27  28
ENDBRANCH  26  27
ENDBRANCH  24  26
ENDBRANCH   6  24
TORSDOF 7
ENDMDL
MODEL 9
REMARK VINA RESULT:      -5.8      4.243     10.356
REMARK  Name = 21121406
REMARK  7 active torsions:
REMARK  status: ('A' for Active; 'I' for Inactive)
REMARK    1  A    between atoms: C_6  and  C_24
REMARK    2  A    between atoms: C_10  and  O_20
REMARK    3  A    between atoms: C_19  and  O_22
REMARK    4  A    between atoms: C_24  and  C_26
REMARK    5  A    between atoms: C_26  and  C_27
REMARK    6  A    between atoms: C_27  and  C_28
REMARK    7  A    between atoms: C_28  and  S_29
REMARK                            x       y       z     vdW  Elec       q    Type
REMARK                         _______ _______ _______ _____ _____    ______ ____
ROOT
ATOM      1  C   UNL     1     -33.404  27.673   4.643  0.00  0.00    +0.002 C 
ATOM      2  C   UNL     1     -34.107  26.721   3.651  0.00  0.00    +0.000 C 
ATOM      3  C   UNL     1     -32.173  28.369   4.041  0.00  0.00    +0.027 C 
ATOM      4  C   UNL     1     -32.630  29.202   2.795  0.00  0.00    +0.002 C 
ATOM      5  C   UNL     1     -31.419  29.949   2.118  0.00  0.00    +0.000 C 
ATOM      6  C   UNL     1     -35.214  26.167   4.581  0.00  0.00    +0.000 C 
ATOM      7  C   UNL     1     -30.704  30.846   3.182  0.00  0.00    +0.005 C 
ATOM      8  C   UNL     1     -34.619  27.568   2.479  0.00  0.00    +0.000 C 
ATOM      9  C   UNL     1     -33.479  28.354   1.808  0.00  0.00    +0.000 C 
ATOM     10  C   UNL     1     -31.427  29.235   5.073  0.00  0.00    +0.110 C 
ATOM     11  C   UNL     1     -33.227  26.819   5.895  0.00  0.00    +0.000 C 
ATOM     12  C   UNL     1     -34.478  25.923   5.920  0.00  0.00    +0.000 C 
ATOM     13  C   UNL     1     -30.297  30.054   4.441  0.00  0.00    +0.029 C 
ATOM     14  C   UNL     1     -31.860  30.847   0.924  0.00  0.00    +0.002 C 
ATOM     15  C   UNL     1     -33.205  25.579   3.118  0.00  0.00    +0.000 C 
ATOM     16  C   UNL     1     -31.519  32.102   3.554  0.00  0.00    +0.029 C 
ATOM     17  C   UNL     1     -30.396  28.940   1.530  0.00  0.00    +0.000 C 
ATOM     18  C   UNL     1     -32.684  32.061   1.330  0.00  0.00    +0.029 C 
ATOM     19  C   UNL     1     -31.923  32.919   2.331  0.00  0.00    +0.111 C 
ENDROOT
BRANCH  10  20
ATOM     20  O   UNL     1     -32.339  30.095   5.750  0.00  0.00    -0.384 OA
ATOM     21  H   UNL     1     -32.912  29.567   6.328  0.00  0.00    +0.210 HD
ENDBRANCH  10  20
BRANCH  19  22
ATOM     22  O   UNL     1     -32.759  34.000   2.730  0.00  0.00    -0.384 OA
ATOM     23  H   UNL     1     -33.181  33.787   3.577  0.00  0.00    +0.210 HD
ENDBRANCH  19  22
BRANCH   6  24
ATOM     24  C   UNL     1     -35.970  24.943   4.089  0.00  0.00    +0.000 C 
ATOM     25  C   UNL     1     -37.417  25.319   3.754  0.00  0.00    +0.000 C 
BRANCH  24  26
ATOM     26  C   UNL     1     -35.890  23.812   5.137  0.00  0.00    +0.002 C 
BRANCH  26  27
ATOM     27  C   UNL     1     -35.555  22.442   4.541  0.00  0.00    +0.026 C 
BRANCH  27  28
ATOM     28  C   UNL     1     -35.326  22.537   3.040  0.00  0.00    +0.158 C 
BRANCH  28  29
ATOM     29  S   UNL     1     -36.458  21.518   2.151  0.00  0.00    +0.023 S 
ATOM     30  O   UNL     1     -36.122  20.169   2.605  0.00  0.00    -0.069 OA
ATOM     31  O   UNL     1     -37.763  22.009   2.588  0.00  0.00    -0.069 OA
ATOM     32  O   UNL     1     -36.131  21.796   0.753  0.00  0.00    -0.069 OA
ENDBRANCH  28  29
ENDBRANCH  27  28
ENDBRANCH  26  27
ENDBRANCH  24  26
ENDBRANCH   6  24
TORSDOF 7
ENDMDL
