MODEL 1
REMARK VINA RESULT:      -6.1      0.000      0.000
REMARK  Name = 53327671
REMARK  8 active torsions:
REMARK  status: ('A' for Active; 'I' for Inactive)
REMARK    1  A    between atoms: C_5  and  C_17
REMARK    2  A    between atoms: C_9  and  O_14
REMARK    3  A    between atoms: C_17  and  S_18
REMARK    4  A    between atoms: S_18  and  C_19
REMARK    5  A    between atoms: C_19  and  C_20
REMARK    6  A    between atoms: C_20  and  N_22
REMARK    7  A    between atoms: C_20  and  C_27
REMARK    8  A    between atoms: C_27  and  O_28
REMARK                            x       y       z     vdW  Elec       q    Type
REMARK                         _______ _______ _______ _____ _____    ______ ____
ROOT
ATOM      1  O   UNK A   1     -36.777  25.127   4.335  0.00  0.00    -0.448 OA
ATOM      2  O   UNK A   1     -35.430  21.756   4.596  0.00  0.00    -0.266 OA
ATOM      3  N   UNK A   1     -37.220  22.516   3.391  0.00  0.00    -0.275 N 
ATOM      4  C   UNK A   1     -38.049  23.569   2.995  0.00  0.00    +0.089 C 
ATOM      5  C   UNK A   1     -39.112  23.333   2.122  0.00  0.00    +0.065 C 
ATOM      6  C   UNK A   1     -37.808  24.851   3.477  0.00  0.00    +0.162 C 
ATOM      7  C   UNK A   1     -39.934  24.392   1.733  0.00  0.00    +0.042 C 
ATOM      8  C   UNK A   1     -38.628  25.909   3.089  0.00  0.00    +0.076 C 
ATOM      9  C   UNK A   1     -39.691  25.679   2.217  0.00  0.00    +0.142 C 
ATOM     10  C   UNK A   1     -36.157  22.684   4.249  0.00  0.00    +0.284 C 
ATOM     11  C   UNK A   1     -35.951  24.085   4.731  0.00  0.00    +0.199 C 
ATOM     12  C   UNK A   1     -34.936  24.328   5.570  0.00  0.00    +0.046 C 
ATOM     13  H   UNK A   1     -37.404  21.614   3.041  0.00  0.00    +0.155 HD
ENDROOT
BRANCH   9  14
ATOM     14  O   UNK A   1     -40.495  26.711   1.836  0.00  0.00    -0.471 OA
ATOM     15  C   UNK A   1     -41.791  26.774   2.426  0.00  0.00    +0.252 C 
ENDBRANCH   9  14
BRANCH   5  17
ATOM     16  O   UNK A   1     -39.963  21.144   2.281  0.00  0.00    -0.280 OA
ATOM     17  C   UNK A   1     -39.406  22.008   1.590  0.00  0.00    +0.223 C 
BRANCH  17  18
ATOM     18  S   UNK A   1     -38.982  21.666  -0.100  0.00  0.00    -0.070 S 
BRANCH  18  19
ATOM     19  C   UNK A   1     -37.184  21.522   0.003  0.00  0.00    +0.096 C 
BRANCH  19  20
ATOM     20  C   UNK A   1     -36.692  20.090   0.224  0.00  0.00    +0.183 C 
BRANCH  20  22
ATOM     21  O   UNK A   0     -36.366  17.486  -1.018  0.00  0.00    -0.275 OA
ATOM     22  N   UNK A   1     -37.719  19.117  -0.055  0.00  0.00    -0.296 N 
ATOM     23  C   UNK A   0     -37.465  17.893  -0.654  0.00  0.00    +0.223 C 
ATOM     24  C   UNK A   0     -38.711  17.061  -0.806  0.00  0.00    +0.095 C 
ATOM     25  H   UNK A   1     -38.647  19.333   0.193  0.00  0.00    +0.150 HD
ENDBRANCH  20  22
BRANCH  20  27
ATOM     26  O   UNK A   1     -34.877  19.872   1.818  0.00  0.00    -0.248 OA
ATOM     27  C   UNK A   1     -36.084  19.895   1.602  0.00  0.00    +0.333 C 
BRANCH  27  28
ATOM     28  O   UNK A   1     -37.010  19.731   2.578  0.00  0.00    -0.479 OA
ATOM     29  H   UNK A   1     -37.916  19.655   2.355  0.00  0.00    +0.295 HD
ENDBRANCH  27  28
ENDBRANCH  20  27
ENDBRANCH  19  20
ENDBRANCH  18  19
ENDBRANCH  17  18
ENDBRANCH   5  17
TORSDOF 8
ENDMDL
MODEL 2
REMARK VINA RESULT:      -6.0      2.665      7.233
REMARK  Name = 53327671
REMARK  8 active torsions:
REMARK  status: ('A' for Active; 'I' for Inactive)
REMARK    1  A    between atoms: C_5  and  C_17
REMARK    2  A    between atoms: C_9  and  O_14
REMARK    3  A    between atoms: C_17  and  S_18
REMARK    4  A    between atoms: S_18  and  C_19
REMARK    5  A    between atoms: C_19  and  C_20
REMARK    6  A    between atoms: C_20  and  N_22
REMARK    7  A    between atoms: C_20  and  C_27
REMARK    8  A    between atoms: C_27  and  O_28
REMARK                            x       y       z     vdW  Elec       q    Type
REMARK                         _______ _______ _______ _____ _____    ______ ____
ROOT
ATOM      1  O   UNK A   1     -34.413  16.826  -0.583  0.00  0.00    -0.448 OA
ATOM      2  O   UNK A   1     -31.604  17.648   1.580  0.00  0.00    -0.266 OA
ATOM      3  N   UNK A   1     -33.622  18.701   1.357  0.00  0.00    -0.275 N 
ATOM      4  C   UNK A   1     -34.879  18.785   0.754  0.00  0.00    +0.089 C 
ATOM      5  C   UNK A   1     -35.761  19.806   1.110  0.00  0.00    +0.065 C 
ATOM      6  C   UNK A   1     -35.246  17.844  -0.203  0.00  0.00    +0.162 C 
ATOM      7  C   UNK A   1     -37.015  19.880   0.501  0.00  0.00    +0.042 C 
ATOM      8  C   UNK A   1     -36.498  17.917  -0.812  0.00  0.00    +0.076 C 
ATOM      9  C   UNK A   1     -37.382  18.936  -0.459  0.00  0.00    +0.142 C 
ATOM     10  C   UNK A   1     -32.709  17.718   1.048  0.00  0.00    +0.284 C 
ATOM     11  C   UNK A   1     -33.163  16.738   0.013  0.00  0.00    +0.199 C 
ATOM     12  C   UNK A   1     -32.329  15.753  -0.341  0.00  0.00    +0.046 C 
ATOM     13  H   UNK A   1     -33.378  19.375   2.033  0.00  0.00    +0.155 HD
ENDROOT
BRANCH   9  14
ATOM     14  O   UNK A   1     -38.606  19.010  -1.052  0.00  0.00    -0.471 OA
ATOM     15  C   UNK A   1     -38.832  20.106  -1.936  0.00  0.00    +0.252 C 
ENDBRANCH   9  14
BRANCH   5  17
ATOM     16  O   UNK A   1     -35.276  20.518   3.301  0.00  0.00    -0.280 OA
ATOM     17  C   UNK A   1     -35.424  20.815   2.108  0.00  0.00    +0.223 C 
BRANCH  17  18
ATOM     18  S   UNK A   1     -35.185  22.489   1.565  0.00  0.00    -0.070 S 
BRANCH  18  19
ATOM     19  C   UNK A   1     -36.741  23.255   2.066  0.00  0.00    +0.096 C 
BRANCH  19  20
ATOM     20  C   UNK A   1     -36.678  23.943   3.432  0.00  0.00    +0.183 C 
BRANCH  20  22
ATOM     21  O   UNK A   0     -34.810  24.196   5.640  0.00  0.00    -0.275 OA
ATOM     22  N   UNK A   1     -36.450  23.001   4.501  0.00  0.00    -0.296 N 
ATOM     23  C   UNK A   0     -35.532  23.211   5.517  0.00  0.00    +0.223 C 
ATOM     24  C   UNK A   0     -35.514  22.083   6.514  0.00  0.00    +0.095 C 
ATOM     25  H   UNK A   1     -36.975  22.168   4.508  0.00  0.00    +0.150 HD
ENDBRANCH  20  22
BRANCH  20  27
ATOM     26  O   UNK A   1     -39.049  24.431   3.575  0.00  0.00    -0.248 OA
ATOM     27  C   UNK A   1     -37.892  24.817   3.695  0.00  0.00    +0.333 C 
BRANCH  27  28
ATOM     28  O   UNK A   1     -37.572  26.081   4.064  0.00  0.00    -0.479 OA
ATOM     29  H   UNK A   1     -38.249  26.712   4.208  0.00  0.00    +0.295 HD
ENDBRANCH  27  28
ENDBRANCH  20  27
ENDBRANCH  19  20
ENDBRANCH  18  19
ENDBRANCH  17  18
ENDBRANCH   5  17
TORSDOF 8
ENDMDL
MODEL 3
REMARK VINA RESULT:      -5.9      3.166      7.398
REMARK  Name = 53327671
REMARK  8 active torsions:
REMARK  status: ('A' for Active; 'I' for Inactive)
REMARK    1  A    between atoms: C_5  and  C_17
REMARK    2  A    between atoms: C_9  and  O_14
REMARK    3  A    between atoms: C_17  and  S_18
REMARK    4  A    between atoms: S_18  and  C_19
REMARK    5  A    between atoms: C_19  and  C_20
REMARK    6  A    between atoms: C_20  and  N_22
REMARK    7  A    between atoms: C_20  and  C_27
REMARK    8  A    between atoms: C_27  and  O_28
REMARK                            x       y       z     vdW  Elec       q    Type
REMARK                         _______ _______ _______ _____ _____    ______ ____
ROOT
ATOM      1  O   UNK A   1     -39.141  22.573   1.354  0.00  0.00    -0.448 OA
ATOM      2  O   UNK A   1     -39.969  25.529   3.309  0.00  0.00    -0.266 OA
ATOM      3  N   UNK A   1     -38.151  24.149   3.462  0.00  0.00    -0.275 N 
ATOM      4  C   UNK A   1     -37.445  23.029   3.015  0.00  0.00    +0.089 C 
ATOM      5  C   UNK A   1     -36.234  22.680   3.614  0.00  0.00    +0.065 C 
ATOM      6  C   UNK A   1     -37.957  22.267   1.970  0.00  0.00    +0.162 C 
ATOM      7  C   UNK A   1     -35.537  21.559   3.159  0.00  0.00    +0.042 C 
ATOM      8  C   UNK A   1     -37.262  21.148   1.515  0.00  0.00    +0.076 C 
ATOM      9  C   UNK A   1     -36.051  20.795   2.110  0.00  0.00    +0.142 C 
ATOM     10  C   UNK A   1     -39.351  24.544   2.913  0.00  0.00    +0.284 C 
ATOM     11  C   UNK A   1     -39.846  23.684   1.794  0.00  0.00    +0.199 C 
ATOM     12  C   UNK A   1     -41.007  24.005   1.210  0.00  0.00    +0.046 C 
ATOM     13  H   UNK A   1     -37.775  24.678   4.203  0.00  0.00    +0.155 HD
ENDROOT
BRANCH   9  14
ATOM     14  O   UNK A   1     -35.369  19.702   1.668  0.00  0.00    -0.471 OA
ATOM     15  C   UNK A   1     -34.048  19.919   1.174  0.00  0.00    +0.252 C 
ENDBRANCH   9  14
BRANCH   5  17
ATOM     16  O   UNK A   1     -36.030  23.281   5.880  0.00  0.00    -0.280 OA
ATOM     17  C   UNK A   1     -35.656  23.447   4.711  0.00  0.00    +0.223 C 
BRANCH  17  18
ATOM     18  S   UNK A   1     -34.363  24.605   4.340  0.00  0.00    -0.070 S 
BRANCH  18  19
ATOM     19  C   UNK A   1     -35.246  26.176   4.448  0.00  0.00    +0.096 C 
BRANCH  19  20
ATOM     20  C   UNK A   1     -35.241  26.978   3.144  0.00  0.00    +0.183 C 
BRANCH  20  22
ATOM     21  O   UNK A   0     -33.652  29.067   1.903  0.00  0.00    -0.275 OA
ATOM     22  N   UNK A   1     -35.319  28.398   3.383  0.00  0.00    -0.296 N 
ATOM     23  C   UNK A   0     -34.514  29.324   2.738  0.00  0.00    +0.223 C 
ATOM     24  C   UNK A   0     -34.821  30.738   3.155  0.00  0.00    +0.095 C 
ATOM     25  H   UNK A   1     -35.979  28.726   4.036  0.00  0.00    +0.150 HD
ENDBRANCH  20  22
BRANCH  20  27
ATOM     26  O   UNK A   1     -36.125  25.637   1.326  0.00  0.00    -0.248 OA
ATOM     27  C   UNK A   1     -36.308  26.506   2.171  0.00  0.00    +0.333 C 
BRANCH  27  28
ATOM     28  O   UNK A   1     -37.490  27.153   2.317  0.00  0.00    -0.479 OA
ATOM     29  H   UNK A   1     -38.273  26.666   2.479  0.00  0.00    +0.295 HD
ENDBRANCH  27  28
ENDBRANCH  20  27
ENDBRANCH  19  20
ENDBRANCH  18  19
ENDBRANCH  17  18
ENDBRANCH   5  17
TORSDOF 8
ENDMDL
MODEL 4
REMARK VINA RESULT:      -5.9      2.398      7.998
REMARK  Name = 53327671
REMARK  8 active torsions:
REMARK  status: ('A' for Active; 'I' for Inactive)
REMARK    1  A    between atoms: C_5  and  C_17
REMARK    2  A    between atoms: C_9  and  O_14
REMARK    3  A    between atoms: C_17  and  S_18
REMARK    4  A    between atoms: S_18  and  C_19
REMARK    5  A    between atoms: C_19  and  C_20
REMARK    6  A    between atoms: C_20  and  N_22
REMARK    7  A    between atoms: C_20  and  C_27
REMARK    8  A    between atoms: C_27  and  O_28
REMARK                            x       y       z     vdW  Elec       q    Type
REMARK                         _______ _______ _______ _____ _____    ______ ____
ROOT
ATOM      1  O   UNK A   1     -35.979  17.053  -1.276  0.00  0.00    -0.448 OA
ATOM      2  O   UNK A   1     -39.186  18.690  -0.745  0.00  0.00    -0.266 OA
ATOM      3  N   UNK A   1     -37.158  19.117   0.225  0.00  0.00    -0.275 N 
ATOM      4  C   UNK A   1     -35.799  18.824   0.358  0.00  0.00    +0.089 C 
ATOM      5  C   UNK A   1     -35.007  19.558   1.244  0.00  0.00    +0.065 C 
ATOM      6  C   UNK A   1     -35.240  17.798  -0.397  0.00  0.00    +0.162 C 
ATOM      7  C   UNK A   1     -33.650  19.256   1.369  0.00  0.00    +0.042 C 
ATOM      8  C   UNK A   1     -33.885  17.496  -0.272  0.00  0.00    +0.076 C 
ATOM      9  C   UNK A   1     -33.091  18.226   0.611  0.00  0.00    +0.142 C 
ATOM     10  C   UNK A   1     -37.990  18.430  -0.630  0.00  0.00    +0.284 C 
ATOM     11  C   UNK A   1     -37.329  17.339  -1.412  0.00  0.00    +0.199 C 
ATOM     12  C   UNK A   1     -38.074  16.626  -2.265  0.00  0.00    +0.046 C 
ATOM     13  H   UNK A   1     -37.538  19.847   0.766  0.00  0.00    +0.155 HD
ENDROOT
BRANCH   9  14
ATOM     14  O   UNK A   1     -31.766  17.934   0.735  0.00  0.00    -0.471 OA
ATOM     15  C   UNK A   1     -30.840  18.904   0.248  0.00  0.00    +0.252 C 
ENDBRANCH   9  14
BRANCH   5  17
ATOM     16  O   UNK A   1     -36.210  20.415   3.076  0.00  0.00    -0.280 OA
ATOM     17  C   UNK A   1     -35.546  20.643   2.056  0.00  0.00    +0.223 C 
BRANCH  17  18
ATOM     18  S   UNK A   1     -35.191  22.313   1.571  0.00  0.00    -0.070 S 
BRANCH  18  19
ATOM     19  C   UNK A   1     -36.710  23.159   2.060  0.00  0.00    +0.096 C 
BRANCH  19  20
ATOM     20  C   UNK A   1     -36.611  23.871   3.411  0.00  0.00    +0.183 C 
BRANCH  20  22
ATOM     21  O   UNK A   0     -34.677  24.096   5.565  0.00  0.00    -0.275 OA
ATOM     22  N   UNK A   1     -36.395  22.945   4.495  0.00  0.00    -0.296 N 
ATOM     23  C   UNK A   0     -35.442  23.139   5.483  0.00  0.00    +0.223 C 
ATOM     24  C   UNK A   0     -35.444  22.033   6.505  0.00  0.00    +0.095 C 
ATOM     25  H   UNK A   1     -36.953  22.135   4.536  0.00  0.00    +0.150 HD
ENDBRANCH  20  22
BRANCH  20  27
ATOM     26  O   UNK A   1     -38.965  24.447   3.505  0.00  0.00    -0.248 OA
ATOM     27  C   UNK A   1     -37.798  24.783   3.672  0.00  0.00    +0.333 C 
BRANCH  27  28
ATOM     28  O   UNK A   1     -37.441  26.020   4.096  0.00  0.00    -0.479 OA
ATOM     29  H   UNK A   1     -36.536  26.249   4.158  0.00  0.00    +0.295 HD
ENDBRANCH  27  28
ENDBRANCH  20  27
ENDBRANCH  19  20
ENDBRANCH  18  19
ENDBRANCH  17  18
ENDBRANCH   5  17
TORSDOF 8
ENDMDL
MODEL 5
REMARK VINA RESULT:      -5.8      3.420      6.038
REMARK  Name = 53327671
REMARK  8 active torsions:
REMARK  status: ('A' for Active; 'I' for Inactive)
REMARK    1  A    between atoms: C_5  and  C_17
REMARK    2  A    between atoms: C_9  and  O_14
REMARK    3  A    between atoms: C_17  and  S_18
REMARK    4  A    between atoms: S_18  and  C_19
REMARK    5  A    between atoms: C_19  and  C_20
REMARK    6  A    between atoms: C_20  and  N_22
REMARK    7  A    between atoms: C_20  and  C_27
REMARK    8  A    between atoms: C_27  and  O_28
REMARK                            x       y       z     vdW  Elec       q    Type
REMARK                         _______ _______ _______ _____ _____    ______ ____
ROOT
ATOM      1  O   UNK A   1     -34.948  28.894   2.103  0.00  0.00    -0.448 OA
ATOM      2  O   UNK A   1     -38.039  27.189   1.215  0.00  0.00    -0.266 OA
ATOM      3  N   UNK A   1     -36.482  26.643   2.799  0.00  0.00    -0.275 N 
ATOM      4  C   UNK A   1     -35.281  26.919   3.457  0.00  0.00    +0.089 C 
ATOM      5  C   UNK A   1     -34.827  26.076   4.472  0.00  0.00    +0.065 C 
ATOM      6  C   UNK A   1     -34.541  28.040   3.092  0.00  0.00    +0.162 C 
ATOM      7  C   UNK A   1     -33.625  26.362   5.121  0.00  0.00    +0.042 C 
ATOM      8  C   UNK A   1     -33.341  28.326   3.741  0.00  0.00    +0.076 C 
ATOM      9  C   UNK A   1     -32.884  27.486   4.756  0.00  0.00    +0.142 C 
ATOM     10  C   UNK A   1     -36.982  27.435   1.791  0.00  0.00    +0.284 C 
ATOM     11  C   UNK A   1     -36.140  28.624   1.447  0.00  0.00    +0.199 C 
ATOM     12  C   UNK A   1     -36.561  29.442   0.475  0.00  0.00    +0.046 C 
ATOM     13  H   UNK A   1     -36.994  25.846   3.069  0.00  0.00    +0.155 HD
ENDROOT
BRANCH   9  14
ATOM     14  O   UNK A   1     -31.711  27.764   5.391  0.00  0.00    -0.471 OA
ATOM     15  C   UNK A   1     -31.715  28.855   6.310  0.00  0.00    +0.252 C 
ENDBRANCH   9  14
BRANCH   5  17
ATOM     16  O   UNK A   1     -36.802  24.893   4.959  0.00  0.00    -0.280 OA
ATOM     17  C   UNK A   1     -35.566  24.890   4.890  0.00  0.00    +0.223 C 
BRANCH  17  18
ATOM     18  S   UNK A   1     -34.651  23.415   5.260  0.00  0.00    -0.070 S 
BRANCH  18  19
ATOM     19  C   UNK A   1     -35.842  22.133   4.815  0.00  0.00    +0.096 C 
BRANCH  19  20
ATOM     20  C   UNK A   1     -36.202  22.115   3.327  0.00  0.00    +0.183 C 
BRANCH  20  22
ATOM     21  O   UNK A   0     -37.310  23.974   1.392  0.00  0.00    -0.275 OA
ATOM     22  N   UNK A   1     -37.593  22.425   3.105  0.00  0.00    -0.296 N 
ATOM     23  C   UNK A   0     -38.028  23.331   2.152  0.00  0.00    +0.223 C 
ATOM     24  C   UNK A   0     -39.529  23.446   2.113  0.00  0.00    +0.095 C 
ATOM     25  H   UNK A   1     -38.267  21.968   3.658  0.00  0.00    +0.150 HD
ENDBRANCH  20  22
BRANCH  20  27
ATOM     26  O   UNK A   1     -34.726  20.661   2.069  0.00  0.00    -0.248 OA
ATOM     27  C   UNK A   1     -35.793  20.819   2.649  0.00  0.00    +0.333 C 
BRANCH  27  28
ATOM     28  O   UNK A   1     -36.736  19.849   2.734  0.00  0.00    -0.479 OA
ATOM     29  H   UNK A   1     -37.538  20.015   3.188  0.00  0.00    +0.295 HD
ENDBRANCH  27  28
ENDBRANCH  20  27
ENDBRANCH  19  20
ENDBRANCH  18  19
ENDBRANCH  17  18
ENDBRANCH   5  17
TORSDOF 8
ENDMDL
MODEL 6
REMARK VINA RESULT:      -5.8      3.542      7.223
REMARK  Name = 53327671
REMARK  8 active torsions:
REMARK  status: ('A' for Active; 'I' for Inactive)
REMARK    1  A    between atoms: C_5  and  C_17
REMARK    2  A    between atoms: C_9  and  O_14
REMARK    3  A    between atoms: C_17  and  S_18
REMARK    4  A    between atoms: S_18  and  C_19
REMARK    5  A    between atoms: C_19  and  C_20
REMARK    6  A    between atoms: C_20  and  N_22
REMARK    7  A    between atoms: C_20  and  C_27
REMARK    8  A    between atoms: C_27  and  O_28
REMARK                            x       y       z     vdW  Elec       q    Type
REMARK                         _______ _______ _______ _____ _____    ______ ____
ROOT
ATOM      1  O   UNK A   1     -37.540  22.080   1.472  0.00  0.00    -0.448 OA
ATOM      2  O   UNK A   1     -34.870  19.982   2.783  0.00  0.00    -0.266 OA
ATOM      3  N   UNK A   1     -35.618  22.014   3.523  0.00  0.00    -0.275 N 
ATOM      4  C   UNK A   1     -36.491  23.097   3.397  0.00  0.00    +0.089 C 
ATOM      5  C   UNK A   1     -36.418  24.164   4.294  0.00  0.00    +0.065 C 
ATOM      6  C   UNK A   1     -37.433  23.104   2.374  0.00  0.00    +0.162 C 
ATOM      7  C   UNK A   1     -37.295  25.241   4.159  0.00  0.00    +0.042 C 
ATOM      8  C   UNK A   1     -38.310  24.180   2.238  0.00  0.00    +0.076 C 
ATOM      9  C   UNK A   1     -38.240  25.248   3.132  0.00  0.00    +0.142 C 
ATOM     10  C   UNK A   1     -35.640  20.933   2.670  0.00  0.00    +0.284 C 
ATOM     11  C   UNK A   1     -36.675  21.002   1.592  0.00  0.00    +0.199 C 
ATOM     12  C   UNK A   1     -36.758  19.987   0.724  0.00  0.00    +0.046 C 
ATOM     13  H   UNK A   1     -34.957  22.024   4.253  0.00  0.00    +0.155 HD
ENDROOT
BRANCH   9  14
ATOM     14  O   UNK A   1     -39.096  26.300   3.002  0.00  0.00    -0.471 OA
ATOM     15  C   UNK A   1     -40.488  25.998   2.934  0.00  0.00    +0.252 C 
ENDBRANCH   9  14
BRANCH   5  17
ATOM     16  O   UNK A   1     -35.237  23.210   6.092  0.00  0.00    -0.280 OA
ATOM     17  C   UNK A   1     -35.449  24.203   5.383  0.00  0.00    +0.223 C 
BRANCH  17  18
ATOM     18  S   UNK A   1     -34.539  25.704   5.648  0.00  0.00    -0.070 S 
BRANCH  18  19
ATOM     19  C   UNK A   1     -33.771  25.949   4.033  0.00  0.00    +0.096 C 
BRANCH  19  20
ATOM     20  C   UNK A   1     -33.587  27.421   3.655  0.00  0.00    +0.183 C 
BRANCH  20  22
ATOM     21  O   UNK A   0     -30.889  27.898   4.617  0.00  0.00    -0.275 OA
ATOM     22  N   UNK A   1     -33.188  28.222   4.785  0.00  0.00    -0.296 N 
ATOM     23  C   UNK A   0     -31.868  28.393   5.170  0.00  0.00    +0.223 C 
ATOM     24  C   UNK A   0     -31.731  29.297   6.366  0.00  0.00    +0.095 C 
ATOM     25  H   UNK A   1     -33.890  28.672   5.310  0.00  0.00    +0.150 HD
ENDBRANCH  20  22
BRANCH  20  27
ATOM     26  O   UNK A   1     -35.436  27.401   2.085  0.00  0.00    -0.248 OA
ATOM     27  C   UNK A   1     -34.806  27.994   2.953  0.00  0.00    +0.333 C 
BRANCH  27  28
ATOM     28  O   UNK A   1     -35.127  29.243   3.372  0.00  0.00    -0.479 OA
ATOM     29  H   UNK A   1     -35.518  29.369   4.213  0.00  0.00    +0.295 HD
ENDBRANCH  27  28
ENDBRANCH  20  27
ENDBRANCH  19  20
ENDBRANCH  18  19
ENDBRANCH  17  18
ENDBRANCH   5  17
TORSDOF 8
ENDMDL
MODEL 7
REMARK VINA RESULT:      -5.7      2.729      4.893
REMARK  Name = 53327671
REMARK  8 active torsions:
REMARK  status: ('A' for Active; 'I' for Inactive)
REMARK    1  A    between atoms: C_5  and  C_17
REMARK    2  A    between atoms: C_9  and  O_14
REMARK    3  A    between atoms: C_17  and  S_18
REMARK    4  A    between atoms: S_18  and  C_19
REMARK    5  A    between atoms: C_19  and  C_20
REMARK    6  A    between atoms: C_20  and  N_22
REMARK    7  A    between atoms: C_20  and  C_27
REMARK    8  A    between atoms: C_27  and  O_28
REMARK                            x       y       z     vdW  Elec       q    Type
REMARK                         _______ _______ _______ _____ _____    ______ ____
ROOT
ATOM      1  O   UNK A   1     -35.069  23.950   5.527  0.00  0.00    -0.448 OA
ATOM      2  O   UNK A   1     -35.508  20.732   3.884  0.00  0.00    -0.266 OA
ATOM      3  N   UNK A   1     -35.425  22.829   2.973  0.00  0.00    -0.275 N 
ATOM      4  C   UNK A   1     -35.293  24.211   3.135  0.00  0.00    +0.089 C 
ATOM      5  C   UNK A   1     -35.336  25.054   2.023  0.00  0.00    +0.065 C 
ATOM      6  C   UNK A   1     -35.117  24.739   4.409  0.00  0.00    +0.162 C 
ATOM      7  C   UNK A   1     -35.204  26.432   2.196  0.00  0.00    +0.042 C 
ATOM      8  C   UNK A   1     -34.985  26.116   4.583  0.00  0.00    +0.076 C 
ATOM      9  C   UNK A   1     -35.028  26.962   3.475  0.00  0.00    +0.142 C 
ATOM     10  C   UNK A   1     -35.391  21.947   4.029  0.00  0.00    +0.284 C 
ATOM     11  C   UNK A   1     -35.200  22.577   5.372  0.00  0.00    +0.199 C 
ATOM     12  C   UNK A   1     -35.156  21.783   6.449  0.00  0.00    +0.046 C 
ATOM     13  H   UNK A   1     -35.548  22.471   2.064  0.00  0.00    +0.155 HD
ENDROOT
BRANCH   9  14
ATOM     14  O   UNK A   1     -34.898  28.307   3.642  0.00  0.00    -0.471 OA
ATOM     15  C   UNK A   1     -34.988  29.117   2.471  0.00  0.00    +0.252 C 
ENDBRANCH   9  14
BRANCH   5  17
ATOM     16  O   UNK A   1     -34.571  24.075   0.024  0.00  0.00    -0.280 OA
ATOM     17  C   UNK A   1     -35.518  24.548   0.667  0.00  0.00    +0.223 C 
BRANCH  17  18
ATOM     18  S   UNK A   1     -37.148  24.586  -0.035  0.00  0.00    -0.070 S 
BRANCH  18  19
ATOM     19  C   UNK A   1     -37.737  22.920   0.335  0.00  0.00    +0.096 C 
BRANCH  19  20
ATOM     20  C   UNK A   1     -39.089  22.889   1.053  0.00  0.00    +0.183 C 
BRANCH  20  22
ATOM     21  O   UNK A   0     -41.567  24.373   1.348  0.00  0.00    -0.275 OA
ATOM     22  N   UNK A   1     -39.310  24.080   1.836  0.00  0.00    -0.296 N 
ATOM     23  C   UNK A   0     -40.536  24.721   1.917  0.00  0.00    +0.223 C 
ATOM     24  C   UNK A   0     -40.496  25.923   2.823  0.00  0.00    +0.095 C 
ATOM     25  H   UNK A   1     -38.552  24.455   2.341  0.00  0.00    +0.150 HD
ENDBRANCH  20  22
BRANCH  20  27
ATOM     26  O   UNK A   1     -40.370  21.114   2.095  0.00  0.00    -0.248 OA
ATOM     27  C   UNK A   1     -39.278  21.626   1.873  0.00  0.00    +0.333 C 
BRANCH  27  28
ATOM     28  O   UNK A   1     -38.117  21.121   2.356  0.00  0.00    -0.479 OA
ATOM     29  H   UNK A   1     -38.116  20.632   3.155  0.00  0.00    +0.295 HD
ENDBRANCH  27  28
ENDBRANCH  20  27
ENDBRANCH  19  20
ENDBRANCH  18  19
ENDBRANCH  17  18
ENDBRANCH   5  17
TORSDOF 8
ENDMDL
MODEL 8
REMARK VINA RESULT:      -5.7      2.841      5.173
REMARK  Name = 53327671
REMARK  8 active torsions:
REMARK  status: ('A' for Active; 'I' for Inactive)
REMARK    1  A    between atoms: C_5  and  C_17
REMARK    2  A    between atoms: C_9  and  O_14
REMARK    3  A    between atoms: C_17  and  S_18
REMARK    4  A    between atoms: S_18  and  C_19
REMARK    5  A    between atoms: C_19  and  C_20
REMARK    6  A    between atoms: C_20  and  N_22
REMARK    7  A    between atoms: C_20  and  C_27
REMARK    8  A    between atoms: C_27  and  O_28
REMARK                            x       y       z     vdW  Elec       q    Type
REMARK                         _______ _______ _______ _____ _____    ______ ____
ROOT
ATOM      1  O   UNK A   1     -33.314  26.540   4.828  0.00  0.00    -0.448 OA
ATOM      2  O   UNK A   1     -34.130  29.276   2.570  0.00  0.00    -0.266 OA
ATOM      3  N   UNK A   1     -35.384  27.456   3.161  0.00  0.00    -0.275 N 
ATOM      4  C   UNK A   1     -35.524  26.271   3.888  0.00  0.00    +0.089 C 
ATOM      5  C   UNK A   1     -36.700  25.525   3.793  0.00  0.00    +0.065 C 
ATOM      6  C   UNK A   1     -34.484  25.841   4.705  0.00  0.00    +0.162 C 
ATOM      7  C   UNK A   1     -36.828  24.343   4.524  0.00  0.00    +0.042 C 
ATOM      8  C   UNK A   1     -34.612  24.660   5.436  0.00  0.00    +0.076 C 
ATOM      9  C   UNK A   1     -35.785  23.912   5.344  0.00  0.00    +0.142 C 
ATOM     10  C   UNK A   1     -34.250  28.234   3.211  0.00  0.00    +0.284 C 
ATOM     11  C   UNK A   1     -33.170  27.717   4.108  0.00  0.00    +0.199 C 
ATOM     12  C   UNK A   1     -32.036  28.420   4.209  0.00  0.00    +0.046 C 
ATOM     13  H   UNK A   1     -36.130  27.747   2.586  0.00  0.00    +0.155 HD
ENDROOT
BRANCH   9  14
ATOM     14  O   UNK A   1     -35.913  22.758   6.057  0.00  0.00    -0.471 OA
ATOM     15  C   UNK A   1     -34.892  21.777   5.889  0.00  0.00    +0.252 C 
ENDBRANCH   9  14
BRANCH   5  17
ATOM     16  O   UNK A   1     -37.724  26.899   2.179  0.00  0.00    -0.280 OA
ATOM     17  C   UNK A   1     -37.818  25.934   2.951  0.00  0.00    +0.223 C 
BRANCH  17  18
ATOM     18  S   UNK A   1     -39.318  24.988   3.023  0.00  0.00    -0.070 S 
BRANCH  18  19
ATOM     19  C   UNK A   1     -39.175  23.974   1.535  0.00  0.00    +0.096 C 
BRANCH  19  20
ATOM     20  C   UNK A   1     -38.474  22.633   1.767  0.00  0.00    +0.183 C 
BRANCH  20  22
ATOM     21  O   UNK A   0     -36.123  21.226   2.728  0.00  0.00    -0.275 OA
ATOM     22  N   UNK A   1     -37.166  22.596   1.162  0.00  0.00    -0.296 N 
ATOM     23  C   UNK A   0     -36.099  21.892   1.697  0.00  0.00    +0.223 C 
ATOM     24  C   UNK A   0     -34.858  22.001   0.851  0.00  0.00    +0.095 C 
ATOM     25  H   UNK A   1     -37.024  23.095   0.325  0.00  0.00    +0.150 HD
ENDBRANCH  20  22
BRANCH  20  27
ATOM     26  O   UNK A   1     -39.280  20.938   0.232  0.00  0.00    -0.248 OA
ATOM     27  C   UNK A   1     -39.331  21.453   1.343  0.00  0.00    +0.333 C 
BRANCH  27  28
ATOM     28  O   UNK A   1     -40.176  21.027   2.313  0.00  0.00    -0.479 OA
ATOM     29  H   UNK A   1     -40.236  20.115   2.514  0.00  0.00    +0.295 HD
ENDBRANCH  27  28
ENDBRANCH  20  27
ENDBRANCH  19  20
ENDBRANCH  18  19
ENDBRANCH  17  18
ENDBRANCH   5  17
TORSDOF 8
ENDMDL
MODEL 9
REMARK VINA RESULT:      -5.7      1.329      2.298
REMARK  Name = 53327671
REMARK  8 active torsions:
REMARK  status: ('A' for Active; 'I' for Inactive)
REMARK    1  A    between atoms: C_5  and  C_17
REMARK    2  A    between atoms: C_9  and  O_14
REMARK    3  A    between atoms: C_17  and  S_18
REMARK    4  A    between atoms: S_18  and  C_19
REMARK    5  A    between atoms: C_19  and  C_20
REMARK    6  A    between atoms: C_20  and  N_22
REMARK    7  A    between atoms: C_20  and  C_27
REMARK    8  A    between atoms: C_27  and  O_28
REMARK                            x       y       z     vdW  Elec       q    Type
REMARK                         _______ _______ _______ _____ _____    ______ ____
ROOT
ATOM      1  O   UNK A   1     -36.658  25.179   4.079  0.00  0.00    -0.448 OA
ATOM      2  O   UNK A   1     -35.539  21.731   4.406  0.00  0.00    -0.266 OA
ATOM      3  N   UNK A   1     -37.349  22.571   3.287  0.00  0.00    -0.275 N 
ATOM      4  C   UNK A   1     -38.127  23.665   2.898  0.00  0.00    +0.089 C 
ATOM      5  C   UNK A   1     -39.261  23.473   2.108  0.00  0.00    +0.065 C 
ATOM      6  C   UNK A   1     -37.762  24.945   3.304  0.00  0.00    +0.162 C 
ATOM      7  C   UNK A   1     -40.031  24.573   1.726  0.00  0.00    +0.042 C 
ATOM      8  C   UNK A   1     -38.530  26.044   2.923  0.00  0.00    +0.076 C 
ATOM      9  C   UNK A   1     -39.664  25.857   2.133  0.00  0.00    +0.142 C 
ATOM     10  C   UNK A   1     -36.221  22.695   4.065  0.00  0.00    +0.284 C 
ATOM     11  C   UNK A   1     -35.883  24.096   4.468  0.00  0.00    +0.199 C 
ATOM     12  C   UNK A   1     -34.799  24.297   5.226  0.00  0.00    +0.046 C 
ATOM     13  H   UNK A   1     -37.621  21.671   2.992  0.00  0.00    +0.155 HD
ENDROOT
BRANCH   9  14
ATOM     14  O   UNK A   1     -40.417  26.929   1.759  0.00  0.00    -0.471 OA
ATOM     15  C   UNK A   1     -41.733  26.661   1.279  0.00  0.00    +0.252 C 
ENDBRANCH   9  14
BRANCH   5  17
ATOM     16  O   UNK A   1     -40.085  21.296   2.458  0.00  0.00    -0.280 OA
ATOM     17  C   UNK A   1     -39.684  22.152   1.658  0.00  0.00    +0.223 C 
BRANCH  17  18
ATOM     18  S   UNK A   1     -39.650  21.805  -0.083  0.00  0.00    -0.070 S 
BRANCH  18  19
ATOM     19  C   UNK A   1     -38.365  20.540  -0.172  0.00  0.00    +0.096 C 
BRANCH  19  20
ATOM     20  C   UNK A   1     -37.032  20.970   0.446  0.00  0.00    +0.183 C 
BRANCH  20  22
ATOM     21  O   UNK A   0     -35.313  23.280   0.824  0.00  0.00    -0.275 OA
ATOM     22  N   UNK A   1     -36.160  21.583  -0.526  0.00  0.00    -0.296 N 
ATOM     23  C   UNK A   0     -35.372  22.689  -0.251  0.00  0.00    +0.223 C 
ATOM     24  C   UNK A   0     -34.539  23.108  -1.433  0.00  0.00    +0.095 C 
ATOM     25  H   UNK A   1     -36.121  21.194  -1.430  0.00  0.00    +0.150 HD
ENDBRANCH  20  22
BRANCH  20  27
ATOM     26  O   UNK A   1     -35.488  19.116   0.693  0.00  0.00    -0.248 OA
ATOM     27  C   UNK A   1     -36.347  19.837   1.189  0.00  0.00    +0.333 C 
BRANCH  27  28
ATOM     28  O   UNK A   1     -36.790  19.685   2.461  0.00  0.00    -0.479 OA
ATOM     29  H   UNK A   1     -36.202  19.399   3.130  0.00  0.00    +0.295 HD
ENDBRANCH  27  28
ENDBRANCH  20  27
ENDBRANCH  19  20
ENDBRANCH  18  19
ENDBRANCH  17  18
ENDBRANCH   5  17
TORSDOF 8
ENDMDL
