MODEL 1
REMARK VINA RESULT:      -5.2      0.000      0.000
REMARK  Name = 54675759
REMARK  7 active torsions:
REMARK  status: ('A' for Active; 'I' for Inactive)
REMARK    1  A    between atoms: C_3  and  C_14
REMARK    2  A    between atoms: C_4  and  O_7
REMARK    3  A    between atoms: C_5  and  O_9
REMARK    4  A    between atoms: O_9  and  S_10
REMARK    5  A    between atoms: C_14  and  O_15
REMARK    6  A    between atoms: C_14  and  C_17
REMARK    7  A    between atoms: C_17  and  O_18
REMARK                            x       y       z     vdW  Elec       q    Type
REMARK                         _______ _______ _______ _____ _____    ______ ____
ROOT
ATOM      1  O   UNL     1     -35.891  21.713   4.630  0.00  0.00    -0.436 OA
ATOM      2  O   UNL     1     -35.056  22.376   6.674  0.00  0.00    -0.241 OA
ATOM      3  C   UNL     1     -36.372  22.386   3.449  0.00  0.00    +0.257 C 
ATOM      4  C   UNL     1     -36.250  23.811   3.812  0.00  0.00    +0.198 C 
ATOM      5  C   UNL     1     -35.755  23.970   5.035  0.00  0.00    +0.283 C 
ATOM      6  C   UNL     1     -35.512  22.630   5.573  0.00  0.00    +0.382 C 
ENDROOT
BRANCH   4   7
ATOM      7  O   UNL     1     -36.642  24.808   2.967  0.00  0.00    -0.504 OA
ATOM      8  H   UNL     1     -36.428  25.699   3.164  0.00  0.00    +0.292 HD
ENDBRANCH   4   7
BRANCH   5   9
ATOM      9  O   UNL     1     -35.512  25.126   5.704  0.00  0.00    -0.312 OA
BRANCH   9  10
ATOM     10  S   UNL     1     -34.317  26.137   5.235  0.00  0.00    +0.283 S 
ATOM     11  O   UNL     1     -33.270  25.163   4.449  0.00  0.00    -0.105 OA
ATOM     12  O   UNL     1     -33.651  26.652   6.417  0.00  0.00    -0.105 OA
ATOM     13  O   UNL     1     -34.878  27.053   4.259  0.00  0.00    -0.012 OA
ENDBRANCH   9  10
ENDBRANCH   5   9
BRANCH   3  14
ATOM     14  C   UNL     1     -35.510  21.973   2.267  0.00  0.00    +0.187 C 
BRANCH  14  15
ATOM     15  O   UNL     1     -36.107  22.458   1.066  0.00  0.00    -0.378 OA
ATOM     16  H   UNL     1     -35.827  21.906   0.319  0.00  0.00    +0.211 HD
ENDBRANCH  14  15
BRANCH  14  17
ATOM     17  C   UNL     1     -35.395  20.456   2.163  0.00  0.00    +0.171 C 
BRANCH  17  18
ATOM     18  O   UNL     1     -36.626  19.870   2.571  0.00  0.00    -0.379 OA
ATOM     19  H   UNL     1     -37.343  20.202   2.008  0.00  0.00    +0.211 HD
ENDBRANCH  17  18
ENDBRANCH  14  17
ENDBRANCH   3  14
TORSDOF 7
ENDMDL
MODEL 2
REMARK VINA RESULT:      -5.1      2.106      3.511
REMARK  Name = 54675759
REMARK  7 active torsions:
REMARK  status: ('A' for Active; 'I' for Inactive)
REMARK    1  A    between atoms: C_3  and  C_14
REMARK    2  A    between atoms: C_4  and  O_7
REMARK    3  A    between atoms: C_5  and  O_9
REMARK    4  A    between atoms: O_9  and  S_10
REMARK    5  A    between atoms: C_14  and  O_15
REMARK    6  A    between atoms: C_14  and  C_17
REMARK    7  A    between atoms: C_17  and  O_18
REMARK                            x       y       z     vdW  Elec       q    Type
REMARK                         _______ _______ _______ _____ _____    ______ ____
ROOT
ATOM      1  O   UNL     1     -34.519  24.341   3.508  0.00  0.00    -0.436 OA
ATOM      2  O   UNL     1     -32.638  25.488   2.828  0.00  0.00    -0.241 OA
ATOM      3  C   UNL     1     -35.676  24.650   4.312  0.00  0.00    +0.257 C 
ATOM      4  C   UNL     1     -35.425  26.044   4.726  0.00  0.00    +0.198 C 
ATOM      5  C   UNL     1     -34.283  26.509   4.230  0.00  0.00    +0.283 C 
ATOM      6  C   UNL     1     -33.691  25.430   3.439  0.00  0.00    +0.382 C 
ENDROOT
BRANCH   4   7
ATOM      7  O   UNL     1     -36.281  26.720   5.545  0.00  0.00    -0.504 OA
ATOM      8  H   UNL     1     -37.067  26.305   5.845  0.00  0.00    +0.292 HD
ENDBRANCH   4   7
BRANCH   5   9
ATOM      9  O   UNL     1     -33.725  27.735   4.402  0.00  0.00    -0.312 OA
BRANCH   9  10
ATOM     10  S   UNL     1     -32.388  27.933   5.321  0.00  0.00    +0.283 S 
ATOM     11  O   UNL     1     -32.475  29.489   5.803  0.00  0.00    -0.105 OA
ATOM     12  O   UNL     1     -31.216  27.789   4.477  0.00  0.00    -0.105 OA
ATOM     13  O   UNL     1     -32.542  27.101   6.500  0.00  0.00    -0.012 OA
ENDBRANCH   9  10
ENDBRANCH   5   9
BRANCH   3  14
ATOM     14  C   UNL     1     -36.922  24.471   3.461  0.00  0.00    +0.187 C 
BRANCH  14  15
ATOM     15  O   UNL     1     -38.060  24.890   4.212  0.00  0.00    -0.378 OA
ATOM     16  H   UNL     1     -38.766  24.231   4.125  0.00  0.00    +0.211 HD
ENDBRANCH  14  15
BRANCH  14  17
ATOM     17  C   UNL     1     -37.124  23.014   3.064  0.00  0.00    +0.171 C 
BRANCH  17  18
ATOM     18  O   UNL     1     -36.632  22.178   4.105  0.00  0.00    -0.379 OA
ATOM     19  H   UNL     1     -37.373  21.710   4.521  0.00  0.00    +0.211 HD
ENDBRANCH  17  18
ENDBRANCH  14  17
ENDBRANCH   3  14
TORSDOF 7
ENDMDL
MODEL 3
REMARK VINA RESULT:      -5.1      2.333      3.763
REMARK  Name = 54675759
REMARK  7 active torsions:
REMARK  status: ('A' for Active; 'I' for Inactive)
REMARK    1  A    between atoms: C_3  and  C_14
REMARK    2  A    between atoms: C_4  and  O_7
REMARK    3  A    between atoms: C_5  and  O_9
REMARK    4  A    between atoms: O_9  and  S_10
REMARK    5  A    between atoms: C_14  and  O_15
REMARK    6  A    between atoms: C_14  and  C_17
REMARK    7  A    between atoms: C_17  and  O_18
REMARK                            x       y       z     vdW  Elec       q    Type
REMARK                         _______ _______ _______ _____ _____    ______ ____
ROOT
ATOM      1  O   UNL     1     -34.192  24.866   5.547  0.00  0.00    -0.436 OA
ATOM      2  O   UNL     1     -33.130  26.619   4.492  0.00  0.00    -0.241 OA
ATOM      3  C   UNL     1     -35.538  24.347   5.576  0.00  0.00    +0.257 C 
ATOM      4  C   UNL     1     -36.267  25.278   4.694  0.00  0.00    +0.198 C 
ATOM      5  C   UNL     1     -35.468  26.217   4.197  0.00  0.00    +0.283 C 
ATOM      6  C   UNL     1     -34.128  25.962   4.730  0.00  0.00    +0.382 C 
ENDROOT
BRANCH   4   7
ATOM      7  O   UNL     1     -37.608  25.162   4.471  0.00  0.00    -0.504 OA
ATOM      8  H   UNL     1     -38.197  25.086   5.196  0.00  0.00    +0.292 HD
ENDBRANCH   4   7
BRANCH   5   9
ATOM      9  O   UNL     1     -35.784  27.240   3.362  0.00  0.00    -0.312 OA
BRANCH   9  10
ATOM     10  S   UNL     1     -36.329  26.955   1.848  0.00  0.00    +0.283 S 
ATOM     11  O   UNL     1     -37.948  26.848   2.032  0.00  0.00    -0.105 OA
ATOM     12  O   UNL     1     -35.841  25.660   1.412  0.00  0.00    -0.105 OA
ATOM     13  O   UNL     1     -36.057  28.139   1.055  0.00  0.00    -0.012 OA
ENDBRANCH   9  10
ENDBRANCH   5   9
BRANCH   3  14
ATOM     14  C   UNL     1     -35.516  22.911   5.079  0.00  0.00    +0.187 C 
BRANCH  14  15
ATOM     15  O   UNL     1     -36.740  22.639   4.398  0.00  0.00    -0.378 OA
ATOM     16  H   UNL     1     -37.032  23.434   3.926  0.00  0.00    +0.211 HD
ENDBRANCH  14  15
BRANCH  14  17
ATOM     17  C   UNL     1     -35.382  21.922   6.230  0.00  0.00    +0.171 C 
BRANCH  17  18
ATOM     18  O   UNL     1     -35.315  20.602   5.702  0.00  0.00    -0.379 OA
ATOM     19  H   UNL     1     -34.931  20.008   6.367  0.00  0.00    +0.211 HD
ENDBRANCH  17  18
ENDBRANCH  14  17
ENDBRANCH   3  14
TORSDOF 7
ENDMDL
MODEL 4
REMARK VINA RESULT:      -5.0      1.244      1.359
REMARK  Name = 54675759
REMARK  7 active torsions:
REMARK  status: ('A' for Active; 'I' for Inactive)
REMARK    1  A    between atoms: C_3  and  C_14
REMARK    2  A    between atoms: C_4  and  O_7
REMARK    3  A    between atoms: C_5  and  O_9
REMARK    4  A    between atoms: O_9  and  S_10
REMARK    5  A    between atoms: C_14  and  O_15
REMARK    6  A    between atoms: C_14  and  C_17
REMARK    7  A    between atoms: C_17  and  O_18
REMARK                            x       y       z     vdW  Elec       q    Type
REMARK                         _______ _______ _______ _____ _____    ______ ____
ROOT
ATOM      1  O   UNL     1     -36.600  22.614   3.919  0.00  0.00    -0.436 OA
ATOM      2  O   UNL     1     -35.843  22.940   6.072  0.00  0.00    -0.241 OA
ATOM      3  C   UNL     1     -36.193  23.056   2.608  0.00  0.00    +0.257 C 
ATOM      4  C   UNL     1     -35.029  23.916   2.899  0.00  0.00    +0.198 C 
ATOM      5  C   UNL     1     -34.769  23.972   4.201  0.00  0.00    +0.283 C 
ATOM      6  C   UNL     1     -35.766  23.135   4.871  0.00  0.00    +0.382 C 
ENDROOT
BRANCH   4   7
ATOM      7  O   UNL     1     -34.354  24.575   1.914  0.00  0.00    -0.504 OA
ATOM      8  H   UNL     1     -34.298  24.204   1.056  0.00  0.00    +0.292 HD
ENDBRANCH   4   7
BRANCH   5   9
ATOM      9  O   UNL     1     -33.789  24.663   4.838  0.00  0.00    -0.312 OA
BRANCH   9  10
ATOM     10  S   UNL     1     -33.929  26.269   5.109  0.00  0.00    +0.283 S 
ATOM     11  O   UNL     1     -33.464  26.943   3.697  0.00  0.00    -0.105 OA
ATOM     12  O   UNL     1     -32.972  26.655   6.128  0.00  0.00    -0.105 OA
ATOM     13  O   UNL     1     -35.340  26.560   5.288  0.00  0.00    -0.012 OA
ENDBRANCH   9  10
ENDBRANCH   5   9
BRANCH   3  14
ATOM     14  C   UNL     1     -35.865  21.836   1.763  0.00  0.00    +0.187 C 
BRANCH  14  15
ATOM     15  O   UNL     1     -35.620  22.254   0.421  0.00  0.00    -0.378 OA
ATOM     16  H   UNL     1     -36.459  22.295  -0.064  0.00  0.00    +0.211 HD
ENDBRANCH  14  15
BRANCH  14  17
ATOM     17  C   UNL     1     -37.018  20.840   1.748  0.00  0.00    +0.171 C 
BRANCH  17  18
ATOM     18  O   UNL     1     -36.768  19.827   2.715  0.00  0.00    -0.379 OA
ATOM     19  H   UNL     1     -36.430  19.032   2.271  0.00  0.00    +0.211 HD
ENDBRANCH  17  18
ENDBRANCH  14  17
ENDBRANCH   3  14
TORSDOF 7
ENDMDL
MODEL 5
REMARK VINA RESULT:      -5.0      1.617      1.998
REMARK  Name = 54675759
REMARK  7 active torsions:
REMARK  status: ('A' for Active; 'I' for Inactive)
REMARK    1  A    between atoms: C_3  and  C_14
REMARK    2  A    between atoms: C_4  and  O_7
REMARK    3  A    between atoms: C_5  and  O_9
REMARK    4  A    between atoms: O_9  and  S_10
REMARK    5  A    between atoms: C_14  and  O_15
REMARK    6  A    between atoms: C_14  and  C_17
REMARK    7  A    between atoms: C_17  and  O_18
REMARK                            x       y       z     vdW  Elec       q    Type
REMARK                         _______ _______ _______ _____ _____    ______ ____
ROOT
ATOM      1  O   UNL     1     -36.635  22.774   4.500  0.00  0.00    -0.436 OA
ATOM      2  O   UNL     1     -34.872  22.814   5.985  0.00  0.00    -0.241 OA
ATOM      3  C   UNL     1     -37.413  23.767   3.801  0.00  0.00    +0.257 C 
ATOM      4  C   UNL     1     -36.827  25.036   4.275  0.00  0.00    +0.198 C 
ATOM      5  C   UNL     1     -35.830  24.831   5.130  0.00  0.00    +0.283 C 
ATOM      6  C   UNL     1     -35.688  23.382   5.280  0.00  0.00    +0.382 C 
ENDROOT
BRANCH   4   7
ATOM      7  O   UNL     1     -37.308  26.248   3.875  0.00  0.00    -0.504 OA
ATOM      8  H   UNL     1     -38.232  26.405   3.868  0.00  0.00    +0.292 HD
ENDBRANCH   4   7
BRANCH   5   9
ATOM      9  O   UNL     1     -35.066  25.751   5.772  0.00  0.00    -0.312 OA
BRANCH   9  10
ATOM     10  S   UNL     1     -33.802  26.468   5.025  0.00  0.00    +0.283 S 
ATOM     11  O   UNL     1     -34.498  27.622   4.104  0.00  0.00    -0.105 OA
ATOM     12  O   UNL     1     -33.175  25.504   4.140  0.00  0.00    -0.105 OA
ATOM     13  O   UNL     1     -33.015  27.139   6.044  0.00  0.00    -0.012 OA
ENDBRANCH   9  10
ENDBRANCH   5   9
BRANCH   3  14
ATOM     14  C   UNL     1     -37.266  23.538   2.306  0.00  0.00    +0.187 C 
BRANCH  14  15
ATOM     15  O   UNL     1     -37.527  24.762   1.622  0.00  0.00    -0.378 OA
ATOM     16  H   UNL     1     -37.031  25.481   2.044  0.00  0.00    +0.211 HD
ENDBRANCH  14  15
BRANCH  14  17
ATOM     17  C   UNL     1     -38.252  22.491   1.801  0.00  0.00    +0.171 C 
BRANCH  17  18
ATOM     18  O   UNL     1     -37.997  21.257   2.463  0.00  0.00    -0.379 OA
ATOM     19  H   UNL     1     -38.711  21.075   3.094  0.00  0.00    +0.211 HD
ENDBRANCH  17  18
ENDBRANCH  14  17
ENDBRANCH   3  14
TORSDOF 7
ENDMDL
MODEL 6
REMARK VINA RESULT:      -4.9      2.875      5.548
REMARK  Name = 54675759
REMARK  7 active torsions:
REMARK  status: ('A' for Active; 'I' for Inactive)
REMARK    1  A    between atoms: C_3  and  C_14
REMARK    2  A    between atoms: C_4  and  O_7
REMARK    3  A    between atoms: C_5  and  O_9
REMARK    4  A    between atoms: O_9  and  S_10
REMARK    5  A    between atoms: C_14  and  O_15
REMARK    6  A    between atoms: C_14  and  C_17
REMARK    7  A    between atoms: C_17  and  O_18
REMARK                            x       y       z     vdW  Elec       q    Type
REMARK                         _______ _______ _______ _____ _____    ______ ____
ROOT
ATOM      1  O   UNL     1     -35.190  23.508   2.588  0.00  0.00    -0.436 OA
ATOM      2  O   UNL     1     -35.709  21.517   1.548  0.00  0.00    -0.241 OA
ATOM      3  C   UNL     1     -35.920  24.487   3.356  0.00  0.00    +0.257 C 
ATOM      4  C   UNL     1     -37.292  23.943   3.362  0.00  0.00    +0.198 C 
ATOM      5  C   UNL     1     -37.371  22.794   2.699  0.00  0.00    +0.283 C 
ATOM      6  C   UNL     1     -36.027  22.496   2.201  0.00  0.00    +0.382 C 
ENDROOT
BRANCH   4   7
ATOM      7  O   UNL     1     -38.326  24.597   3.965  0.00  0.00    -0.504 OA
ATOM      8  H   UNL     1     -39.211  24.364   3.758  0.00  0.00    +0.292 HD
ENDBRANCH   4   7
BRANCH   5   9
ATOM      9  O   UNL     1     -38.462  22.014   2.488  0.00  0.00    -0.312 OA
BRANCH   9  10
ATOM     10  S   UNL     1     -39.585  22.418   1.371  0.00  0.00    +0.283 S 
ATOM     11  O   UNL     1     -40.463  21.054   1.192  0.00  0.00    -0.105 OA
ATOM     12  O   UNL     1     -38.915  22.690   0.113  0.00  0.00    -0.105 OA
ATOM     13  O   UNL     1     -40.451  23.420   1.965  0.00  0.00    -0.012 OA
ENDBRANCH   9  10
ENDBRANCH   5   9
BRANCH   3  14
ATOM     14  C   UNL     1     -35.290  24.592   4.735  0.00  0.00    +0.187 C 
BRANCH  14  15
ATOM     15  O   UNL     1     -36.093  23.868   5.667  0.00  0.00    -0.378 OA
ATOM     16  H   UNL     1     -35.523  23.459   6.337  0.00  0.00    +0.211 HD
ENDBRANCH  14  15
BRANCH  14  17
ATOM     17  C   UNL     1     -35.206  26.040   5.203  0.00  0.00    +0.171 C 
BRANCH  17  18
ATOM     18  O   UNL     1     -36.521  26.522   5.456  0.00  0.00    -0.379 OA
ATOM     19  H   UNL     1     -37.132  25.771   5.524  0.00  0.00    +0.211 HD
ENDBRANCH  17  18
ENDBRANCH  14  17
ENDBRANCH   3  14
TORSDOF 7
ENDMDL
MODEL 7
REMARK VINA RESULT:      -4.8      2.890      5.532
REMARK  Name = 54675759
REMARK  7 active torsions:
REMARK  status: ('A' for Active; 'I' for Inactive)
REMARK    1  A    between atoms: C_3  and  C_14
REMARK    2  A    between atoms: C_4  and  O_7
REMARK    3  A    between atoms: C_5  and  O_9
REMARK    4  A    between atoms: O_9  and  S_10
REMARK    5  A    between atoms: C_14  and  O_15
REMARK    6  A    between atoms: C_14  and  C_17
REMARK    7  A    between atoms: C_17  and  O_18
REMARK                            x       y       z     vdW  Elec       q    Type
REMARK                         _______ _______ _______ _____ _____    ______ ____
ROOT
ATOM      1  O   UNL     1     -35.434  24.438   2.799  0.00  0.00    -0.436 OA
ATOM      2  O   UNL     1     -35.595  22.311   1.924  0.00  0.00    -0.241 OA
ATOM      3  C   UNL     1     -36.329  25.338   3.484  0.00  0.00    +0.257 C 
ATOM      4  C   UNL     1     -37.590  24.572   3.533  0.00  0.00    +0.198 C 
ATOM      5  C   UNL     1     -37.464  23.377   2.966  0.00  0.00    +0.283 C 
ATOM      6  C   UNL     1     -36.083  23.271   2.495  0.00  0.00    +0.382 C 
ENDROOT
BRANCH   4   7
ATOM      7  O   UNL     1     -38.728  25.088   4.080  0.00  0.00    -0.504 OA
ATOM      8  H   UNL     1     -39.529  25.073   3.593  0.00  0.00    +0.292 HD
ENDBRANCH   4   7
BRANCH   5   9
ATOM      9  O   UNL     1     -38.406  22.410   2.818  0.00  0.00    -0.312 OA
BRANCH   9  10
ATOM     10  S   UNL     1     -39.531  22.502   1.636  0.00  0.00    +0.283 S 
ATOM     11  O   UNL     1     -40.329  21.082   1.748  0.00  0.00    -0.105 OA
ATOM     12  O   UNL     1     -38.857  22.537   0.351  0.00  0.00    -0.105 OA
ATOM     13  O   UNL     1     -40.461  23.555   1.998  0.00  0.00    -0.012 OA
ENDBRANCH   9  10
ENDBRANCH   5   9
BRANCH   3  14
ATOM     14  C   UNL     1     -35.746  25.657   4.851  0.00  0.00    +0.187 C 
BRANCH  14  15
ATOM     15  O   UNL     1     -36.562  26.642   5.484  0.00  0.00    -0.378 OA
ATOM     16  H   UNL     1     -35.997  27.286   5.939  0.00  0.00    +0.211 HD
ENDBRANCH  14  15
BRANCH  14  17
ATOM     17  C   UNL     1     -34.331  26.211   4.740  0.00  0.00    +0.171 C 
BRANCH  17  18
ATOM     18  O   UNL     1     -33.414  25.126   4.651  0.00  0.00    -0.379 OA
ATOM     19  H   UNL     1     -33.824  24.397   4.159  0.00  0.00    +0.211 HD
ENDBRANCH  17  18
ENDBRANCH  14  17
ENDBRANCH   3  14
TORSDOF 7
ENDMDL
MODEL 8
REMARK VINA RESULT:      -4.8      2.256      4.721
REMARK  Name = 54675759
REMARK  7 active torsions:
REMARK  status: ('A' for Active; 'I' for Inactive)
REMARK    1  A    between atoms: C_3  and  C_14
REMARK    2  A    between atoms: C_4  and  O_7
REMARK    3  A    between atoms: C_5  and  O_9
REMARK    4  A    between atoms: O_9  and  S_10
REMARK    5  A    between atoms: C_14  and  O_15
REMARK    6  A    between atoms: C_14  and  C_17
REMARK    7  A    between atoms: C_17  and  O_18
REMARK                            x       y       z     vdW  Elec       q    Type
REMARK                         _______ _______ _______ _____ _____    ______ ____
ROOT
ATOM      1  O   UNL     1     -34.546  24.057   5.674  0.00  0.00    -0.436 OA
ATOM      2  O   UNL     1     -36.130  22.449   6.145  0.00  0.00    -0.241 OA
ATOM      3  C   UNL     1     -34.030  24.671   4.475  0.00  0.00    +0.257 C 
ATOM      4  C   UNL     1     -34.780  23.983   3.406  0.00  0.00    +0.198 C 
ATOM      5  C   UNL     1     -35.634  23.091   3.897  0.00  0.00    +0.283 C 
ATOM      6  C   UNL     1     -35.502  23.130   5.354  0.00  0.00    +0.382 C 
ENDROOT
BRANCH   4   7
ATOM      7  O   UNL     1     -34.564  24.249   2.086  0.00  0.00    -0.504 OA
ATOM      8  H   UNL     1     -34.114  25.032   1.834  0.00  0.00    +0.292 HD
ENDBRANCH   4   7
BRANCH   5   9
ATOM      9  O   UNL     1     -36.480  22.271   3.221  0.00  0.00    -0.312 OA
BRANCH   9  10
ATOM     10  S   UNL     1     -37.855  22.844   2.550  0.00  0.00    +0.283 S 
ATOM     11  O   UNL     1     -37.360  23.481   1.131  0.00  0.00    -0.105 OA
ATOM     12  O   UNL     1     -38.360  23.927   3.375  0.00  0.00    -0.105 OA
ATOM     13  O   UNL     1     -38.702  21.705   2.247  0.00  0.00    -0.012 OA
ENDBRANCH   9  10
ENDBRANCH   5   9
BRANCH   3  14
ATOM     14  C   UNL     1     -34.285  26.167   4.546  0.00  0.00    +0.187 C 
BRANCH  14  15
ATOM     15  O   UNL     1     -34.003  26.622   5.868  0.00  0.00    -0.378 OA
ATOM     16  H   UNL     1     -34.137  27.582   5.916  0.00  0.00    +0.211 HD
ENDBRANCH  14  15
BRANCH  14  17
ATOM     17  C   UNL     1     -35.737  26.503   4.226  0.00  0.00    +0.171 C 
BRANCH  17  18
ATOM     18  O   UNL     1     -36.488  26.509   5.435  0.00  0.00    -0.379 OA
ATOM     19  H   UNL     1     -36.456  27.396   5.830  0.00  0.00    +0.211 HD
ENDBRANCH  17  18
ENDBRANCH  14  17
ENDBRANCH   3  14
TORSDOF 7
ENDMDL
MODEL 9
REMARK VINA RESULT:      -4.7      1.484      2.826
REMARK  Name = 54675759
REMARK  7 active torsions:
REMARK  status: ('A' for Active; 'I' for Inactive)
REMARK    1  A    between atoms: C_3  and  C_14
REMARK    2  A    between atoms: C_4  and  O_7
REMARK    3  A    between atoms: C_5  and  O_9
REMARK    4  A    between atoms: O_9  and  S_10
REMARK    5  A    between atoms: C_14  and  O_15
REMARK    6  A    between atoms: C_14  and  C_17
REMARK    7  A    between atoms: C_17  and  O_18
REMARK                            x       y       z     vdW  Elec       q    Type
REMARK                         _______ _______ _______ _____ _____    ______ ____
ROOT
ATOM      1  O   UNL     1     -34.533  22.063   1.388  0.00  0.00    -0.436 OA
ATOM      2  O   UNL     1     -34.073  24.249   0.817  0.00  0.00    -0.241 OA
ATOM      3  C   UNL     1     -35.308  21.410   2.415  0.00  0.00    +0.257 C 
ATOM      4  C   UNL     1     -35.839  22.544   3.196  0.00  0.00    +0.198 C 
ATOM      5  C   UNL     1     -35.446  23.713   2.700  0.00  0.00    +0.283 C 
ATOM      6  C   UNL     1     -34.611  23.422   1.533  0.00  0.00    +0.382 C 
ENDROOT
BRANCH   4   7
ATOM      7  O   UNL     1     -36.612  22.359   4.304  0.00  0.00    -0.504 OA
ATOM      8  H   UNL     1     -37.034  21.534   4.448  0.00  0.00    +0.292 HD
ENDBRANCH   4   7
BRANCH   5   9
ATOM      9  O   UNL     1     -35.728  24.961   3.155  0.00  0.00    -0.312 OA
BRANCH   9  10
ATOM     10  S   UNL     1     -35.074  25.520   4.544  0.00  0.00    +0.283 S 
ATOM     11  O   UNL     1     -33.555  24.922   4.526  0.00  0.00    -0.105 OA
ATOM     12  O   UNL     1     -35.778  24.923   5.664  0.00  0.00    -0.105 OA
ATOM     13  O   UNL     1     -34.976  26.963   4.432  0.00  0.00    -0.012 OA
ENDBRANCH   9  10
ENDBRANCH   5   9
BRANCH   3  14
ATOM     14  C   UNL     1     -36.380  20.561   1.750  0.00  0.00    +0.187 C 
BRANCH  14  15
ATOM     15  O   UNL     1     -36.970  19.709   2.731  0.00  0.00    -0.378 OA
ATOM     16  H   UNL     1     -36.363  18.979   2.933  0.00  0.00    +0.211 HD
ENDBRANCH  14  15
BRANCH  14  17
ATOM     17  C   UNL     1     -35.795  19.685   0.648  0.00  0.00    +0.171 C 
BRANCH  17  18
ATOM     18  O   UNL     1     -34.661  18.994   1.159  0.00  0.00    -0.379 OA
ATOM     19  H   UNL     1     -33.973  18.952   0.476  0.00  0.00    +0.211 HD
ENDBRANCH  17  18
ENDBRANCH  14  17
ENDBRANCH   3  14
TORSDOF 7
ENDMDL
