MODEL 1
REMARK VINA RESULT:      -7.0      0.000      0.000
REMARK  Name = 5321487
REMARK  12 active torsions:
REMARK  status: ('A' for Active; 'I' for Inactive)
REMARK    1  A    between atoms: C_1  and  C_3
REMARK    2  A    between atoms: C_1  and  C_27
REMARK    3  A    between atoms: C_2  and  C_15
REMARK    4  A    between atoms: C_6  and  O_9
REMARK    5  A    between atoms: C_7  and  O_11
REMARK    6  A    between atoms: C_8  and  O_13
REMARK    7  A    between atoms: C_18  and  O_21
REMARK    8  A    between atoms: C_20  and  O_23
REMARK    9  A    between atoms: N_26  and  C_29
REMARK   10  A    between atoms: C_29  and  C_30
REMARK   11  A    between atoms: C_30  and  C_31
REMARK   12  A    between atoms: C_36  and  O_37
REMARK                            x       y       z     vdW  Elec       q    Type
REMARK                         _______ _______ _______ _____ _____    ______ ____
ROOT
ATOM      1  C   UNL     1     -35.983  26.075   2.665  0.00  0.00    +0.054 C 
ATOM      2  C   UNL     1     -35.057  25.513   3.469  0.00  0.00    +0.005 C 
ENDROOT
BRANCH   1   3
ATOM      3  C   UNL     1     -37.263  25.407   2.357  0.00  0.00    +0.011 C 
ATOM      4  C   UNL     1     -38.383  25.643   3.153  0.00  0.00    +0.040 C 
ATOM      5  C   UNL     1     -37.352  24.540   1.267  0.00  0.00    +0.040 C 
ATOM      6  C   UNL     1     -38.561  23.910   0.975  0.00  0.00    +0.175 C 
ATOM      7  C   UNL     1     -39.592  25.012   2.862  0.00  0.00    +0.175 C 
ATOM      8  C   UNL     1     -39.681  24.146   1.772  0.00  0.00    +0.202 C 
BRANCH   6   9
ATOM      9  O   UNL     1     -38.635  23.065  -0.092  0.00  0.00    -0.468 OA
ATOM     10  C   UNL     1     -37.516  23.041  -0.977  0.00  0.00    +0.253 C 
ENDBRANCH   6   9
BRANCH   7  11
ATOM     11  O   UNL     1     -40.678  25.252   3.647  0.00  0.00    -0.468 OA
ATOM     12  C   UNL     1     -41.337  26.505   3.478  0.00  0.00    +0.253 C 
ENDBRANCH   7  11
BRANCH   8  13
ATOM     13  O   UNL     1     -40.863  23.529   1.487  0.00  0.00    -0.501 OA
ATOM     14  H   UNL     1     -41.488  23.950   0.928  0.00  0.00    +0.292 HD
ENDBRANCH   8  13
ENDBRANCH   1   3
BRANCH   2  15
ATOM     15  C   UNL     1     -35.170  24.203   4.125  0.00  0.00    +0.003 C 
ATOM     16  C   UNL     1     -35.217  23.039   3.355  0.00  0.00    +0.040 C 
ATOM     17  C   UNL     1     -35.230  24.120   5.516  0.00  0.00    +0.003 C 
ATOM     18  C   UNL     1     -35.324  21.796   3.976  0.00  0.00    +0.172 C 
ATOM     19  C   UNL     1     -35.337  22.876   6.137  0.00  0.00    +0.040 C 
ATOM     20  C   UNL     1     -35.384  21.714   5.368  0.00  0.00    +0.168 C 
BRANCH  18  21
ATOM     21  O   UNL     1     -35.370  20.668   3.215  0.00  0.00    -0.468 OA
ATOM     22  C   UNL     1     -36.306  20.649   2.138  0.00  0.00    +0.253 C 
ENDBRANCH  18  21
BRANCH  20  23
ATOM     23  O   UNL     1     -35.487  20.504   5.986  0.00  0.00    -0.503 OA
ATOM     24  H   UNL     1     -35.567  20.460   6.918  0.00  0.00    +0.292 HD
ENDBRANCH  20  23
ENDBRANCH   2  15
BRANCH   1  27
ATOM     25  O   UNL     1     -35.577  27.599   0.863  0.00  0.00    -0.270 OA
ATOM     26  N   UNL     1     -35.353  28.396   3.020  0.00  0.00    -0.301 N 
ATOM     27  C   UNL     1     -35.625  27.417   2.078  0.00  0.00    +0.246 C 
ATOM     28  H   UNL     1     -35.414  28.166   3.976  0.00  0.00    +0.150 HD
BRANCH  26  29
ATOM     29  C   UNL     1     -34.983  29.742   2.649  0.00  0.00    +0.094 C 
BRANCH  29  30
ATOM     30  C   UNL     1     -33.469  29.935   2.572  0.00  0.00    +0.048 C 
BRANCH  30  31
ATOM     31  C   UNL     1     -32.784  29.751   3.904  0.00  0.00    -0.020 C 
ATOM     32  C   UNL     1     -32.403  28.477   4.322  0.00  0.00    -0.001 C 
ATOM     33  C   UNL     1     -32.534  30.856   4.717  0.00  0.00    -0.001 C 
ATOM     34  C   UNL     1     -31.769  28.307   5.554  0.00  0.00    +0.036 C 
ATOM     35  C   UNL     1     -31.900  30.686   5.949  0.00  0.00    +0.036 C 
ATOM     36  C   UNL     1     -31.519  29.412   6.367  0.00  0.00    +0.134 C 
BRANCH  36  37
ATOM     37  O   UNL     1     -30.901  29.247   7.568  0.00  0.00    -0.506 OA
ATOM     38  H   UNL     1     -31.364  29.426   8.362  0.00  0.00    +0.292 HD
ENDBRANCH  36  37
ENDBRANCH  30  31
ENDBRANCH  29  30
ENDBRANCH  26  29
ENDBRANCH   1  27
TORSDOF 12
ENDMDL
MODEL 2
REMARK VINA RESULT:      -7.0      0.158      2.342
REMARK  Name = 5321487
REMARK  12 active torsions:
REMARK  status: ('A' for Active; 'I' for Inactive)
REMARK    1  A    between atoms: C_1  and  C_3
REMARK    2  A    between atoms: C_1  and  C_27
REMARK    3  A    between atoms: C_2  and  C_15
REMARK    4  A    between atoms: C_6  and  O_9
REMARK    5  A    between atoms: C_7  and  O_11
REMARK    6  A    between atoms: C_8  and  O_13
REMARK    7  A    between atoms: C_18  and  O_21
REMARK    8  A    between atoms: C_20  and  O_23
REMARK    9  A    between atoms: N_26  and  C_29
REMARK   10  A    between atoms: C_29  and  C_30
REMARK   11  A    between atoms: C_30  and  C_31
REMARK   12  A    between atoms: C_36  and  O_37
REMARK                            x       y       z     vdW  Elec       q    Type
REMARK                         _______ _______ _______ _____ _____    ______ ____
ROOT
ATOM      1  C   UNL     1     -35.943  26.116   2.643  0.00  0.00    +0.054 C 
ATOM      2  C   UNL     1     -35.027  25.534   3.444  0.00  0.00    +0.005 C 
ENDROOT
BRANCH   1   3
ATOM      3  C   UNL     1     -37.235  25.473   2.334  0.00  0.00    +0.011 C 
ATOM      4  C   UNL     1     -37.362  24.670   1.201  0.00  0.00    +0.040 C 
ATOM      5  C   UNL     1     -38.331  25.670   3.175  0.00  0.00    +0.040 C 
ATOM      6  C   UNL     1     -39.552  25.063   2.884  0.00  0.00    +0.175 C 
ATOM      7  C   UNL     1     -38.584  24.063   0.909  0.00  0.00    +0.175 C 
ATOM      8  C   UNL     1     -39.678  24.259   1.752  0.00  0.00    +0.202 C 
BRANCH   6   9
ATOM      9  O   UNL     1     -40.614  25.264   3.714  0.00  0.00    -0.468 OA
ATOM     10  C   UNL     1     -41.347  26.476   3.545  0.00  0.00    +0.253 C 
ENDBRANCH   6   9
BRANCH   7  11
ATOM     11  O   UNL     1     -38.693  23.279  -0.199  0.00  0.00    -0.468 OA
ATOM     12  C   UNL     1     -37.542  22.530  -0.581  0.00  0.00    +0.253 C 
ENDBRANCH   7  11
BRANCH   8  13
ATOM     13  O   UNL     1     -40.872  23.665   1.467  0.00  0.00    -0.501 OA
ATOM     14  H   UNL     1     -41.296  23.834   0.648  0.00  0.00    +0.292 HD
ENDBRANCH   8  13
ENDBRANCH   1   3
BRANCH   2  15
ATOM     15  C   UNL     1     -35.164  24.223   4.095  0.00  0.00    +0.003 C 
ATOM     16  C   UNL     1     -35.125  23.056   3.329  0.00  0.00    +0.040 C 
ATOM     17  C   UNL     1     -35.333  24.144   5.477  0.00  0.00    +0.003 C 
ATOM     18  C   UNL     1     -35.254  21.812   3.946  0.00  0.00    +0.172 C 
ATOM     19  C   UNL     1     -35.462  22.900   6.094  0.00  0.00    +0.040 C 
ATOM     20  C   UNL     1     -35.423  21.734   5.329  0.00  0.00    +0.168 C 
BRANCH  18  21
ATOM     21  O   UNL     1     -35.215  20.681   3.189  0.00  0.00    -0.468 OA
ATOM     22  C   UNL     1     -36.303  20.463   2.292  0.00  0.00    +0.253 C 
ENDBRANCH  18  21
BRANCH  20  23
ATOM     23  O   UNL     1     -35.549  20.524   5.943  0.00  0.00    -0.503 OA
ATOM     24  H   UNL     1     -35.108  20.362   6.753  0.00  0.00    +0.292 HD
ENDBRANCH  20  23
ENDBRANCH   2  15
BRANCH   1  27
ATOM     25  O   UNL     1     -35.511  27.639   0.846  0.00  0.00    -0.270 OA
ATOM     26  N   UNL     1     -35.267  28.422   3.006  0.00  0.00    -0.301 N 
ATOM     27  C   UNL     1     -35.560  27.453   2.060  0.00  0.00    +0.246 C 
ATOM     28  H   UNL     1     -35.330  28.190   3.961  0.00  0.00    +0.150 HD
BRANCH  26  29
ATOM     29  C   UNL     1     -34.872  29.763   2.639  0.00  0.00    +0.094 C 
BRANCH  29  30
ATOM     30  C   UNL     1     -33.355  29.939   2.605  0.00  0.00    +0.048 C 
BRANCH  30  31
ATOM     31  C   UNL     1     -32.712  29.767   3.959  0.00  0.00    -0.020 C 
ATOM     32  C   UNL     1     -32.491  30.879   4.772  0.00  0.00    -0.001 C 
ATOM     33  C   UNL     1     -32.337  28.497   4.397  0.00  0.00    -0.001 C 
ATOM     34  C   UNL     1     -31.896  30.720   6.024  0.00  0.00    +0.036 C 
ATOM     35  C   UNL     1     -31.743  28.338   5.650  0.00  0.00    +0.036 C 
ATOM     36  C   UNL     1     -31.522  29.450   6.462  0.00  0.00    +0.134 C 
BRANCH  36  37
ATOM     37  O   UNL     1     -30.943  29.295   7.684  0.00  0.00    -0.506 OA
ATOM     38  H   UNL     1     -30.283  29.896   7.970  0.00  0.00    +0.292 HD
ENDBRANCH  36  37
ENDBRANCH  30  31
ENDBRANCH  29  30
ENDBRANCH  26  29
ENDBRANCH   1  27
TORSDOF 12
ENDMDL
MODEL 3
REMARK VINA RESULT:      -6.9      2.317      5.078
REMARK  Name = 5321487
REMARK  12 active torsions:
REMARK  status: ('A' for Active; 'I' for Inactive)
REMARK    1  A    between atoms: C_1  and  C_3
REMARK    2  A    between atoms: C_1  and  C_27
REMARK    3  A    between atoms: C_2  and  C_15
REMARK    4  A    between atoms: C_6  and  O_9
REMARK    5  A    between atoms: C_7  and  O_11
REMARK    6  A    between atoms: C_8  and  O_13
REMARK    7  A    between atoms: C_18  and  O_21
REMARK    8  A    between atoms: C_20  and  O_23
REMARK    9  A    between atoms: N_26  and  C_29
REMARK   10  A    between atoms: C_29  and  C_30
REMARK   11  A    between atoms: C_30  and  C_31
REMARK   12  A    between atoms: C_36  and  O_37
REMARK                            x       y       z     vdW  Elec       q    Type
REMARK                         _______ _______ _______ _____ _____    ______ ____
ROOT
ATOM      1  C   UNL     1     -36.398  26.131   2.394  0.00  0.00    +0.054 C 
ATOM      2  C   UNL     1     -37.042  25.043   2.864  0.00  0.00    +0.005 C 
ENDROOT
BRANCH   1   3
ATOM      3  C   UNL     1     -34.959  26.354   2.630  0.00  0.00    +0.011 C 
ATOM      4  C   UNL     1     -34.015  25.802   1.764  0.00  0.00    +0.040 C 
ATOM      5  C   UNL     1     -34.541  27.116   3.722  0.00  0.00    +0.040 C 
ATOM      6  C   UNL     1     -33.181  27.328   3.945  0.00  0.00    +0.175 C 
ATOM      7  C   UNL     1     -32.654  26.013   1.988  0.00  0.00    +0.175 C 
ATOM      8  C   UNL     1     -32.238  26.777   3.079  0.00  0.00    +0.202 C 
BRANCH   6   9
ATOM      9  O   UNL     1     -32.786  28.075   5.015  0.00  0.00    -0.468 OA
ATOM     10  C   UNL     1     -32.652  27.397   6.263  0.00  0.00    +0.253 C 
ENDBRANCH   6   9
BRANCH   7  11
ATOM     11  O   UNL     1     -31.744  25.470   1.133  0.00  0.00    -0.468 OA
ATOM     12  C   UNL     1     -31.510  26.163  -0.091  0.00  0.00    +0.253 C 
ENDBRANCH   7  11
BRANCH   8  13
ATOM     13  O   UNL     1     -30.908  26.983   3.297  0.00  0.00    -0.501 OA
ATOM     14  H   UNL     1     -30.285  26.329   3.048  0.00  0.00    +0.292 HD
ENDBRANCH   8  13
ENDBRANCH   1   3
BRANCH   2  15
ATOM     15  C   UNL     1     -36.438  23.965   3.660  0.00  0.00    +0.003 C 
ATOM     16  C   UNL     1     -36.174  22.727   3.072  0.00  0.00    +0.040 C 
ATOM     17  C   UNL     1     -36.129  24.178   5.004  0.00  0.00    +0.003 C 
ATOM     18  C   UNL     1     -35.601  21.704   3.827  0.00  0.00    +0.172 C 
ATOM     19  C   UNL     1     -35.556  23.155   5.759  0.00  0.00    +0.040 C 
ATOM     20  C   UNL     1     -35.291  21.918   5.171  0.00  0.00    +0.168 C 
BRANCH  18  21
ATOM     21  O   UNL     1     -35.348  20.500   3.242  0.00  0.00    -0.468 OA
ATOM     22  C   UNL     1     -36.009  20.228   2.008  0.00  0.00    +0.253 C 
ENDBRANCH  18  21
BRANCH  20  23
ATOM     23  O   UNL     1     -34.730  20.927   5.917  0.00  0.00    -0.503 OA
ATOM     24  H   UNL     1     -34.945  20.031   5.746  0.00  0.00    +0.292 HD
ENDBRANCH  20  23
ENDBRANCH   2  15
BRANCH   1  27
ATOM     25  O   UNL     1     -38.468  27.129   1.718  0.00  0.00    -0.270 OA
ATOM     26  N   UNL     1     -36.516  27.992   0.834  0.00  0.00    -0.301 N 
ATOM     27  C   UNL     1     -37.241  27.121   1.630  0.00  0.00    +0.246 C 
ATOM     28  H   UNL     1     -35.534  27.918   0.821  0.00  0.00    +0.150 HD
BRANCH  26  29
ATOM     29  C   UNL     1     -37.149  29.006   0.022  0.00  0.00    +0.094 C 
BRANCH  29  30
ATOM     30  C   UNL     1     -36.294  30.263  -0.120  0.00  0.00    +0.048 C 
BRANCH  30  31
ATOM     31  C   UNL     1     -35.333  30.453   1.028  0.00  0.00    -0.020 C 
ATOM     32  C   UNL     1     -33.975  30.187   0.852  0.00  0.00    -0.001 C 
ATOM     33  C   UNL     1     -35.803  30.895   2.265  0.00  0.00    -0.001 C 
ATOM     34  C   UNL     1     -33.087  30.363   1.914  0.00  0.00    +0.036 C 
ATOM     35  C   UNL     1     -34.914  31.071   3.326  0.00  0.00    +0.036 C 
ATOM     36  C   UNL     1     -33.557  30.804   3.151  0.00  0.00    +0.134 C 
BRANCH  36  37
ATOM     37  O   UNL     1     -32.690  30.977   4.185  0.00  0.00    -0.506 OA
ATOM     38  H   UNL     1     -32.711  31.768   4.687  0.00  0.00    +0.292 HD
ENDBRANCH  36  37
ENDBRANCH  30  31
ENDBRANCH  29  30
ENDBRANCH  26  29
ENDBRANCH   1  27
TORSDOF 12
ENDMDL
MODEL 4
REMARK VINA RESULT:      -6.9      2.310      4.592
REMARK  Name = 5321487
REMARK  12 active torsions:
REMARK  status: ('A' for Active; 'I' for Inactive)
REMARK    1  A    between atoms: C_1  and  C_3
REMARK    2  A    between atoms: C_1  and  C_27
REMARK    3  A    between atoms: C_2  and  C_15
REMARK    4  A    between atoms: C_6  and  O_9
REMARK    5  A    between atoms: C_7  and  O_11
REMARK    6  A    between atoms: C_8  and  O_13
REMARK    7  A    between atoms: C_18  and  O_21
REMARK    8  A    between atoms: C_20  and  O_23
REMARK    9  A    between atoms: N_26  and  C_29
REMARK   10  A    between atoms: C_29  and  C_30
REMARK   11  A    between atoms: C_30  and  C_31
REMARK   12  A    between atoms: C_36  and  O_37
REMARK                            x       y       z     vdW  Elec       q    Type
REMARK                         _______ _______ _______ _____ _____    ______ ____
ROOT
ATOM      1  C   UNL     1     -36.411  26.118   2.388  0.00  0.00    +0.054 C 
ATOM      2  C   UNL     1     -37.052  25.031   2.866  0.00  0.00    +0.005 C 
ENDROOT
BRANCH   1   3
ATOM      3  C   UNL     1     -34.972  26.347   2.624  0.00  0.00    +0.011 C 
ATOM      4  C   UNL     1     -34.556  27.104   3.719  0.00  0.00    +0.040 C 
ATOM      5  C   UNL     1     -34.028  25.805   1.752  0.00  0.00    +0.040 C 
ATOM      6  C   UNL     1     -32.668  26.020   1.975  0.00  0.00    +0.175 C 
ATOM      7  C   UNL     1     -33.196  27.321   3.942  0.00  0.00    +0.175 C 
ATOM      8  C   UNL     1     -32.252  26.777   3.069  0.00  0.00    +0.202 C 
BRANCH   6   9
ATOM      9  O   UNL     1     -31.756  25.484   1.115  0.00  0.00    -0.468 OA
ATOM     10  C   UNL     1     -32.268  24.781  -0.016  0.00  0.00    +0.253 C 
ENDBRANCH   6   9
BRANCH   7  11
ATOM     11  O   UNL     1     -32.803  28.061   5.015  0.00  0.00    -0.468 OA
ATOM     12  C   UNL     1     -32.666  27.378   6.259  0.00  0.00    +0.253 C 
ENDBRANCH   7  11
BRANCH   8  13
ATOM     13  O   UNL     1     -30.923  26.987   3.288  0.00  0.00    -0.501 OA
ATOM     14  H   UNL     1     -30.534  26.723   4.098  0.00  0.00    +0.292 HD
ENDBRANCH   8  13
ENDBRANCH   1   3
BRANCH   2  15
ATOM     15  C   UNL     1     -36.445  23.961   3.670  0.00  0.00    +0.003 C 
ATOM     16  C   UNL     1     -36.192  22.714   3.095  0.00  0.00    +0.040 C 
ATOM     17  C   UNL     1     -36.122  24.189   5.007  0.00  0.00    +0.003 C 
ATOM     18  C   UNL     1     -35.617  21.698   3.857  0.00  0.00    +0.172 C 
ATOM     19  C   UNL     1     -35.546  23.173   5.769  0.00  0.00    +0.040 C 
ATOM     20  C   UNL     1     -35.293  21.928   5.195  0.00  0.00    +0.168 C 
BRANCH  18  21
ATOM     21  O   UNL     1     -35.375  20.486   3.285  0.00  0.00    -0.468 OA
ATOM     22  C   UNL     1     -35.309  20.443   1.861  0.00  0.00    +0.253 C 
ENDBRANCH  18  21
BRANCH  20  23
ATOM     23  O   UNL     1     -34.729  20.944   5.949  0.00  0.00    -0.503 OA
ATOM     24  H   UNL     1     -33.879  21.068   6.322  0.00  0.00    +0.292 HD
ENDBRANCH  20  23
ENDBRANCH   2  15
BRANCH   1  27
ATOM     25  O   UNL     1     -38.485  27.053   1.641  0.00  0.00    -0.270 OA
ATOM     26  N   UNL     1     -36.530  28.031   0.892  0.00  0.00    -0.301 N 
ATOM     27  C   UNL     1     -37.257  27.101   1.618  0.00  0.00    +0.246 C 
ATOM     28  H   UNL     1     -35.547  27.999   0.928  0.00  0.00    +0.150 HD
BRANCH  26  29
ATOM     29  C   UNL     1     -37.165  29.047   0.085  0.00  0.00    +0.094 C 
BRANCH  29  30
ATOM     30  C   UNL     1     -36.305  30.300  -0.064  0.00  0.00    +0.048 C 
BRANCH  30  31
ATOM     31  C   UNL     1     -35.328  30.482   1.072  0.00  0.00    -0.020 C 
ATOM     32  C   UNL     1     -33.974  30.209   0.877  0.00  0.00    -0.001 C 
ATOM     33  C   UNL     1     -35.780  30.922   2.316  0.00  0.00    -0.001 C 
ATOM     34  C   UNL     1     -33.071  30.378   1.928  0.00  0.00    +0.036 C 
ATOM     35  C   UNL     1     -34.877  31.090   3.366  0.00  0.00    +0.036 C 
ATOM     36  C   UNL     1     -33.523  30.818   3.172  0.00  0.00    +0.134 C 
BRANCH  36  37
ATOM     37  O   UNL     1     -32.642  30.982   4.196  0.00  0.00    -0.506 OA
ATOM     38  H   UNL     1     -31.784  30.610   4.141  0.00  0.00    +0.292 HD
ENDBRANCH  36  37
ENDBRANCH  30  31
ENDBRANCH  29  30
ENDBRANCH  26  29
ENDBRANCH   1  27
TORSDOF 12
ENDMDL
MODEL 5
REMARK VINA RESULT:      -6.8      3.250      5.994
REMARK  Name = 5321487
REMARK  12 active torsions:
REMARK  status: ('A' for Active; 'I' for Inactive)
REMARK    1  A    between atoms: C_1  and  C_3
REMARK    2  A    between atoms: C_1  and  C_27
REMARK    3  A    between atoms: C_2  and  C_15
REMARK    4  A    between atoms: C_6  and  O_9
REMARK    5  A    between atoms: C_7  and  O_11
REMARK    6  A    between atoms: C_8  and  O_13
REMARK    7  A    between atoms: C_18  and  O_21
REMARK    8  A    between atoms: C_20  and  O_23
REMARK    9  A    between atoms: N_26  and  C_29
REMARK   10  A    between atoms: C_29  and  C_30
REMARK   11  A    between atoms: C_30  and  C_31
REMARK   12  A    between atoms: C_36  and  O_37
REMARK                            x       y       z     vdW  Elec       q    Type
REMARK                         _______ _______ _______ _____ _____    ______ ____
ROOT
ATOM      1  C   UNL     1     -36.041  26.366   2.505  0.00  0.00    +0.054 C 
ATOM      2  C   UNL     1     -36.786  25.420   3.115  0.00  0.00    +0.005 C 
ENDROOT
BRANCH   1   3
ATOM      3  C   UNL     1     -34.567  26.313   2.487  0.00  0.00    +0.011 C 
ATOM      4  C   UNL     1     -33.905  25.629   1.468  0.00  0.00    +0.040 C 
ATOM      5  C   UNL     1     -33.834  26.947   3.491  0.00  0.00    +0.040 C 
ATOM      6  C   UNL     1     -32.441  26.898   3.475  0.00  0.00    +0.175 C 
ATOM      7  C   UNL     1     -32.511  25.579   1.452  0.00  0.00    +0.175 C 
ATOM      8  C   UNL     1     -31.779  26.214   2.455  0.00  0.00    +0.202 C 
BRANCH   6   9
ATOM      9  O   UNL     1     -31.737  27.521   4.462  0.00  0.00    -0.468 OA
ATOM     10  C   UNL     1     -32.405  27.720   5.706  0.00  0.00    +0.253 C 
ENDBRANCH   6   9
BRANCH   7  11
ATOM     11  O   UNL     1     -31.877  24.909   0.450  0.00  0.00    -0.468 OA
ATOM     12  C   UNL     1     -32.607  23.869  -0.198  0.00  0.00    +0.253 C 
ENDBRANCH   7  11
BRANCH   8  13
ATOM     13  O   UNL     1     -30.416  26.166   2.439  0.00  0.00    -0.501 OA
ATOM     14  H   UNL     1     -29.930  26.823   1.981  0.00  0.00    +0.292 HD
ENDBRANCH   8  13
ENDBRANCH   1   3
BRANCH   2  15
ATOM     15  C   UNL     1     -36.265  24.249   3.834  0.00  0.00    +0.003 C 
ATOM     16  C   UNL     1     -36.144  23.023   3.178  0.00  0.00    +0.040 C 
ATOM     17  C   UNL     1     -35.891  24.362   5.173  0.00  0.00    +0.003 C 
ATOM     18  C   UNL     1     -35.650  21.912   3.860  0.00  0.00    +0.172 C 
ATOM     19  C   UNL     1     -35.397  23.251   5.856  0.00  0.00    +0.040 C 
ATOM     20  C   UNL     1     -35.276  22.026   5.200  0.00  0.00    +0.168 C 
BRANCH  18  21
ATOM     21  O   UNL     1     -35.538  20.721   3.209  0.00  0.00    -0.468 OA
ATOM     22  C   UNL     1     -36.361  20.530   2.060  0.00  0.00    +0.253 C 
ENDBRANCH  18  21
BRANCH  20  23
ATOM     23  O   UNL     1     -34.791  20.948   5.876  0.00  0.00    -0.503 OA
ATOM     24  H   UNL     1     -34.923  20.084   5.538  0.00  0.00    +0.292 HD
ENDBRANCH  20  23
ENDBRANCH   2  15
BRANCH   1  27
ATOM     25  O   UNL     1     -37.965  27.358   1.479  0.00  0.00    -0.270 OA
ATOM     26  N   UNL     1     -36.082  28.672   1.735  0.00  0.00    -0.301 N 
ATOM     27  C   UNL     1     -36.804  27.496   1.860  0.00  0.00    +0.246 C 
ATOM     28  H   UNL     1     -35.155  28.698   2.067  0.00  0.00    +0.150 HD
BRANCH  26  29
ATOM     29  C   UNL     1     -36.642  29.861   1.136  0.00  0.00    +0.094 C 
BRANCH  29  30
ATOM     30  C   UNL     1     -35.690  31.054   1.199  0.00  0.00    +0.048 C 
BRANCH  30  31
ATOM     31  C   UNL     1     -36.409  32.375   1.322  0.00  0.00    -0.020 C 
ATOM     32  C   UNL     1     -37.738  32.408   1.743  0.00  0.00    -0.001 C 
ATOM     33  C   UNL     1     -35.745  33.562   1.014  0.00  0.00    -0.001 C 
ATOM     34  C   UNL     1     -38.403  33.629   1.858  0.00  0.00    +0.036 C 
ATOM     35  C   UNL     1     -36.410  34.783   1.129  0.00  0.00    +0.036 C 
ATOM     36  C   UNL     1     -37.739  34.816   1.550  0.00  0.00    +0.134 C 
BRANCH  36  37
ATOM     37  O   UNL     1     -38.387  36.008   1.662  0.00  0.00    -0.506 OA
ATOM     38  H   UNL     1     -38.366  36.621   0.954  0.00  0.00    +0.292 HD
ENDBRANCH  36  37
ENDBRANCH  30  31
ENDBRANCH  29  30
ENDBRANCH  26  29
ENDBRANCH   1  27
TORSDOF 12
ENDMDL
MODEL 6
REMARK VINA RESULT:      -6.7      3.259      5.675
REMARK  Name = 5321487
REMARK  12 active torsions:
REMARK  status: ('A' for Active; 'I' for Inactive)
REMARK    1  A    between atoms: C_1  and  C_3
REMARK    2  A    between atoms: C_1  and  C_27
REMARK    3  A    between atoms: C_2  and  C_15
REMARK    4  A    between atoms: C_6  and  O_9
REMARK    5  A    between atoms: C_7  and  O_11
REMARK    6  A    between atoms: C_8  and  O_13
REMARK    7  A    between atoms: C_18  and  O_21
REMARK    8  A    between atoms: C_20  and  O_23
REMARK    9  A    between atoms: N_26  and  C_29
REMARK   10  A    between atoms: C_29  and  C_30
REMARK   11  A    between atoms: C_30  and  C_31
REMARK   12  A    between atoms: C_36  and  O_37
REMARK                            x       y       z     vdW  Elec       q    Type
REMARK                         _______ _______ _______ _____ _____    ______ ____
ROOT
ATOM      1  C   UNL     1     -36.059  26.350   2.481  0.00  0.00    +0.054 C 
ATOM      2  C   UNL     1     -36.807  25.408   3.092  0.00  0.00    +0.005 C 
ENDROOT
BRANCH   1   3
ATOM      3  C   UNL     1     -34.585  26.289   2.461  0.00  0.00    +0.011 C 
ATOM      4  C   UNL     1     -33.846  26.931   3.454  0.00  0.00    +0.040 C 
ATOM      5  C   UNL     1     -33.929  25.588   1.448  0.00  0.00    +0.040 C 
ATOM      6  C   UNL     1     -32.536  25.529   1.429  0.00  0.00    +0.175 C 
ATOM      7  C   UNL     1     -32.452  26.874   3.435  0.00  0.00    +0.175 C 
ATOM      8  C   UNL     1     -31.798  26.172   2.423  0.00  0.00    +0.202 C 
BRANCH   6   9
ATOM      9  O   UNL     1     -31.908  24.841   0.435  0.00  0.00    -0.468 OA
ATOM     10  C   UNL     1     -32.694  23.904  -0.299  0.00  0.00    +0.253 C 
ENDBRANCH   6   9
BRANCH   7  11
ATOM     11  O   UNL     1     -31.744  27.504   4.412  0.00  0.00    -0.468 OA
ATOM     12  C   UNL     1     -31.704  28.929   4.368  0.00  0.00    +0.253 C 
ENDBRANCH   7  11
BRANCH   8  13
ATOM     13  O   UNL     1     -30.436  26.115   2.405  0.00  0.00    -0.501 OA
ATOM     14  H   UNL     1     -30.001  25.446   1.912  0.00  0.00    +0.292 HD
ENDBRANCH   8  13
ENDBRANCH   1   3
BRANCH   2  15
ATOM     15  C   UNL     1     -36.291  24.235   3.812  0.00  0.00    +0.003 C 
ATOM     16  C   UNL     1     -36.193  23.005   3.161  0.00  0.00    +0.040 C 
ATOM     17  C   UNL     1     -35.900  24.351   5.146  0.00  0.00    +0.003 C 
ATOM     18  C   UNL     1     -35.704  21.891   3.843  0.00  0.00    +0.172 C 
ATOM     19  C   UNL     1     -35.410  23.238   5.828  0.00  0.00    +0.040 C 
ATOM     20  C   UNL     1     -35.312  22.008   5.178  0.00  0.00    +0.168 C 
BRANCH  18  21
ATOM     21  O   UNL     1     -35.614  20.696   3.198  0.00  0.00    -0.468 OA
ATOM     22  C   UNL     1     -36.105  20.642   1.860  0.00  0.00    +0.253 C 
ENDBRANCH  18  21
BRANCH  20  23
ATOM     23  O   UNL     1     -34.831  20.928   5.854  0.00  0.00    -0.503 OA
ATOM     24  H   UNL     1     -34.103  21.025   6.435  0.00  0.00    +0.292 HD
ENDBRANCH  20  23
ENDBRANCH   2  15
BRANCH   1  27
ATOM     25  O   UNL     1     -37.975  27.347   1.446  0.00  0.00    -0.270 OA
ATOM     26  N   UNL     1     -36.094  28.660   1.723  0.00  0.00    -0.301 N 
ATOM     27  C   UNL     1     -36.817  27.483   1.837  0.00  0.00    +0.246 C 
ATOM     28  H   UNL     1     -35.170  28.684   2.062  0.00  0.00    +0.150 HD
BRANCH  26  29
ATOM     29  C   UNL     1     -36.649  29.852   1.125  0.00  0.00    +0.094 C 
BRANCH  29  30
ATOM     30  C   UNL     1     -35.718  31.056   1.245  0.00  0.00    +0.048 C 
BRANCH  30  31
ATOM     31  C   UNL     1     -36.461  32.366   1.356  0.00  0.00    -0.020 C 
ATOM     32  C   UNL     1     -37.804  32.375   1.729  0.00  0.00    -0.001 C 
ATOM     33  C   UNL     1     -35.803  33.565   1.085  0.00  0.00    -0.001 C 
ATOM     34  C   UNL     1     -38.491  33.586   1.832  0.00  0.00    +0.036 C 
ATOM     35  C   UNL     1     -36.490  34.776   1.188  0.00  0.00    +0.036 C 
ATOM     36  C   UNL     1     -37.834  34.785   1.561  0.00  0.00    +0.134 C 
BRANCH  36  37
ATOM     37  O   UNL     1     -38.503  35.966   1.661  0.00  0.00    -0.506 OA
ATOM     38  H   UNL     1     -38.028  36.765   1.777  0.00  0.00    +0.292 HD
ENDBRANCH  36  37
ENDBRANCH  30  31
ENDBRANCH  29  30
ENDBRANCH  26  29
ENDBRANCH   1  27
TORSDOF 12
ENDMDL
MODEL 7
REMARK VINA RESULT:      -6.6      2.936      6.346
REMARK  Name = 5321487
REMARK  12 active torsions:
REMARK  status: ('A' for Active; 'I' for Inactive)
REMARK    1  A    between atoms: C_1  and  C_3
REMARK    2  A    between atoms: C_1  and  C_27
REMARK    3  A    between atoms: C_2  and  C_15
REMARK    4  A    between atoms: C_6  and  O_9
REMARK    5  A    between atoms: C_7  and  O_11
REMARK    6  A    between atoms: C_8  and  O_13
REMARK    7  A    between atoms: C_18  and  O_21
REMARK    8  A    between atoms: C_20  and  O_23
REMARK    9  A    between atoms: N_26  and  C_29
REMARK   10  A    between atoms: C_29  and  C_30
REMARK   11  A    between atoms: C_30  and  C_31
REMARK   12  A    between atoms: C_36  and  O_37
REMARK                            x       y       z     vdW  Elec       q    Type
REMARK                         _______ _______ _______ _____ _____    ______ ____
ROOT
ATOM      1  C   UNL     1     -37.223  22.313   1.891  0.00  0.00    +0.054 C 
ATOM      2  C   UNL     1     -37.956  21.505   1.097  0.00  0.00    +0.005 C 
ENDROOT
BRANCH   1   3
ATOM      3  C   UNL     1     -37.301  23.784   1.798  0.00  0.00    +0.011 C 
ATOM      4  C   UNL     1     -36.335  24.490   1.083  0.00  0.00    +0.040 C 
ATOM      5  C   UNL     1     -38.343  24.468   2.426  0.00  0.00    +0.040 C 
ATOM      6  C   UNL     1     -38.418  25.857   2.338  0.00  0.00    +0.175 C 
ATOM      7  C   UNL     1     -36.409  25.881   0.995  0.00  0.00    +0.175 C 
ATOM      8  C   UNL     1     -37.452  26.564   1.622  0.00  0.00    +0.202 C 
BRANCH   6   9
ATOM      9  O   UNL     1     -39.440  26.513   2.956  0.00  0.00    -0.468 OA
ATOM     10  C   UNL     1     -40.670  25.805   3.100  0.00  0.00    +0.253 C 
ENDBRANCH   6   9
BRANCH   7  11
ATOM     11  O   UNL     1     -35.460  26.558   0.292  0.00  0.00    -0.468 OA
ATOM     12  C   UNL     1     -34.219  25.893   0.071  0.00  0.00    +0.253 C 
ENDBRANCH   7  11
BRANCH   8  13
ATOM     13  O   UNL     1     -37.525  27.923   1.536  0.00  0.00    -0.501 OA
ATOM     14  H   UNL     1     -37.697  28.432   2.303  0.00  0.00    +0.292 HD
ENDBRANCH   8  13
ENDBRANCH   1   3
BRANCH   2  15
ATOM     15  C   UNL     1     -38.895  21.945   0.056  0.00  0.00    +0.003 C 
ATOM     16  C   UNL     1     -40.212  22.264   0.393  0.00  0.00    +0.040 C 
ATOM     17  C   UNL     1     -38.472  22.044  -1.269  0.00  0.00    +0.003 C 
ATOM     18  C   UNL     1     -41.103  22.682  -0.594  0.00  0.00    +0.172 C 
ATOM     19  C   UNL     1     -39.363  22.462  -2.257  0.00  0.00    +0.040 C 
ATOM     20  C   UNL     1     -40.679  22.781  -1.920  0.00  0.00    +0.168 C 
BRANCH  18  21
ATOM     21  O   UNL     1     -42.385  22.990  -0.254  0.00  0.00    -0.468 OA
ATOM     22  C   UNL     1     -42.632  24.316   0.211  0.00  0.00    +0.253 C 
ENDBRANCH  18  21
BRANCH  20  23
ATOM     23  O   UNL     1     -41.540  23.190  -2.893  0.00  0.00    -0.503 OA
ATOM     24  H   UNL     1     -41.619  22.697  -3.686  0.00  0.00    +0.292 HD
ENDBRANCH  20  23
ENDBRANCH   2  15
BRANCH   1  27
ATOM     25  O   UNL     1     -35.582  20.687   2.523  0.00  0.00    -0.270 OA
ATOM     26  N   UNL     1     -36.345  22.137   4.151  0.00  0.00    -0.301 N 
ATOM     27  C   UNL     1     -36.299  21.625   2.864  0.00  0.00    +0.246 C 
ATOM     28  H   UNL     1     -36.949  22.892   4.341  0.00  0.00    +0.150 HD
BRANCH  26  29
ATOM     29  C   UNL     1     -35.538  21.603   5.223  0.00  0.00    +0.094 C 
BRANCH  29  30
ATOM     30  C   UNL     1     -34.911  22.696   6.087  0.00  0.00    +0.048 C 
BRANCH  30  31
ATOM     31  C   UNL     1     -34.971  24.060   5.443  0.00  0.00    -0.020 C 
ATOM     32  C   UNL     1     -33.976  24.453   4.549  0.00  0.00    -0.001 C 
ATOM     33  C   UNL     1     -36.021  24.928   5.745  0.00  0.00    -0.001 C 
ATOM     34  C   UNL     1     -34.031  25.715   3.954  0.00  0.00    +0.036 C 
ATOM     35  C   UNL     1     -36.076  26.189   5.150  0.00  0.00    +0.036 C 
ATOM     36  C   UNL     1     -35.081  26.582   4.255  0.00  0.00    +0.134 C 
BRANCH  36  37
ATOM     37  O   UNL     1     -35.136  27.811   3.675  0.00  0.00    -0.506 OA
ATOM     38  H   UNL     1     -35.941  28.122   3.309  0.00  0.00    +0.292 HD
ENDBRANCH  36  37
ENDBRANCH  30  31
ENDBRANCH  29  30
ENDBRANCH  26  29
ENDBRANCH   1  27
TORSDOF 12
ENDMDL
MODEL 8
REMARK VINA RESULT:      -6.6      3.870      8.085
REMARK  Name = 5321487
REMARK  12 active torsions:
REMARK  status: ('A' for Active; 'I' for Inactive)
REMARK    1  A    between atoms: C_1  and  C_3
REMARK    2  A    between atoms: C_1  and  C_27
REMARK    3  A    between atoms: C_2  and  C_15
REMARK    4  A    between atoms: C_6  and  O_9
REMARK    5  A    between atoms: C_7  and  O_11
REMARK    6  A    between atoms: C_8  and  O_13
REMARK    7  A    between atoms: C_18  and  O_21
REMARK    8  A    between atoms: C_20  and  O_23
REMARK    9  A    between atoms: N_26  and  C_29
REMARK   10  A    between atoms: C_29  and  C_30
REMARK   11  A    between atoms: C_30  and  C_31
REMARK   12  A    between atoms: C_36  and  O_37
REMARK                            x       y       z     vdW  Elec       q    Type
REMARK                         _______ _______ _______ _____ _____    ______ ____
ROOT
ATOM      1  C   UNL     1     -35.940  22.719   1.348  0.00  0.00    +0.054 C 
ATOM      2  C   UNL     1     -37.217  22.956   0.986  0.00  0.00    +0.005 C 
ENDROOT
BRANCH   1   3
ATOM      3  C   UNL     1     -35.278  23.474   2.430  0.00  0.00    +0.011 C 
ATOM      4  C   UNL     1     -34.490  24.583   2.126  0.00  0.00    +0.040 C 
ATOM      5  C   UNL     1     -35.443  23.079   3.758  0.00  0.00    +0.040 C 
ATOM      6  C   UNL     1     -34.820  23.793   4.781  0.00  0.00    +0.175 C 
ATOM      7  C   UNL     1     -33.865  25.297   3.149  0.00  0.00    +0.175 C 
ATOM      8  C   UNL     1     -34.031  24.902   4.476  0.00  0.00    +0.202 C 
BRANCH   6   9
ATOM      9  O   UNL     1     -34.989  23.397   6.074  0.00  0.00    -0.468 OA
ATOM     10  C   UNL     1     -35.421  22.054   6.288  0.00  0.00    +0.253 C 
ENDBRANCH   6   9
BRANCH   7  11
ATOM     11  O   UNL     1     -33.098  26.379   2.837  0.00  0.00    -0.468 OA
ATOM     12  C   UNL     1     -33.778  27.611   2.606  0.00  0.00    +0.253 C 
ENDBRANCH   7  11
BRANCH   8  13
ATOM     13  O   UNL     1     -33.421  25.601   5.476  0.00  0.00    -0.501 OA
ATOM     14  H   UNL     1     -32.920  26.366   5.274  0.00  0.00    +0.292 HD
ENDBRANCH   8  13
ENDBRANCH   1   3
BRANCH   2  15
ATOM     15  C   UNL     1     -38.105  23.967   1.578  0.00  0.00    +0.003 C 
ATOM     16  C   UNL     1     -38.123  25.265   1.065  0.00  0.00    +0.040 C 
ATOM     17  C   UNL     1     -38.929  23.630   2.651  0.00  0.00    +0.003 C 
ATOM     18  C   UNL     1     -38.965  26.225   1.627  0.00  0.00    +0.172 C 
ATOM     19  C   UNL     1     -39.771  24.589   3.212  0.00  0.00    +0.040 C 
ATOM     20  C   UNL     1     -39.790  25.887   2.700  0.00  0.00    +0.168 C 
BRANCH  18  21
ATOM     21  O   UNL     1     -38.973  27.488   1.119  0.00  0.00    -0.468 OA
ATOM     22  C   UNL     1     -39.683  27.692  -0.101  0.00  0.00    +0.253 C 
ENDBRANCH  18  21
BRANCH  20  23
ATOM     23  O   UNL     1     -40.617  26.815   3.256  0.00  0.00    -0.503 OA
ATOM     24  H   UNL     1     -40.367  27.255   4.044  0.00  0.00    +0.292 HD
ENDBRANCH  20  23
ENDBRANCH   2  15
BRANCH   1  27
ATOM     25  O   UNL     1     -34.722  21.879  -0.535  0.00  0.00    -0.270 OA
ATOM     26  N   UNL     1     -35.174  20.416   1.195  0.00  0.00    -0.301 N 
ATOM     27  C   UNL     1     -35.216  21.650   0.568  0.00  0.00    +0.246 C 
ATOM     28  H   UNL     1     -35.597  20.318   2.080  0.00  0.00    +0.150 HD
BRANCH  26  29
ATOM     29  C   UNL     1     -34.532  19.268   0.598  0.00  0.00    +0.094 C 
BRANCH  29  30
ATOM     30  C   UNL     1     -33.369  18.744   1.438  0.00  0.00    +0.048 C 
BRANCH  30  31
ATOM     31  C   UNL     1     -32.026  18.960   0.783  0.00  0.00    -0.020 C 
ATOM     32  C   UNL     1     -31.031  17.991   0.899  0.00  0.00    -0.001 C 
ATOM     33  C   UNL     1     -31.782  20.129   0.063  0.00  0.00    -0.001 C 
ATOM     34  C   UNL     1     -29.789  18.190   0.293  0.00  0.00    +0.036 C 
ATOM     35  C   UNL     1     -30.541  20.328  -0.543  0.00  0.00    +0.036 C 
ATOM     36  C   UNL     1     -29.545  19.359  -0.427  0.00  0.00    +0.134 C 
BRANCH  36  37
ATOM     37  O   UNL     1     -28.335  19.554  -1.018  0.00  0.00    -0.506 OA
ATOM     38  H   UNL     1     -27.935  20.401  -1.001  0.00  0.00    +0.292 HD
ENDBRANCH  36  37
ENDBRANCH  30  31
ENDBRANCH  29  30
ENDBRANCH  26  29
ENDBRANCH   1  27
TORSDOF 12
ENDMDL
MODEL 9
REMARK VINA RESULT:      -6.6      3.889      8.073
REMARK  Name = 5321487
REMARK  12 active torsions:
REMARK  status: ('A' for Active; 'I' for Inactive)
REMARK    1  A    between atoms: C_1  and  C_3
REMARK    2  A    between atoms: C_1  and  C_27
REMARK    3  A    between atoms: C_2  and  C_15
REMARK    4  A    between atoms: C_6  and  O_9
REMARK    5  A    between atoms: C_7  and  O_11
REMARK    6  A    between atoms: C_8  and  O_13
REMARK    7  A    between atoms: C_18  and  O_21
REMARK    8  A    between atoms: C_20  and  O_23
REMARK    9  A    between atoms: N_26  and  C_29
REMARK   10  A    between atoms: C_29  and  C_30
REMARK   11  A    between atoms: C_30  and  C_31
REMARK   12  A    between atoms: C_36  and  O_37
REMARK                            x       y       z     vdW  Elec       q    Type
REMARK                         _______ _______ _______ _____ _____    ______ ____
ROOT
ATOM      1  C   UNL     1     -35.963  22.704   1.326  0.00  0.00    +0.054 C 
ATOM      2  C   UNL     1     -37.241  22.934   0.959  0.00  0.00    +0.005 C 
ENDROOT
BRANCH   1   3
ATOM      3  C   UNL     1     -35.299  23.485   2.387  0.00  0.00    +0.011 C 
ATOM      4  C   UNL     1     -35.426  23.099   3.721  0.00  0.00    +0.040 C 
ATOM      5  C   UNL     1     -34.543  24.610   2.056  0.00  0.00    +0.040 C 
ATOM      6  C   UNL     1     -33.914  25.348   3.058  0.00  0.00    +0.175 C 
ATOM      7  C   UNL     1     -34.798  23.838   4.725  0.00  0.00    +0.175 C 
ATOM      8  C   UNL     1     -34.042  24.962   4.392  0.00  0.00    +0.202 C 
BRANCH   6   9
ATOM      9  O   UNL     1     -33.179  26.445   2.721  0.00  0.00    -0.468 OA
ATOM     10  C   UNL     1     -31.885  26.211   2.167  0.00  0.00    +0.253 C 
ENDBRANCH   6   9
BRANCH   7  11
ATOM     11  O   UNL     1     -34.930  23.450   6.023  0.00  0.00    -0.468 OA
ATOM     12  C   UNL     1     -35.435  22.137   6.259  0.00  0.00    +0.253 C 
ENDBRANCH   7  11
BRANCH   8  13
ATOM     13  O   UNL     1     -33.427  25.684   5.373  0.00  0.00    -0.501 OA
ATOM     14  H   UNL     1     -33.253  26.595   5.244  0.00  0.00    +0.292 HD
ENDBRANCH   8  13
ENDBRANCH   1   3
BRANCH   2  15
ATOM     15  C   UNL     1     -38.126  23.960   1.528  0.00  0.00    +0.003 C 
ATOM     16  C   UNL     1     -38.140  25.247   0.986  0.00  0.00    +0.040 C 
ATOM     17  C   UNL     1     -38.951  23.650   2.608  0.00  0.00    +0.003 C 
ATOM     18  C   UNL     1     -38.980  26.221   1.525  0.00  0.00    +0.172 C 
ATOM     19  C   UNL     1     -39.791  24.624   3.147  0.00  0.00    +0.040 C 
ATOM     20  C   UNL     1     -39.806  25.910   2.606  0.00  0.00    +0.168 C 
BRANCH  18  21
ATOM     21  O   UNL     1     -38.985  27.473   0.989  0.00  0.00    -0.468 OA
ATOM     22  C   UNL     1     -39.706  27.653  -0.229  0.00  0.00    +0.253 C 
ENDBRANCH  18  21
BRANCH  20  23
ATOM     23  O   UNL     1     -40.632  26.852   3.140  0.00  0.00    -0.503 OA
ATOM     24  H   UNL     1     -40.914  26.778   4.030  0.00  0.00    +0.292 HD
ENDBRANCH  20  23
ENDBRANCH   2  15
BRANCH   1  27
ATOM     25  O   UNL     1     -34.763  21.812  -0.545  0.00  0.00    -0.270 OA
ATOM     26  N   UNL     1     -35.184  20.403   1.236  0.00  0.00    -0.301 N 
ATOM     27  C   UNL     1     -35.242  21.616   0.570  0.00  0.00    +0.246 C 
ATOM     28  H   UNL     1     -35.595  20.330   2.128  0.00  0.00    +0.150 HD
BRANCH  26  29
ATOM     29  C   UNL     1     -34.542  19.240   0.667  0.00  0.00    +0.094 C 
BRANCH  29  30
ATOM     30  C   UNL     1     -33.359  18.756   1.503  0.00  0.00    +0.048 C 
BRANCH  30  31
ATOM     31  C   UNL     1     -32.031  18.959   0.816  0.00  0.00    -0.020 C 
ATOM     32  C   UNL     1     -31.791  20.128   0.096  0.00  0.00    -0.001 C 
ATOM     33  C   UNL     1     -31.045  17.976   0.900  0.00  0.00    -0.001 C 
ATOM     34  C   UNL     1     -30.563  20.316  -0.540  0.00  0.00    +0.036 C 
ATOM     35  C   UNL     1     -29.817  18.164   0.264  0.00  0.00    +0.036 C 
ATOM     36  C   UNL     1     -29.577  19.334  -0.456  0.00  0.00    +0.134 C 
BRANCH  36  37
ATOM     37  O   UNL     1     -28.379  19.517  -1.075  0.00  0.00    -0.506 OA
ATOM     38  H   UNL     1     -27.849  20.259  -0.860  0.00  0.00    +0.292 HD
ENDBRANCH  36  37
ENDBRANCH  30  31
ENDBRANCH  29  30
ENDBRANCH  26  29
ENDBRANCH   1  27
TORSDOF 12
ENDMDL
