MODEL 1
REMARK VINA RESULT:      -6.4      0.000      0.000
REMARK  Name = 54679752
REMARK  5 active torsions:
REMARK  status: ('A' for Active; 'I' for Inactive)
REMARK    1  A    between atoms: C_3  and  C_12
REMARK    2  A    between atoms: C_5  and  O_22
REMARK    3  A    between atoms: C_11  and  O_24
REMARK    4  A    between atoms: C_13  and  O_18
REMARK    5  A    between atoms: C_17  and  O_20
REMARK                            x       y       z     vdW  Elec       q    Type
REMARK                         _______ _______ _______ _____ _____    ______ ____
ROOT
ATOM      1  O   UNL     1     -34.856  24.411   5.950  0.00  0.00    -0.421 OA
ATOM      2  O   UNL     1     -36.055  22.481   5.799  0.00  0.00    -0.244 OA
ATOM      3  C   UNL     1     -35.310  23.426   3.747  0.00  0.00    +0.113 A 
ATOM      4  C   UNL     1     -34.027  25.496   3.938  0.00  0.00    +0.069 A 
ATOM      5  C   UNL     1     -34.637  24.428   3.146  0.00  0.00    +0.143 A 
ATOM      6  C   UNL     1     -34.155  25.456   5.323  0.00  0.00    +0.155 A 
ATOM      7  C   UNL     1     -35.447  23.383   5.230  0.00  0.00    +0.349 A 
ATOM      8  C   UNL     1     -33.314  26.565   3.376  0.00  0.00    +0.009 C 
ATOM      9  C   UNL     1     -33.603  26.435   6.150  0.00  0.00    +0.074 C 
ATOM     10  C   UNL     1     -32.755  27.554   4.191  0.00  0.00    +0.037 C 
ATOM     11  C   UNL     1     -32.900  27.489   5.576  0.00  0.00    +0.137 C 
ENDROOT
BRANCH   3  12
ATOM     12  C   UNL     1     -35.929  22.343   2.960  0.00  0.00    +0.043 C 
ATOM     13  C   UNL     1     -37.285  22.380   2.630  0.00  0.00    +0.137 C 
ATOM     14  C   UNL     1     -35.139  21.272   2.545  0.00  0.00    +0.006 C 
ATOM     15  C   UNL     1     -37.848  21.344   1.885  0.00  0.00    +0.073 C 
ATOM     16  C   UNL     1     -35.703  20.237   1.800  0.00  0.00    +0.037 C 
ATOM     17  C   UNL     1     -37.058  20.273   1.469  0.00  0.00    +0.137 C 
BRANCH  13  18
ATOM     18  O   UNL     1     -38.080  23.414   3.024  0.00  0.00    -0.505 OA
ATOM     19  H   UNL     1     -38.027  24.240   2.585  0.00  0.00    +0.292 HD
ENDBRANCH  13  18
BRANCH  17  20
ATOM     20  O   UNL     1     -37.607  19.263   0.742  0.00  0.00    -0.505 OA
ATOM     21  H   UNL     1     -37.891  18.478   1.170  0.00  0.00    +0.292 HD
ENDBRANCH  17  20
ENDBRANCH   3  12
BRANCH   5  22
ATOM     22  O   UNL     1     -34.463  24.543   1.782  0.00  0.00    -0.505 OA
ATOM     23  H   UNL     1     -34.634  25.360   1.355  0.00  0.00    +0.292 HD
ENDBRANCH   5  22
BRANCH  11  24
ATOM     24  O   UNL     1     -32.353  28.455   6.365  0.00  0.00    -0.505 OA
ATOM     25  H   UNL     1     -32.861  28.843   7.049  0.00  0.00    +0.292 HD
ENDBRANCH  11  24
TORSDOF 5
ENDMDL
MODEL 2
REMARK VINA RESULT:      -6.1      2.311      4.089
REMARK  Name = 54679752
REMARK  5 active torsions:
REMARK  status: ('A' for Active; 'I' for Inactive)
REMARK    1  A    between atoms: C_3  and  C_12
REMARK    2  A    between atoms: C_5  and  O_22
REMARK    3  A    between atoms: C_11  and  O_24
REMARK    4  A    between atoms: C_13  and  O_18
REMARK    5  A    between atoms: C_17  and  O_20
REMARK                            x       y       z     vdW  Elec       q    Type
REMARK                         _______ _______ _______ _____ _____    ______ ____
ROOT
ATOM      1  O   UNL     1     -34.600  23.785   1.371  0.00  0.00    -0.421 OA
ATOM      2  O   UNL     1     -34.040  22.364  -0.318  0.00  0.00    -0.244 OA
ATOM      3  C   UNL     1     -34.828  21.360   1.688  0.00  0.00    +0.113 A 
ATOM      4  C   UNL     1     -35.421  22.906   3.485  0.00  0.00    +0.069 A 
ATOM      5  C   UNL     1     -35.283  21.554   2.942  0.00  0.00    +0.143 A 
ATOM      6  C   UNL     1     -35.074  23.986   2.679  0.00  0.00    +0.155 A 
ATOM      7  C   UNL     1     -34.456  22.516   0.826  0.00  0.00    +0.349 A 
ATOM      8  C   UNL     1     -35.888  23.177   4.779  0.00  0.00    +0.009 C 
ATOM      9  C   UNL     1     -35.177  25.307   3.120  0.00  0.00    +0.074 C 
ATOM     10  C   UNL     1     -35.997  24.494   5.235  0.00  0.00    +0.037 C 
ATOM     11  C   UNL     1     -35.641  25.557   4.407  0.00  0.00    +0.137 C 
ENDROOT
BRANCH   3  12
ATOM     12  C   UNL     1     -34.684  20.003   1.131  0.00  0.00    +0.043 C 
ATOM     13  C   UNL     1     -35.707  19.421   0.381  0.00  0.00    +0.137 C 
ATOM     14  C   UNL     1     -33.502  19.299   1.362  0.00  0.00    +0.006 C 
ATOM     15  C   UNL     1     -35.547  18.136  -0.137  0.00  0.00    +0.073 C 
ATOM     16  C   UNL     1     -33.343  18.014   0.844  0.00  0.00    +0.037 C 
ATOM     17  C   UNL     1     -34.365  17.432   0.094  0.00  0.00    +0.137 C 
BRANCH  13  18
ATOM     18  O   UNL     1     -36.872  20.086   0.141  0.00  0.00    -0.505 OA
ATOM     19  H   UNL     1     -37.529  20.136   0.807  0.00  0.00    +0.292 HD
ENDBRANCH  13  18
BRANCH  17  20
ATOM     20  O   UNL     1     -34.209  16.178  -0.411  0.00  0.00    -0.505 OA
ATOM     21  H   UNL     1     -33.355  15.868  -0.640  0.00  0.00    +0.292 HD
ENDBRANCH  17  20
ENDBRANCH   3  12
BRANCH   5  22
ATOM     22  O   UNL     1     -35.648  20.541   3.806  0.00  0.00    -0.505 OA
ATOM     23  H   UNL     1     -36.489  20.135   3.724  0.00  0.00    +0.292 HD
ENDBRANCH   5  22
BRANCH  11  24
ATOM     24  O   UNL     1     -35.749  26.837   4.857  0.00  0.00    -0.505 OA
ATOM     25  H   UNL     1     -36.266  27.025   5.615  0.00  0.00    +0.292 HD
ENDBRANCH  11  24
TORSDOF 5
ENDMDL
MODEL 3
REMARK VINA RESULT:      -6.0      1.985      3.152
REMARK  Name = 54679752
REMARK  5 active torsions:
REMARK  status: ('A' for Active; 'I' for Inactive)
REMARK    1  A    between atoms: C_3  and  C_12
REMARK    2  A    between atoms: C_5  and  O_22
REMARK    3  A    between atoms: C_11  and  O_24
REMARK    4  A    between atoms: C_13  and  O_18
REMARK    5  A    between atoms: C_17  and  O_20
REMARK                            x       y       z     vdW  Elec       q    Type
REMARK                         _______ _______ _______ _____ _____    ______ ____
ROOT
ATOM      1  O   UNL     1     -34.454  27.059   2.697  0.00  0.00    -0.421 OA
ATOM      2  O   UNL     1     -35.967  26.296   1.177  0.00  0.00    -0.244 OA
ATOM      3  C   UNL     1     -36.111  25.374   3.364  0.00  0.00    +0.113 A 
ATOM      4  C   UNL     1     -34.476  26.210   4.975  0.00  0.00    +0.069 A 
ATOM      5  C   UNL     1     -35.609  25.356   4.615  0.00  0.00    +0.143 A 
ATOM      6  C   UNL     1     -33.931  27.040   4.001  0.00  0.00    +0.155 A 
ATOM      7  C   UNL     1     -35.527  26.263   2.321  0.00  0.00    +0.349 A 
ATOM      8  C   UNL     1     -33.907  26.239   6.257  0.00  0.00    +0.009 C 
ATOM      9  C   UNL     1     -32.850  27.884   4.264  0.00  0.00    +0.074 C 
ATOM     10  C   UNL     1     -32.825  27.080   6.535  0.00  0.00    +0.037 C 
ATOM     11  C   UNL     1     -32.297  27.901   5.540  0.00  0.00    +0.137 C 
ENDROOT
BRANCH   3  12
ATOM     12  C   UNL     1     -37.252  24.519   2.988  0.00  0.00    +0.043 C 
ATOM     13  C   UNL     1     -38.561  24.999   3.046  0.00  0.00    +0.137 C 
ATOM     14  C   UNL     1     -37.007  23.211   2.568  0.00  0.00    +0.006 C 
ATOM     15  C   UNL     1     -39.624  24.171   2.685  0.00  0.00    +0.073 C 
ATOM     16  C   UNL     1     -38.070  22.384   2.207  0.00  0.00    +0.037 C 
ATOM     17  C   UNL     1     -39.379  22.863   2.265  0.00  0.00    +0.137 C 
BRANCH  13  18
ATOM     18  O   UNL     1     -38.829  26.272   3.453  0.00  0.00    -0.505 OA
ATOM     19  H   UNL     1     -38.249  26.970   3.221  0.00  0.00    +0.292 HD
ENDBRANCH  13  18
BRANCH  17  20
ATOM     20  O   UNL     1     -40.415  22.056   1.913  0.00  0.00    -0.505 OA
ATOM     21  H   UNL     1     -41.137  21.936   2.500  0.00  0.00    +0.292 HD
ENDBRANCH  17  20
ENDBRANCH   3  12
BRANCH   5  22
ATOM     22  O   UNL     1     -36.090  24.565   5.638  0.00  0.00    -0.505 OA
ATOM     23  H   UNL     1     -36.884  24.080   5.523  0.00  0.00    +0.292 HD
ENDBRANCH   5  22
BRANCH  11  24
ATOM     24  O   UNL     1     -31.244  28.717   5.817  0.00  0.00    -0.505 OA
ATOM     25  H   UNL     1     -31.385  29.631   5.963  0.00  0.00    +0.292 HD
ENDBRANCH  11  24
TORSDOF 5
ENDMDL
MODEL 4
REMARK VINA RESULT:      -6.0      3.207      4.743
REMARK  Name = 54679752
REMARK  5 active torsions:
REMARK  status: ('A' for Active; 'I' for Inactive)
REMARK    1  A    between atoms: C_3  and  C_12
REMARK    2  A    between atoms: C_5  and  O_22
REMARK    3  A    between atoms: C_11  and  O_24
REMARK    4  A    between atoms: C_13  and  O_18
REMARK    5  A    between atoms: C_17  and  O_20
REMARK                            x       y       z     vdW  Elec       q    Type
REMARK                         _______ _______ _______ _____ _____    ______ ____
ROOT
ATOM      1  O   UNL     1     -32.935  29.030   3.983  0.00  0.00    -0.421 OA
ATOM      2  O   UNL     1     -32.755  26.903   4.775  0.00  0.00    -0.244 OA
ATOM      3  C   UNL     1     -34.683  27.384   3.469  0.00  0.00    +0.113 A 
ATOM      4  C   UNL     1     -34.851  29.673   2.631  0.00  0.00    +0.069 A 
ATOM      5  C   UNL     1     -35.364  28.309   2.763  0.00  0.00    +0.143 A 
ATOM      6  C   UNL     1     -33.646  29.994   3.248  0.00  0.00    +0.155 A 
ATOM      7  C   UNL     1     -33.393  27.728   4.129  0.00  0.00    +0.349 A 
ATOM      8  C   UNL     1     -35.510  30.681   1.912  0.00  0.00    +0.009 C 
ATOM      9  C   UNL     1     -33.088  31.271   3.170  0.00  0.00    +0.074 C 
ATOM     10  C   UNL     1     -34.963  31.966   1.825  0.00  0.00    +0.037 C 
ATOM     11  C   UNL     1     -33.754  32.260   2.454  0.00  0.00    +0.137 C 
ENDROOT
BRANCH   3  12
ATOM     12  C   UNL     1     -35.190  26.006   3.609  0.00  0.00    +0.043 C 
ATOM     13  C   UNL     1     -36.077  25.667   4.632  0.00  0.00    +0.137 C 
ATOM     14  C   UNL     1     -34.770  25.035   2.700  0.00  0.00    +0.006 C 
ATOM     15  C   UNL     1     -36.543  24.358   4.745  0.00  0.00    +0.073 C 
ATOM     16  C   UNL     1     -35.236  23.726   2.814  0.00  0.00    +0.037 C 
ATOM     17  C   UNL     1     -36.122  23.386   3.836  0.00  0.00    +0.137 C 
BRANCH  13  18
ATOM     18  O   UNL     1     -36.503  26.596   5.534  0.00  0.00    -0.505 OA
ATOM     19  H   UNL     1     -36.204  26.560   6.421  0.00  0.00    +0.292 HD
ENDBRANCH  13  18
BRANCH  17  20
ATOM     20  O   UNL     1     -36.576  22.109   3.946  0.00  0.00    -0.505 OA
ATOM     21  H   UNL     1     -37.497  21.941   3.995  0.00  0.00    +0.292 HD
ENDBRANCH  17  20
ENDBRANCH   3  12
BRANCH   5  22
ATOM     22  O   UNL     1     -36.564  28.074   2.122  0.00  0.00    -0.505 OA
ATOM     23  H   UNL     1     -37.361  28.417   2.478  0.00  0.00    +0.292 HD
ENDBRANCH   5  22
BRANCH  11  24
ATOM     24  O   UNL     1     -33.228  33.512   2.365  0.00  0.00    -0.505 OA
ATOM     25  H   UNL     1     -33.386  34.034   1.604  0.00  0.00    +0.292 HD
ENDBRANCH  11  24
TORSDOF 5
ENDMDL
MODEL 5
REMARK VINA RESULT:      -5.9      2.997      6.291
REMARK  Name = 54679752
REMARK  5 active torsions:
REMARK  status: ('A' for Active; 'I' for Inactive)
REMARK    1  A    between atoms: C_3  and  C_12
REMARK    2  A    between atoms: C_5  and  O_22
REMARK    3  A    between atoms: C_11  and  O_24
REMARK    4  A    between atoms: C_13  and  O_18
REMARK    5  A    between atoms: C_17  and  O_20
REMARK                            x       y       z     vdW  Elec       q    Type
REMARK                         _______ _______ _______ _____ _____    ______ ____
ROOT
ATOM      1  O   UNL     1     -35.226  23.705   2.015  0.00  0.00    -0.421 OA
ATOM      2  O   UNL     1     -35.162  25.145   0.253  0.00  0.00    -0.244 OA
ATOM      3  C   UNL     1     -35.263  26.127   2.416  0.00  0.00    +0.113 A 
ATOM      4  C   UNL     1     -35.332  24.560   4.289  0.00  0.00    +0.069 A 
ATOM      5  C   UNL     1     -35.319  25.919   3.747  0.00  0.00    +0.143 A 
ATOM      6  C   UNL     1     -35.284  23.488   3.403  0.00  0.00    +0.155 A 
ATOM      7  C   UNL     1     -35.213  24.980   1.467  0.00  0.00    +0.349 A 
ATOM      8  C   UNL     1     -35.388  24.274   5.661  0.00  0.00    +0.009 C 
ATOM      9  C   UNL     1     -35.292  22.162   3.838  0.00  0.00    +0.074 C 
ATOM     10  C   UNL     1     -35.396  22.951   6.113  0.00  0.00    +0.037 C 
ATOM     11  C   UNL     1     -35.349  21.896   5.202  0.00  0.00    +0.137 C 
ENDROOT
BRANCH   3  12
ATOM     12  C   UNL     1     -35.250  27.492   1.858  0.00  0.00    +0.043 C 
ATOM     13  C   UNL     1     -36.439  28.151   1.542  0.00  0.00    +0.137 C 
ATOM     14  C   UNL     1     -34.025  28.124   1.646  0.00  0.00    +0.006 C 
ATOM     15  C   UNL     1     -36.402  29.442   1.015  0.00  0.00    +0.073 C 
ATOM     16  C   UNL     1     -33.988  29.415   1.119  0.00  0.00    +0.037 C 
ATOM     17  C   UNL     1     -35.176  30.074   0.803  0.00  0.00    +0.137 C 
BRANCH  13  18
ATOM     18  O   UNL     1     -37.650  27.556   1.737  0.00  0.00    -0.505 OA
ATOM     19  H   UNL     1     -37.952  27.383   2.607  0.00  0.00    +0.292 HD
ENDBRANCH  13  18
BRANCH  17  20
ATOM     20  O   UNL     1     -35.139  31.333   0.289  0.00  0.00    -0.505 OA
ATOM     21  H   UNL     1     -35.931  31.747   0.006  0.00  0.00    +0.292 HD
ENDBRANCH  17  20
ENDBRANCH   3  12
BRANCH   5  22
ATOM     22  O   UNL     1     -35.368  26.923   4.693  0.00  0.00    -0.505 OA
ATOM     23  H   UNL     1     -35.952  27.647   4.578  0.00  0.00    +0.292 HD
ENDBRANCH   5  22
BRANCH  11  24
ATOM     24  O   UNL     1     -35.358  20.610   5.647  0.00  0.00    -0.505 OA
ATOM     25  H   UNL     1     -34.637  20.043   5.455  0.00  0.00    +0.292 HD
ENDBRANCH  11  24
TORSDOF 5
ENDMDL
MODEL 6
REMARK VINA RESULT:      -5.9      1.240      1.757
REMARK  Name = 54679752
REMARK  5 active torsions:
REMARK  status: ('A' for Active; 'I' for Inactive)
REMARK    1  A    between atoms: C_3  and  C_12
REMARK    2  A    between atoms: C_5  and  O_22
REMARK    3  A    between atoms: C_11  and  O_24
REMARK    4  A    between atoms: C_13  and  O_18
REMARK    5  A    between atoms: C_17  and  O_20
REMARK                            x       y       z     vdW  Elec       q    Type
REMARK                         _______ _______ _______ _____ _____    ______ ____
ROOT
ATOM      1  O   UNL     1     -34.867  24.693   5.827  0.00  0.00    -0.421 OA
ATOM      2  O   UNL     1     -36.255  22.890   5.762  0.00  0.00    -0.244 OA
ATOM      3  C   UNL     1     -35.996  24.096   3.729  0.00  0.00    +0.113 A 
ATOM      4  C   UNL     1     -34.501  26.026   3.826  0.00  0.00    +0.069 A 
ATOM      5  C   UNL     1     -35.409  25.136   3.102  0.00  0.00    +0.143 A 
ATOM      6  C   UNL     1     -34.256  25.777   5.173  0.00  0.00    +0.155 A 
ATOM      7  C   UNL     1     -35.734  23.829   5.171  0.00  0.00    +0.349 A 
ATOM      8  C   UNL     1     -33.859  27.123   3.235  0.00  0.00    +0.009 C 
ATOM      9  C   UNL     1     -33.403  26.578   5.934  0.00  0.00    +0.074 C 
ATOM     10  C   UNL     1     -33.001  27.935   3.984  0.00  0.00    +0.037 C 
ATOM     11  C   UNL     1     -32.775  27.663   5.332  0.00  0.00    +0.137 C 
ENDROOT
BRANCH   3  12
ATOM     12  C   UNL     1     -36.913  23.192   3.011  0.00  0.00    +0.043 C 
ATOM     13  C   UNL     1     -36.460  21.986   2.474  0.00  0.00    +0.137 C 
ATOM     14  C   UNL     1     -38.252  23.557   2.873  0.00  0.00    +0.006 C 
ATOM     15  C   UNL     1     -37.346  21.147   1.799  0.00  0.00    +0.073 C 
ATOM     16  C   UNL     1     -39.138  22.717   2.198  0.00  0.00    +0.037 C 
ATOM     17  C   UNL     1     -38.685  21.512   1.661  0.00  0.00    +0.137 C 
BRANCH  13  18
ATOM     18  O   UNL     1     -35.156  21.606   2.593  0.00  0.00    -0.505 OA
ATOM     19  H   UNL     1     -34.927  20.884   3.144  0.00  0.00    +0.292 HD
ENDBRANCH  13  18
BRANCH  17  20
ATOM     20  O   UNL     1     -39.550  20.694   1.003  0.00  0.00    -0.505 OA
ATOM     21  H   UNL     1     -39.468  20.572   0.077  0.00  0.00    +0.292 HD
ENDBRANCH  17  20
ENDBRANCH   3  12
BRANCH   5  22
ATOM     22  O   UNL     1     -35.597  25.453   1.772  0.00  0.00    -0.505 OA
ATOM     23  H   UNL     1     -34.917  25.287   1.150  0.00  0.00    +0.292 HD
ENDBRANCH   5  22
BRANCH  11  24
ATOM     24  O   UNL     1     -31.940  28.456   6.057  0.00  0.00    -0.505 OA
ATOM     25  H   UNL     1     -32.293  29.077   6.663  0.00  0.00    +0.292 HD
ENDBRANCH  11  24
TORSDOF 5
ENDMDL
MODEL 7
REMARK VINA RESULT:      -5.8      1.688      6.990
REMARK  Name = 54679752
REMARK  5 active torsions:
REMARK  status: ('A' for Active; 'I' for Inactive)
REMARK    1  A    between atoms: C_3  and  C_12
REMARK    2  A    between atoms: C_5  and  O_22
REMARK    3  A    between atoms: C_11  and  O_24
REMARK    4  A    between atoms: C_13  and  O_18
REMARK    5  A    between atoms: C_17  and  O_20
REMARK                            x       y       z     vdW  Elec       q    Type
REMARK                         _______ _______ _______ _____ _____    ______ ____
ROOT
ATOM      1  O   UNL     1     -39.216  22.754   2.032  0.00  0.00    -0.421 OA
ATOM      2  O   UNL     1     -38.964  24.450   3.531  0.00  0.00    -0.244 OA
ATOM      3  C   UNL     1     -36.975  23.337   2.850  0.00  0.00    +0.113 A 
ATOM      4  C   UNL     1     -37.274  21.522   1.242  0.00  0.00    +0.069 A 
ATOM      5  C   UNL     1     -36.431  22.367   2.089  0.00  0.00    +0.143 A 
ATOM      6  C   UNL     1     -38.648  21.743   1.239  0.00  0.00    +0.155 A 
ATOM      7  C   UNL     1     -38.446  23.573   2.847  0.00  0.00    +0.349 A 
ATOM      8  C   UNL     1     -36.772  20.498   0.428  0.00  0.00    +0.009 C 
ATOM      9  C   UNL     1     -39.521  20.982   0.460  0.00  0.00    +0.074 C 
ATOM     10  C   UNL     1     -37.634  19.727  -0.359  0.00  0.00    +0.037 C 
ATOM     11  C   UNL     1     -39.006  19.969  -0.342  0.00  0.00    +0.137 C 
ENDROOT
BRANCH   3  12
ATOM     12  C   UNL     1     -36.137  24.195   3.708  0.00  0.00    +0.043 C 
ATOM     13  C   UNL     1     -35.810  23.810   5.010  0.00  0.00    +0.137 C 
ATOM     14  C   UNL     1     -35.667  25.406   3.201  0.00  0.00    +0.006 C 
ATOM     15  C   UNL     1     -35.015  24.638   5.802  0.00  0.00    +0.073 C 
ATOM     16  C   UNL     1     -34.872  26.233   3.994  0.00  0.00    +0.037 C 
ATOM     17  C   UNL     1     -34.546  25.850   5.294  0.00  0.00    +0.137 C 
BRANCH  13  18
ATOM     18  O   UNL     1     -36.256  22.632   5.531  0.00  0.00    -0.505 OA
ATOM     19  H   UNL     1     -36.890  22.635   6.221  0.00  0.00    +0.292 HD
ENDBRANCH  13  18
BRANCH  17  20
ATOM     20  O   UNL     1     -33.771  26.657   6.067  0.00  0.00    -0.505 OA
ATOM     21  H   UNL     1     -33.168  27.253   5.666  0.00  0.00    +0.292 HD
ENDBRANCH  17  20
ENDBRANCH   3  12
BRANCH   5  22
ATOM     22  O   UNL     1     -35.081  22.083   2.034  0.00  0.00    -0.505 OA
ATOM     23  H   UNL     1     -34.764  21.422   1.449  0.00  0.00    +0.292 HD
ENDBRANCH   5  22
BRANCH  11  24
ATOM     24  O   UNL     1     -39.840  19.215  -1.110  0.00  0.00    -0.505 OA
ATOM     25  H   UNL     1     -40.566  18.772  -0.716  0.00  0.00    +0.292 HD
ENDBRANCH  11  24
TORSDOF 5
ENDMDL
MODEL 8
REMARK VINA RESULT:      -5.8      2.257      6.626
REMARK  Name = 54679752
REMARK  5 active torsions:
REMARK  status: ('A' for Active; 'I' for Inactive)
REMARK    1  A    between atoms: C_3  and  C_12
REMARK    2  A    between atoms: C_5  and  O_22
REMARK    3  A    between atoms: C_11  and  O_24
REMARK    4  A    between atoms: C_13  and  O_18
REMARK    5  A    between atoms: C_17  and  O_20
REMARK                            x       y       z     vdW  Elec       q    Type
REMARK                         _______ _______ _______ _____ _____    ______ ____
ROOT
ATOM      1  O   UNL     1     -34.131  25.151   5.863  0.00  0.00    -0.421 OA
ATOM      2  O   UNL     1     -33.389  27.303   5.921  0.00  0.00    -0.244 OA
ATOM      3  C   UNL     1     -33.934  26.431   3.776  0.00  0.00    +0.113 A 
ATOM      4  C   UNL     1     -34.727  24.120   3.743  0.00  0.00    +0.069 A 
ATOM      5  C   UNL     1     -34.377  25.371   3.070  0.00  0.00    +0.143 A 
ATOM      6  C   UNL     1     -34.593  24.047   5.126  0.00  0.00    +0.155 A 
ATOM      7  C   UNL     1     -33.790  26.352   5.257  0.00  0.00    +0.349 A 
ATOM      8  C   UNL     1     -35.194  22.983   3.068  0.00  0.00    +0.009 C 
ATOM      9  C   UNL     1     -34.905  22.891   5.844  0.00  0.00    +0.074 C 
ATOM     10  C   UNL     1     -35.511  21.817   3.773  0.00  0.00    +0.037 C 
ATOM     11  C   UNL     1     -35.366  21.772   5.159  0.00  0.00    +0.137 C 
ENDROOT
BRANCH   3  12
ATOM     12  C   UNL     1     -33.578  27.697   3.110  0.00  0.00    +0.043 C 
ATOM     13  C   UNL     1     -32.259  27.973   2.747  0.00  0.00    +0.137 C 
ATOM     14  C   UNL     1     -34.583  28.626   2.843  0.00  0.00    +0.006 C 
ATOM     15  C   UNL     1     -31.946  29.177   2.118  0.00  0.00    +0.073 C 
ATOM     16  C   UNL     1     -34.270  29.831   2.213  0.00  0.00    +0.037 C 
ATOM     17  C   UNL     1     -32.952  30.107   1.851  0.00  0.00    +0.137 C 
BRANCH  13  18
ATOM     18  O   UNL     1     -31.257  27.083   2.998  0.00  0.00    -0.505 OA
ATOM     19  H   UNL     1     -30.578  27.300   3.606  0.00  0.00    +0.292 HD
ENDBRANCH  13  18
BRANCH  17  20
ATOM     20  O   UNL     1     -32.647  31.282   1.237  0.00  0.00    -0.505 OA
ATOM     21  H   UNL     1     -31.783  31.427   0.905  0.00  0.00    +0.292 HD
ENDBRANCH  17  20
ENDBRANCH   3  12
BRANCH   5  22
ATOM     22  O   UNL     1     -34.539  25.360   1.699  0.00  0.00    -0.505 OA
ATOM     23  H   UNL     1     -34.721  26.157   1.242  0.00  0.00    +0.292 HD
ENDBRANCH   5  22
BRANCH  11  24
ATOM     24  O   UNL     1     -35.676  20.635   5.839  0.00  0.00    -0.505 OA
ATOM     25  H   UNL     1     -35.023  19.976   5.973  0.00  0.00    +0.292 HD
ENDBRANCH  11  24
TORSDOF 5
ENDMDL
MODEL 9
REMARK VINA RESULT:      -5.8      2.553      4.537
REMARK  Name = 54679752
REMARK  5 active torsions:
REMARK  status: ('A' for Active; 'I' for Inactive)
REMARK    1  A    between atoms: C_3  and  C_12
REMARK    2  A    between atoms: C_5  and  O_22
REMARK    3  A    between atoms: C_11  and  O_24
REMARK    4  A    between atoms: C_13  and  O_18
REMARK    5  A    between atoms: C_17  and  O_20
REMARK                            x       y       z     vdW  Elec       q    Type
REMARK                         _______ _______ _______ _____ _____    ______ ____
ROOT
ATOM      1  O   UNL     1     -33.848  29.366   2.696  0.00  0.00    -0.421 OA
ATOM      2  O   UNL     1     -35.407  27.901   1.919  0.00  0.00    -0.244 OA
ATOM      3  C   UNL     1     -34.127  27.185   3.790  0.00  0.00    +0.113 A 
ATOM      4  C   UNL     1     -32.461  28.775   4.605  0.00  0.00    +0.069 A 
ATOM      5  C   UNL     1     -33.152  27.488   4.671  0.00  0.00    +0.143 A 
ATOM      6  C   UNL     1     -32.831  29.681   3.615  0.00  0.00    +0.155 A 
ATOM      7  C   UNL     1     -34.523  28.154   2.731  0.00  0.00    +0.349 A 
ATOM      8  C   UNL     1     -31.440  29.152   5.489  0.00  0.00    +0.009 C 
ATOM      9  C   UNL     1     -32.222  30.930   3.484  0.00  0.00    +0.074 C 
ATOM     10  C   UNL     1     -30.820  30.400   5.371  0.00  0.00    +0.037 C 
ATOM     11  C   UNL     1     -31.211  31.287   4.369  0.00  0.00    +0.137 C 
ENDROOT
BRANCH   3  12
ATOM     12  C   UNL     1     -34.831  25.891   3.846  0.00  0.00    +0.043 C 
ATOM     13  C   UNL     1     -35.977  25.728   4.626  0.00  0.00    +0.137 C 
ATOM     14  C   UNL     1     -34.335  24.819   3.103  0.00  0.00    +0.006 C 
ATOM     15  C   UNL     1     -36.625  24.494   4.663  0.00  0.00    +0.073 C 
ATOM     16  C   UNL     1     -34.985  23.585   3.141  0.00  0.00    +0.037 C 
ATOM     17  C   UNL     1     -36.130  23.422   3.920  0.00  0.00    +0.137 C 
BRANCH  13  18
ATOM     18  O   UNL     1     -36.482  26.758   5.362  0.00  0.00    -0.505 OA
ATOM     19  H   UNL     1     -35.913  27.434   5.675  0.00  0.00    +0.292 HD
ENDBRANCH  13  18
BRANCH  17  20
ATOM     20  O   UNL     1     -36.762  22.219   3.956  0.00  0.00    -0.505 OA
ATOM     21  H   UNL     1     -37.699  22.181   3.941  0.00  0.00    +0.292 HD
ENDBRANCH  17  20
ENDBRANCH   3  12
BRANCH   5  22
ATOM     22  O   UNL     1     -32.724  26.649   5.681  0.00  0.00    -0.505 OA
ATOM     23  H   UNL     1     -33.087  25.789   5.761  0.00  0.00    +0.292 HD
ENDBRANCH   5  22
BRANCH  11  24
ATOM     24  O   UNL     1     -30.604  32.500   4.258  0.00  0.00    -0.505 OA
ATOM     25  H   UNL     1     -31.120  33.281   4.220  0.00  0.00    +0.292 HD
ENDBRANCH  11  24
TORSDOF 5
ENDMDL
