MODEL 1
REMARK VINA RESULT:      -6.6      0.000      0.000
REMARK  Name = 193025
REMARK  4 active torsions:
REMARK  status: ('A' for Active; 'I' for Inactive)
REMARK    1  A    between atoms: C_7  and  C_16
REMARK    2  A    between atoms: C_8  and  C_20
REMARK    3  A    between atoms: C_16  and  O_17
REMARK    4  A    between atoms: C_20  and  O_21
REMARK                            x       y       z     vdW  Elec       q    Type
REMARK                         _______ _______ _______ _____ _____    ______ ____
ROOT
ATOM      1  N   UNL     1     -37.519  25.231   3.529  0.00  0.00    -0.400 NA
ATOM      2  N   UNL     1     -37.738  22.548   2.943  0.00  0.00    -0.401 NA
ATOM      3  C   UNL     1     -36.653  24.350   4.053  0.00  0.00    +0.149 C 
ATOM      4  C   UNL     1     -38.604  23.429   2.419  0.00  0.00    +0.167 C 
ATOM      5  C   UNL     1     -36.764  22.987   3.755  0.00  0.00    +0.139 C 
ATOM      6  C   UNL     1     -38.492  24.792   2.716  0.00  0.00    +0.161 C 
ATOM      7  C   UNL     1     -35.633  24.779   4.901  0.00  0.00    +0.175 C 
ATOM      8  C   UNL     1     -39.623  22.999   1.571  0.00  0.00    +0.107 C 
ATOM      9  C   UNL     1     -35.852  22.093   4.313  0.00  0.00    +0.087 C 
ATOM     10  C   UNL     1     -39.404  25.686   2.159  0.00  0.00    +0.035 C 
ATOM     11  C   UNL     1     -34.725  23.880   5.455  0.00  0.00    -0.012 C 
ATOM     12  C   UNL     1     -40.532  23.899   1.017  0.00  0.00    +0.009 C 
ATOM     13  C   UNL     1     -34.834  22.530   5.160  0.00  0.00    -0.022 C 
ATOM     14  C   UNL     1     -40.422  25.250   1.313  0.00  0.00    +0.003 C 
ENDROOT
BRANCH   7  16
ATOM     15  O   UNL     1     -34.459  26.855   5.093  0.00  0.00    -0.249 OA
ATOM     16  C   UNL     1     -35.489  26.192   5.232  0.00  0.00    +0.324 C 
BRANCH  16  17
ATOM     17  O   UNL     1     -36.638  26.726   5.727  0.00  0.00    -0.480 OA
ATOM     18  H   UNL     1     -36.600  27.398   6.378  0.00  0.00    +0.295 HD
ENDBRANCH  16  17
ENDBRANCH   7  16
BRANCH   8  20
ATOM     19  O   UNL     1     -39.443  21.068   0.170  0.00  0.00    -0.245 OA
ATOM     20  C   UNL     1     -39.770  21.586   1.240  0.00  0.00    +0.341 C 
BRANCH  20  21
ATOM     21  O   UNL     1     -40.318  20.873   2.259  0.00  0.00    -0.477 OA
ATOM     22  H   UNL     1     -40.993  20.247   2.084  0.00  0.00    +0.295 HD
ENDBRANCH  20  21
ENDBRANCH   8  20
TORSDOF 4
ENDMDL
MODEL 2
REMARK VINA RESULT:      -6.6      0.075      6.224
REMARK  Name = 193025
REMARK  4 active torsions:
REMARK  status: ('A' for Active; 'I' for Inactive)
REMARK    1  A    between atoms: C_7  and  C_16
REMARK    2  A    between atoms: C_8  and  C_20
REMARK    3  A    between atoms: C_16  and  O_17
REMARK    4  A    between atoms: C_20  and  O_21
REMARK                            x       y       z     vdW  Elec       q    Type
REMARK                         _______ _______ _______ _____ _____    ______ ____
ROOT
ATOM      1  N   UNL     1     -37.690  22.540   2.981  0.00  0.00    -0.400 NA
ATOM      2  N   UNL     1     -37.450  25.231   3.521  0.00  0.00    -0.401 NA
ATOM      3  C   UNL     1     -38.538  23.421   2.428  0.00  0.00    +0.149 C 
ATOM      4  C   UNL     1     -36.602  24.350   4.074  0.00  0.00    +0.167 C 
ATOM      5  C   UNL     1     -38.417  24.787   2.702  0.00  0.00    +0.139 C 
ATOM      6  C   UNL     1     -36.723  22.984   3.800  0.00  0.00    +0.161 C 
ATOM      7  C   UNL     1     -39.551  22.986   1.574  0.00  0.00    +0.175 C 
ATOM      8  C   UNL     1     -35.589  24.786   4.927  0.00  0.00    +0.107 C 
ATOM      9  C   UNL     1     -39.311  25.681   2.115  0.00  0.00    +0.087 C 
ATOM     10  C   UNL     1     -35.829  22.090   4.387  0.00  0.00    +0.035 C 
ATOM     11  C   UNL     1     -40.442  23.884   0.991  0.00  0.00    -0.012 C 
ATOM     12  C   UNL     1     -34.698  23.887   5.511  0.00  0.00    +0.009 C 
ATOM     13  C   UNL     1     -40.321  25.239   1.262  0.00  0.00    -0.022 C 
ATOM     14  C   UNL     1     -34.820  22.532   5.240  0.00  0.00    +0.003 C 
ENDROOT
BRANCH   7  16
ATOM     15  O   UNL     1     -39.388  21.031   0.205  0.00  0.00    -0.249 OA
ATOM     16  C   UNL     1     -39.707  21.569   1.268  0.00  0.00    +0.324 C 
BRANCH  16  17
ATOM     17  O   UNL     1     -40.254  20.874   2.301  0.00  0.00    -0.480 OA
ATOM     18  H   UNL     1     -41.185  20.783   2.363  0.00  0.00    +0.295 HD
ENDBRANCH  16  17
ENDBRANCH   7  16
BRANCH   8  20
ATOM     19  O   UNL     1     -34.394  26.851   5.102  0.00  0.00    -0.245 OA
ATOM     20  C   UNL     1     -35.434  26.202   5.237  0.00  0.00    +0.341 C 
BRANCH  20  21
ATOM     21  O   UNL     1     -36.585  26.757   5.701  0.00  0.00    -0.477 OA
ATOM     22  H   UNL     1     -37.409  26.348   5.522  0.00  0.00    +0.295 HD
ENDBRANCH  20  21
ENDBRANCH   8  20
TORSDOF 4
ENDMDL
MODEL 3
REMARK VINA RESULT:      -6.4      2.524      5.053
REMARK  Name = 193025
REMARK  4 active torsions:
REMARK  status: ('A' for Active; 'I' for Inactive)
REMARK    1  A    between atoms: C_7  and  C_16
REMARK    2  A    between atoms: C_8  and  C_20
REMARK    3  A    between atoms: C_16  and  O_17
REMARK    4  A    between atoms: C_20  and  O_21
REMARK                            x       y       z     vdW  Elec       q    Type
REMARK                         _______ _______ _______ _____ _____    ______ ____
ROOT
ATOM      1  N   UNL     1     -38.013  25.209   3.475  0.00  0.00    -0.400 NA
ATOM      2  N   UNL     1     -37.462  22.529   3.159  0.00  0.00    -0.401 NA
ATOM      3  C   UNL     1     -38.782  24.448   2.680  0.00  0.00    +0.149 C 
ATOM      4  C   UNL     1     -36.693  23.290   3.954  0.00  0.00    +0.167 C 
ATOM      5  C   UNL     1     -38.502  23.087   2.520  0.00  0.00    +0.139 C 
ATOM      6  C   UNL     1     -36.974  24.651   4.115  0.00  0.00    +0.161 C 
ATOM      7  C   UNL     1     -39.868  25.002   2.004  0.00  0.00    +0.175 C 
ATOM      8  C   UNL     1     -35.608  22.734   4.630  0.00  0.00    +0.107 C 
ATOM      9  C   UNL     1     -39.315  22.318   1.689  0.00  0.00    +0.087 C 
ATOM     10  C   UNL     1     -36.160  25.419   4.945  0.00  0.00    +0.035 C 
ATOM     11  C   UNL     1     -40.676  24.229   1.175  0.00  0.00    -0.012 C 
ATOM     12  C   UNL     1     -34.799  23.508   5.459  0.00  0.00    +0.009 C 
ATOM     13  C   UNL     1     -40.399  22.880   1.016  0.00  0.00    -0.022 C 
ATOM     14  C   UNL     1     -35.076  24.858   5.617  0.00  0.00    +0.003 C 
ENDROOT
BRANCH   7  16
ATOM     15  O   UNL     1     -40.182  27.246   1.235  0.00  0.00    -0.249 OA
ATOM     16  C   UNL     1     -40.187  26.418   2.149  0.00  0.00    +0.324 C 
BRANCH  16  17
ATOM     17  O   UNL     1     -40.502  26.748   3.430  0.00  0.00    -0.480 OA
ATOM     18  H   UNL     1     -40.597  27.648   3.672  0.00  0.00    +0.295 HD
ENDBRANCH  16  17
ENDBRANCH   7  16
BRANCH   8  20
ATOM     19  O   UNL     1     -35.086  20.741   3.413  0.00  0.00    -0.245 OA
ATOM     20  C   UNL     1     -35.286  21.319   4.484  0.00  0.00    +0.341 C 
BRANCH  20  21
ATOM     21  O   UNL     1     -35.224  20.679   5.681  0.00  0.00    -0.477 OA
ATOM     22  H   UNL     1     -35.973  20.662   6.244  0.00  0.00    +0.295 HD
ENDBRANCH  20  21
ENDBRANCH   8  20
TORSDOF 4
ENDMDL
MODEL 4
REMARK VINA RESULT:      -6.4      2.526      3.672
REMARK  Name = 193025
REMARK  4 active torsions:
REMARK  status: ('A' for Active; 'I' for Inactive)
REMARK    1  A    between atoms: C_7  and  C_16
REMARK    2  A    between atoms: C_8  and  C_20
REMARK    3  A    between atoms: C_16  and  O_17
REMARK    4  A    between atoms: C_20  and  O_21
REMARK                            x       y       z     vdW  Elec       q    Type
REMARK                         _______ _______ _______ _____ _____    ______ ____
ROOT
ATOM      1  N   UNL     1     -37.468  22.535   3.158  0.00  0.00    -0.400 NA
ATOM      2  N   UNL     1     -38.025  25.214   3.472  0.00  0.00    -0.401 NA
ATOM      3  C   UNL     1     -36.705  23.297   3.956  0.00  0.00    +0.149 C 
ATOM      4  C   UNL     1     -38.789  24.452   2.673  0.00  0.00    +0.167 C 
ATOM      5  C   UNL     1     -36.988  24.658   4.116  0.00  0.00    +0.139 C 
ATOM      6  C   UNL     1     -38.507  23.091   2.515  0.00  0.00    +0.161 C 
ATOM      7  C   UNL     1     -35.620  22.745   4.637  0.00  0.00    +0.175 C 
ATOM      8  C   UNL     1     -39.874  25.005   1.995  0.00  0.00    +0.107 C 
ATOM      9  C   UNL     1     -36.179  25.428   4.950  0.00  0.00    +0.087 C 
ATOM     10  C   UNL     1     -39.315  22.321   1.680  0.00  0.00    +0.035 C 
ATOM     11  C   UNL     1     -34.816  23.520   5.469  0.00  0.00    -0.012 C 
ATOM     12  C   UNL     1     -40.678  24.230   1.161  0.00  0.00    +0.009 C 
ATOM     13  C   UNL     1     -35.096  24.868   5.627  0.00  0.00    -0.022 C 
ATOM     14  C   UNL     1     -40.397  22.881   1.003  0.00  0.00    +0.003 C 
ENDROOT
BRANCH   7  16
ATOM     15  O   UNL     1     -35.089  20.752   3.424  0.00  0.00    -0.249 OA
ATOM     16  C   UNL     1     -35.297  21.330   4.493  0.00  0.00    +0.324 C 
BRANCH  16  17
ATOM     17  O   UNL     1     -35.244  20.688   5.690  0.00  0.00    -0.480 OA
ATOM     18  H   UNL     1     -34.931  19.807   5.737  0.00  0.00    +0.295 HD
ENDBRANCH  16  17
ENDBRANCH   7  16
BRANCH   8  20
ATOM     19  O   UNL     1     -40.212  27.242   1.215  0.00  0.00    -0.245 OA
ATOM     20  C   UNL     1     -40.197  26.420   2.135  0.00  0.00    +0.341 C 
BRANCH  20  21
ATOM     21  O   UNL     1     -40.489  26.757   3.419  0.00  0.00    -0.477 OA
ATOM     22  H   UNL     1     -41.340  26.577   3.769  0.00  0.00    +0.295 HD
ENDBRANCH  20  21
ENDBRANCH   8  20
TORSDOF 4
ENDMDL
MODEL 5
REMARK VINA RESULT:      -6.2      2.651      3.039
REMARK  Name = 193025
REMARK  4 active torsions:
REMARK  status: ('A' for Active; 'I' for Inactive)
REMARK    1  A    between atoms: C_7  and  C_16
REMARK    2  A    between atoms: C_8  and  C_20
REMARK    3  A    between atoms: C_16  and  O_17
REMARK    4  A    between atoms: C_20  and  O_21
REMARK                            x       y       z     vdW  Elec       q    Type
REMARK                         _______ _______ _______ _____ _____    ______ ____
ROOT
ATOM      1  N   UNL     1     -36.154  23.959   2.617  0.00  0.00    -0.400 NA
ATOM      2  N   UNL     1     -35.675  21.254   2.807  0.00  0.00    -0.401 NA
ATOM      3  C   UNL     1     -35.822  23.411   3.796  0.00  0.00    +0.149 C 
ATOM      4  C   UNL     1     -36.006  21.802   1.627  0.00  0.00    +0.167 C 
ATOM      5  C   UNL     1     -35.578  22.037   3.892  0.00  0.00    +0.139 C 
ATOM      6  C   UNL     1     -36.249  23.176   1.531  0.00  0.00    +0.161 C 
ATOM      7  C   UNL     1     -35.716  24.201   4.939  0.00  0.00    +0.175 C 
ATOM      8  C   UNL     1     -36.111  21.011   0.485  0.00  0.00    +0.107 C 
ATOM      9  C   UNL     1     -35.236  21.491   5.129  0.00  0.00    +0.087 C 
ATOM     10  C   UNL     1     -36.593  23.721   0.295  0.00  0.00    +0.035 C 
ATOM     11  C   UNL     1     -35.374  23.651   6.172  0.00  0.00    -0.012 C 
ATOM     12  C   UNL     1     -36.455  21.562  -0.748  0.00  0.00    +0.009 C 
ATOM     13  C   UNL     1     -35.132  22.289   6.268  0.00  0.00    -0.022 C 
ATOM     14  C   UNL     1     -36.697  22.925  -0.843  0.00  0.00    +0.003 C 
ENDROOT
BRANCH   7  16
ATOM     15  O   UNL     1     -35.133  26.515   5.117  0.00  0.00    -0.249 OA
ATOM     16  C   UNL     1     -35.964  25.637   4.874  0.00  0.00    +0.324 C 
BRANCH  16  17
ATOM     17  O   UNL     1     -37.242  25.924   4.508  0.00  0.00    -0.480 OA
ATOM     18  H   UNL     1     -37.581  25.599   3.698  0.00  0.00    +0.295 HD
ENDBRANCH  16  17
ENDBRANCH   7  16
BRANCH   8  20
ATOM     19  O   UNL     1     -34.883  18.999   0.077  0.00  0.00    -0.245 OA
ATOM     20  C   UNL     1     -35.867  19.575   0.549  0.00  0.00    +0.341 C 
BRANCH  20  21
ATOM     21  O   UNL     1     -36.858  18.911   1.200  0.00  0.00    -0.477 OA
ATOM     22  H   UNL     1     -36.686  18.078   1.593  0.00  0.00    +0.295 HD
ENDBRANCH  20  21
ENDBRANCH   8  20
TORSDOF 4
ENDMDL
MODEL 6
REMARK VINA RESULT:      -6.2      2.679      6.274
REMARK  Name = 193025
REMARK  4 active torsions:
REMARK  status: ('A' for Active; 'I' for Inactive)
REMARK    1  A    between atoms: C_7  and  C_16
REMARK    2  A    between atoms: C_8  and  C_20
REMARK    3  A    between atoms: C_16  and  O_17
REMARK    4  A    between atoms: C_20  and  O_21
REMARK                            x       y       z     vdW  Elec       q    Type
REMARK                         _______ _______ _______ _____ _____    ______ ____
ROOT
ATOM      1  N   UNL     1     -35.651  21.214   2.867  0.00  0.00    -0.400 NA
ATOM      2  N   UNL     1     -36.130  23.917   2.642  0.00  0.00    -0.401 NA
ATOM      3  C   UNL     1     -35.970  21.749   1.678  0.00  0.00    +0.149 C 
ATOM      4  C   UNL     1     -35.811  23.382   3.831  0.00  0.00    +0.167 C 
ATOM      5  C   UNL     1     -36.213  23.122   1.564  0.00  0.00    +0.139 C 
ATOM      6  C   UNL     1     -35.567  22.009   3.945  0.00  0.00    +0.161 C 
ATOM      7  C   UNL     1     -36.064  20.946   0.543  0.00  0.00    +0.175 C 
ATOM      8  C   UNL     1     -35.717  24.186   4.965  0.00  0.00    +0.107 C 
ATOM      9  C   UNL     1     -36.544  23.653   0.319  0.00  0.00    +0.087 C 
ATOM     10  C   UNL     1     -35.237  21.478   5.190  0.00  0.00    +0.035 C 
ATOM     11  C   UNL     1     -36.394  21.482  -0.699  0.00  0.00    -0.012 C 
ATOM     12  C   UNL     1     -35.387  23.648   6.208  0.00  0.00    +0.009 C 
ATOM     13  C   UNL     1     -36.635  22.843  -0.813  0.00  0.00    -0.022 C 
ATOM     14  C   UNL     1     -35.146  22.287   6.321  0.00  0.00    +0.003 C 
ENDROOT
BRANCH   7  16
ATOM     15  O   UNL     1     -34.794  18.940   0.242  0.00  0.00    -0.249 OA
ATOM     16  C   UNL     1     -35.817  19.510   0.626  0.00  0.00    +0.324 C 
BRANCH  16  17
ATOM     17  O   UNL     1     -36.858  18.840   1.188  0.00  0.00    -0.480 OA
ATOM     18  H   UNL     1     -37.048  17.962   0.922  0.00  0.00    +0.295 HD
ENDBRANCH  16  17
ENDBRANCH   7  16
BRANCH   8  20
ATOM     19  O   UNL     1     -35.124  26.501   5.074  0.00  0.00    -0.245 OA
ATOM     20  C   UNL     1     -35.966  25.620   4.884  0.00  0.00    +0.341 C 
BRANCH  20  21
ATOM     21  O   UNL     1     -37.257  25.902   4.566  0.00  0.00    -0.477 OA
ATOM     22  H   UNL     1     -37.530  25.904   3.669  0.00  0.00    +0.295 HD
ENDBRANCH  20  21
ENDBRANCH   8  20
TORSDOF 4
ENDMDL
MODEL 7
REMARK VINA RESULT:      -5.7      3.746      5.877
REMARK  Name = 193025
REMARK  4 active torsions:
REMARK  status: ('A' for Active; 'I' for Inactive)
REMARK    1  A    between atoms: C_7  and  C_16
REMARK    2  A    between atoms: C_8  and  C_20
REMARK    3  A    between atoms: C_16  and  O_17
REMARK    4  A    between atoms: C_20  and  O_21
REMARK                            x       y       z     vdW  Elec       q    Type
REMARK                         _______ _______ _______ _____ _____    ______ ____
ROOT
ATOM      1  N   UNL     1     -33.269  26.925   5.381  0.00  0.00    -0.400 NA
ATOM      2  N   UNL     1     -34.585  27.527   3.037  0.00  0.00    -0.401 NA
ATOM      3  C   UNL     1     -32.855  27.946   4.613  0.00  0.00    +0.149 C 
ATOM      4  C   UNL     1     -34.999  26.507   3.804  0.00  0.00    +0.167 C 
ATOM      5  C   UNL     1     -33.523  28.252   3.423  0.00  0.00    +0.139 C 
ATOM      6  C   UNL     1     -34.331  26.202   4.994  0.00  0.00    +0.161 C 
ATOM      7  C   UNL     1     -31.755  28.714   4.991  0.00  0.00    +0.175 C 
ATOM      8  C   UNL     1     -36.100  25.740   3.425  0.00  0.00    +0.107 C 
ATOM      9  C   UNL     1     -33.073  29.316   2.644  0.00  0.00    +0.087 C 
ATOM     10  C   UNL     1     -34.781  25.137   5.773  0.00  0.00    +0.035 C 
ATOM     11  C   UNL     1     -31.309  29.776   4.209  0.00  0.00    -0.012 C 
ATOM     12  C   UNL     1     -36.545  24.676   4.208  0.00  0.00    +0.009 C 
ATOM     13  C   UNL     1     -31.972  30.080   3.029  0.00  0.00    -0.022 C 
ATOM     14  C   UNL     1     -35.882  24.373   5.389  0.00  0.00    +0.003 C 
ENDROOT
BRANCH   7  16
ATOM     15  O   UNL     1     -29.929  27.882   6.295  0.00  0.00    -0.249 OA
ATOM     16  C   UNL     1     -31.035  28.422   6.226  0.00  0.00    +0.324 C 
BRANCH  16  17
ATOM     17  O   UNL     1     -31.723  28.817   7.330  0.00  0.00    -0.480 OA
ATOM     18  H   UNL     1     -32.470  28.330   7.616  0.00  0.00    +0.295 HD
ENDBRANCH  16  17
ENDBRANCH   7  16
BRANCH   8  20
ATOM     19  O   UNL     1     -36.811  25.320   1.180  0.00  0.00    -0.245 OA
ATOM     20  C   UNL     1     -36.819  26.028   2.190  0.00  0.00    +0.341 C 
BRANCH  20  21
ATOM     21  O   UNL     1     -37.521  27.190   2.261  0.00  0.00    -0.477 OA
ATOM     22  H   UNL     1     -38.445  27.190   2.103  0.00  0.00    +0.295 HD
ENDBRANCH  20  21
ENDBRANCH   8  20
TORSDOF 4
ENDMDL
MODEL 8
REMARK VINA RESULT:      -5.7      3.776      7.526
REMARK  Name = 193025
REMARK  4 active torsions:
REMARK  status: ('A' for Active; 'I' for Inactive)
REMARK    1  A    between atoms: C_7  and  C_16
REMARK    2  A    between atoms: C_8  and  C_20
REMARK    3  A    between atoms: C_16  and  O_17
REMARK    4  A    between atoms: C_20  and  O_21
REMARK                            x       y       z     vdW  Elec       q    Type
REMARK                         _______ _______ _______ _____ _____    ______ ____
ROOT
ATOM      1  N   UNL     1     -34.559  27.560   3.020  0.00  0.00    -0.400 NA
ATOM      2  N   UNL     1     -33.234  26.938   5.353  0.00  0.00    -0.401 NA
ATOM      3  C   UNL     1     -34.973  26.536   3.782  0.00  0.00    +0.149 C 
ATOM      4  C   UNL     1     -32.820  27.962   4.591  0.00  0.00    +0.167 C 
ATOM      5  C   UNL     1     -34.301  26.220   4.967  0.00  0.00    +0.139 C 
ATOM      6  C   UNL     1     -33.493  28.278   3.406  0.00  0.00    +0.161 C 
ATOM      7  C   UNL     1     -36.078  25.774   3.405  0.00  0.00    +0.175 C 
ATOM      8  C   UNL     1     -31.716  28.724   4.970  0.00  0.00    +0.107 C 
ATOM      9  C   UNL     1     -34.750  25.152   5.741  0.00  0.00    +0.087 C 
ATOM     10  C   UNL     1     -33.043  29.346   2.632  0.00  0.00    +0.035 C 
ATOM     11  C   UNL     1     -36.522  24.707   4.182  0.00  0.00    -0.012 C 
ATOM     12  C   UNL     1     -31.271  29.791   4.191  0.00  0.00    +0.009 C 
ATOM     13  C   UNL     1     -35.856  24.394   5.357  0.00  0.00    -0.022 C 
ATOM     14  C   UNL     1     -31.938  30.103   3.016  0.00  0.00    +0.003 C 
ENDROOT
BRANCH   7  16
ATOM     15  O   UNL     1     -36.904  25.321   1.205  0.00  0.00    -0.249 OA
ATOM     16  C   UNL     1     -36.802  26.075   2.174  0.00  0.00    +0.324 C 
BRANCH  16  17
ATOM     17  O   UNL     1     -37.372  27.310   2.201  0.00  0.00    -0.480 OA
ATOM     18  H   UNL     1     -38.293  27.404   2.057  0.00  0.00    +0.295 HD
ENDBRANCH  16  17
ENDBRANCH   7  16
BRANCH   8  20
ATOM     19  O   UNL     1     -29.924  27.803   6.261  0.00  0.00    -0.245 OA
ATOM     20  C   UNL     1     -30.989  28.422   6.198  0.00  0.00    +0.341 C 
BRANCH  20  21
ATOM     21  O   UNL     1     -31.619  28.905   7.301  0.00  0.00    -0.477 OA
ATOM     22  H   UNL     1     -31.919  29.793   7.319  0.00  0.00    +0.295 HD
ENDBRANCH  20  21
ENDBRANCH   8  20
TORSDOF 4
ENDMDL
MODEL 9
REMARK VINA RESULT:      -5.7      3.342      4.649
REMARK  Name = 193025
REMARK  4 active torsions:
REMARK  status: ('A' for Active; 'I' for Inactive)
REMARK    1  A    between atoms: C_7  and  C_16
REMARK    2  A    between atoms: C_8  and  C_20
REMARK    3  A    between atoms: C_16  and  O_17
REMARK    4  A    between atoms: C_20  and  O_21
REMARK                            x       y       z     vdW  Elec       q    Type
REMARK                         _______ _______ _______ _____ _____    ______ ____
ROOT
ATOM      1  N   UNL     1     -34.731  25.347   3.798  0.00  0.00    -0.400 NA
ATOM      2  N   UNL     1     -35.145  23.287   2.018  0.00  0.00    -0.401 NA
ATOM      3  C   UNL     1     -34.707  25.578   2.476  0.00  0.00    +0.149 C 
ATOM      4  C   UNL     1     -35.169  23.055   3.339  0.00  0.00    +0.167 C 
ATOM      5  C   UNL     1     -34.918  24.532   1.572  0.00  0.00    +0.139 C 
ATOM      6  C   UNL     1     -34.959  24.102   4.244  0.00  0.00    +0.161 C 
ATOM      7  C   UNL     1     -34.473  26.862   1.987  0.00  0.00    +0.175 C 
ATOM      8  C   UNL     1     -35.404  21.771   3.828  0.00  0.00    +0.107 C 
ATOM      9  C   UNL     1     -34.887  24.798   0.204  0.00  0.00    +0.087 C 
ATOM     10  C   UNL     1     -34.989  23.835   5.611  0.00  0.00    +0.035 C 
ATOM     11  C   UNL     1     -34.444  27.122   0.619  0.00  0.00    -0.012 C 
ATOM     12  C   UNL     1     -35.432  21.511   5.197  0.00  0.00    +0.009 C 
ATOM     13  C   UNL     1     -34.652  26.085  -0.278  0.00  0.00    -0.022 C 
ATOM     14  C   UNL     1     -35.223  22.549   6.093  0.00  0.00    +0.003 C 
ENDROOT
BRANCH   7  16
ATOM     15  O   UNL     1     -33.191  28.596   3.023  0.00  0.00    -0.249 OA
ATOM     16  C   UNL     1     -34.249  27.976   2.902  0.00  0.00    +0.324 C 
BRANCH  16  17
ATOM     17  O   UNL     1     -35.357  28.275   3.631  0.00  0.00    -0.480 OA
ATOM     18  H   UNL     1     -35.343  28.186   4.564  0.00  0.00    +0.295 HD
ENDBRANCH  16  17
ENDBRANCH   7  16
BRANCH   8  20
ATOM     19  O   UNL     1     -34.747  19.905   2.482  0.00  0.00    -0.245 OA
ATOM     20  C   UNL     1     -35.625  20.656   2.914  0.00  0.00    +0.341 C 
BRANCH  20  21
ATOM     21  O   UNL     1     -36.934  20.519   2.575  0.00  0.00    -0.477 OA
ATOM     22  H   UNL     1     -37.368  19.698   2.702  0.00  0.00    +0.295 HD
ENDBRANCH  20  21
ENDBRANCH   8  20
TORSDOF 4
ENDMDL
