MODEL 1
REMARK VINA RESULT:      -6.6      0.000      0.000
REMARK  Name = 5359407
REMARK  5 active torsions:
REMARK  status: ('A' for Active; 'I' for Inactive)
REMARK    1  A    between atoms: C_4  and  O_17
REMARK    2  A    between atoms: C_13  and  C_24
REMARK    3  A    between atoms: C_15  and  O_19
REMARK    4  A    between atoms: C_16  and  O_21
REMARK    5  A    between atoms: C_24  and  O_25
REMARK                            x       y       z     vdW  Elec       q    Type
REMARK                         _______ _______ _______ _____ _____    ______ ____
ROOT
ATOM      1  O   UNL     1     -33.089  28.965   4.477  0.00  0.00    -0.329 OA
ATOM      2  O   UNL     1     -33.801  25.133   5.946  0.00  0.00    -0.458 OA
ATOM      3  O   UNL     1     -34.805  25.890   2.065  0.00  0.00    -0.287 OA
ATOM      4  C   UNL     1     -32.142  28.458   5.425  0.00  0.00    +0.191 C 
ATOM      5  C   UNL     1     -32.792  27.320   6.231  0.00  0.00    +0.120 C 
ATOM      6  C   UNL     1     -33.511  26.343   5.344  0.00  0.00    +0.129 A 
ATOM      7  C   UNL     1     -33.813  26.666   4.076  0.00  0.00    +0.077 A 
ATOM      8  C   UNL     1     -33.480  28.005   3.489  0.00  0.00    +0.177 C 
ATOM      9  C   UNL     1     -34.507  25.665   3.231  0.00  0.00    +0.200 A 
ATOM     10  C   UNL     1     -34.816  24.377   3.874  0.00  0.00    +0.083 A 
ATOM     11  C   UNL     1     -31.761  29.607   6.358  0.00  0.00    +0.061 C 
ATOM     12  C   UNL     1     -34.446  24.179   5.203  0.00  0.00    +0.151 A 
ATOM     13  C   UNL     1     -35.472  23.366   3.166  0.00  0.00    +0.118 C 
ATOM     14  C   UNL     1     -34.729  22.966   5.832  0.00  0.00    +0.077 C 
ATOM     15  C   UNL     1     -35.754  22.155   3.798  0.00  0.00    +0.174 C 
ATOM     16  C   UNL     1     -35.382  21.954   5.128  0.00  0.00    +0.171 C 
ENDROOT
BRANCH   4  17
ATOM     17  O   UNL     1     -30.952  27.967   4.803  0.00  0.00    -0.363 OA
ATOM     18  H   UNL     1     -30.217  28.006   5.434  0.00  0.00    +0.213 HD
ENDBRANCH   4  17
BRANCH  15  19
ATOM     19  O   UNL     1     -36.392  21.152   3.126  0.00  0.00    -0.503 OA
ATOM     20  H   UNL     1     -36.288  20.263   3.403  0.00  0.00    +0.292 HD
ENDBRANCH  15  19
BRANCH  16  21
ATOM     21  O   UNL     1     -35.651  20.773   5.752  0.00  0.00    -0.503 OA
ATOM     22  H   UNL     1     -36.538  20.524   5.923  0.00  0.00    +0.292 HD
ENDBRANCH  16  21
BRANCH  13  24
ATOM     23  O   UNL     1     -35.291  23.043   0.802  0.00  0.00    -0.245 OA
ATOM     24  C   UNL     1     -35.890  23.508   1.773  0.00  0.00    +0.341 C 
BRANCH  24  25
ATOM     25  O   UNL     1     -37.038  24.223   1.651  0.00  0.00    -0.477 OA
ATOM     26  H   UNL     1     -37.535  24.447   2.414  0.00  0.00    +0.295 HD
ENDBRANCH  24  25
ENDBRANCH  13  24
TORSDOF 5
ENDMDL
MODEL 2
REMARK VINA RESULT:      -6.5      2.714      4.263
REMARK  Name = 5359407
REMARK  5 active torsions:
REMARK  status: ('A' for Active; 'I' for Inactive)
REMARK    1  A    between atoms: C_4  and  O_17
REMARK    2  A    between atoms: C_13  and  C_24
REMARK    3  A    between atoms: C_15  and  O_19
REMARK    4  A    between atoms: C_16  and  O_21
REMARK    5  A    between atoms: C_24  and  O_25
REMARK                            x       y       z     vdW  Elec       q    Type
REMARK                         _______ _______ _______ _____ _____    ______ ____
ROOT
ATOM      1  O   UNL     1     -36.119  25.668   5.472  0.00  0.00    -0.329 OA
ATOM      2  O   UNL     1     -34.946  22.364   3.225  0.00  0.00    -0.458 OA
ATOM      3  O   UNL     1     -38.815  23.610   2.881  0.00  0.00    -0.287 OA
ATOM      4  C   UNL     1     -34.775  25.678   4.974  0.00  0.00    +0.191 C 
ATOM      5  C   UNL     1     -34.348  24.238   4.641  0.00  0.00    +0.120 C 
ATOM      6  C   UNL     1     -35.399  23.508   3.854  0.00  0.00    +0.129 A 
ATOM      7  C   UNL     1     -36.655  23.978   3.792  0.00  0.00    +0.077 A 
ATOM      8  C   UNL     1     -37.082  25.222   4.511  0.00  0.00    +0.177 C 
ATOM      9  C   UNL     1     -37.655  23.235   2.988  0.00  0.00    +0.200 A 
ATOM     10  C   UNL     1     -37.172  22.015   2.319  0.00  0.00    +0.083 A 
ATOM     11  C   UNL     1     -33.879  26.249   6.073  0.00  0.00    +0.061 C 
ATOM     12  C   UNL     1     -35.838  21.642   2.474  0.00  0.00    +0.151 A 
ATOM     13  C   UNL     1     -38.035  21.240   1.540  0.00  0.00    +0.118 C 
ATOM     14  C   UNL     1     -35.359  20.491   1.848  0.00  0.00    +0.077 C 
ATOM     15  C   UNL     1     -37.553  20.088   0.916  0.00  0.00    +0.174 C 
ATOM     16  C   UNL     1     -36.217  19.715   1.069  0.00  0.00    +0.171 C 
ENDROOT
BRANCH   4  17
ATOM     17  O   UNL     1     -34.630  26.488   3.805  0.00  0.00    -0.363 OA
ATOM     18  H   UNL     1     -34.385  27.390   4.065  0.00  0.00    +0.213 HD
ENDBRANCH   4  17
BRANCH  15  19
ATOM     19  O   UNL     1     -38.377  19.316   0.150  0.00  0.00    -0.503 OA
ATOM     20  H   UNL     1     -39.289  19.253   0.359  0.00  0.00    +0.292 HD
ENDBRANCH  15  19
BRANCH  16  21
ATOM     21  O   UNL     1     -35.737  18.594   0.461  0.00  0.00    -0.503 OA
ATOM     22  H   UNL     1     -35.904  17.750   0.835  0.00  0.00    +0.292 HD
ENDBRANCH  16  21
BRANCH  13  24
ATOM     23  O   UNL     1     -39.888  22.245   0.407  0.00  0.00    -0.245 OA
ATOM     24  C   UNL     1     -39.443  21.571   1.337  0.00  0.00    +0.341 C 
BRANCH  24  25
ATOM     25  O   UNL     1     -40.239  21.045   2.305  0.00  0.00    -0.477 OA
ATOM     26  H   UNL     1     -40.235  20.121   2.465  0.00  0.00    +0.295 HD
ENDBRANCH  24  25
ENDBRANCH  13  24
TORSDOF 5
ENDMDL
MODEL 3
REMARK VINA RESULT:      -6.1      1.651      1.888
REMARK  Name = 5359407
REMARK  5 active torsions:
REMARK  status: ('A' for Active; 'I' for Inactive)
REMARK    1  A    between atoms: C_4  and  O_17
REMARK    2  A    between atoms: C_13  and  C_24
REMARK    3  A    between atoms: C_15  and  O_19
REMARK    4  A    between atoms: C_16  and  O_21
REMARK    5  A    between atoms: C_24  and  O_25
REMARK                            x       y       z     vdW  Elec       q    Type
REMARK                         _______ _______ _______ _____ _____    ______ ____
ROOT
ATOM      1  O   UNL     1     -32.144  30.055   4.350  0.00  0.00    -0.329 OA
ATOM      2  O   UNL     1     -33.339  26.282   5.649  0.00  0.00    -0.458 OA
ATOM      3  O   UNL     1     -35.235  27.854   2.398  0.00  0.00    -0.287 OA
ATOM      4  C   UNL     1     -31.119  29.208   4.886  0.00  0.00    +0.191 C 
ATOM      5  C   UNL     1     -31.765  28.123   5.764  0.00  0.00    +0.120 C 
ATOM      6  C   UNL     1     -32.944  27.482   5.087  0.00  0.00    +0.129 A 
ATOM      7  C   UNL     1     -33.520  28.062   4.023  0.00  0.00    +0.077 A 
ATOM      8  C   UNL     1     -33.047  29.374   3.472  0.00  0.00    +0.177 C 
ATOM      9  C   UNL     1     -34.668  27.385   3.376  0.00  0.00    +0.200 A 
ATOM     10  C   UNL     1     -35.090  26.107   3.976  0.00  0.00    +0.083 A 
ATOM     11  C   UNL     1     -30.193  30.082   5.732  0.00  0.00    +0.061 C 
ATOM     12  C   UNL     1     -34.401  25.622   5.086  0.00  0.00    +0.151 A 
ATOM     13  C   UNL     1     -36.165  25.390   3.443  0.00  0.00    +0.118 C 
ATOM     14  C   UNL     1     -34.782  24.414   5.669  0.00  0.00    +0.077 C 
ATOM     15  C   UNL     1     -36.544  24.182   4.030  0.00  0.00    +0.174 C 
ATOM     16  C   UNL     1     -35.854  23.694   5.140  0.00  0.00    +0.171 C 
ENDROOT
BRANCH   4  17
ATOM     17  O   UNL     1     -30.340  28.578   3.866  0.00  0.00    -0.363 OA
ATOM     18  H   UNL     1     -29.398  28.687   4.066  0.00  0.00    +0.213 HD
ENDBRANCH   4  17
BRANCH  15  19
ATOM     19  O   UNL     1     -37.590  23.464   3.528  0.00  0.00    -0.503 OA
ATOM     20  H   UNL     1     -38.467  23.779   3.630  0.00  0.00    +0.292 HD
ENDBRANCH  15  19
BRANCH  16  21
ATOM     21  O   UNL     1     -36.216  22.514   5.718  0.00  0.00    -0.503 OA
ATOM     22  H   UNL     1     -35.909  22.300   6.577  0.00  0.00    +0.292 HD
ENDBRANCH  16  21
BRANCH  13  24
ATOM     23  O   UNL     1     -36.777  25.438   1.131  0.00  0.00    -0.245 OA
ATOM     24  C   UNL     1     -36.931  25.841   2.285  0.00  0.00    +0.341 C 
BRANCH  24  25
ATOM     25  O   UNL     1     -37.860  26.776   2.615  0.00  0.00    -0.477 OA
ATOM     26  H   UNL     1     -38.583  26.942   2.042  0.00  0.00    +0.295 HD
ENDBRANCH  24  25
ENDBRANCH  13  24
TORSDOF 5
ENDMDL
MODEL 4
REMARK VINA RESULT:      -6.1      2.904      6.750
REMARK  Name = 5359407
REMARK  5 active torsions:
REMARK  status: ('A' for Active; 'I' for Inactive)
REMARK    1  A    between atoms: C_4  and  O_17
REMARK    2  A    between atoms: C_13  and  C_24
REMARK    3  A    between atoms: C_15  and  O_19
REMARK    4  A    between atoms: C_16  and  O_21
REMARK    5  A    between atoms: C_24  and  O_25
REMARK                            x       y       z     vdW  Elec       q    Type
REMARK                         _______ _______ _______ _____ _____    ______ ____
ROOT
ATOM      1  O   UNL     1     -36.877  20.331  -0.577  0.00  0.00    -0.329 OA
ATOM      2  O   UNL     1     -34.975  22.073   2.694  0.00  0.00    -0.458 OA
ATOM      3  O   UNL     1     -38.575  23.615   1.554  0.00  0.00    -0.287 OA
ATOM      4  C   UNL     1     -36.130  19.451   0.272  0.00  0.00    +0.191 C 
ATOM      5  C   UNL     1     -35.107  20.270   1.078  0.00  0.00    +0.120 C 
ATOM      6  C   UNL     1     -35.725  21.499   1.684  0.00  0.00    +0.129 A 
ATOM      7  C   UNL     1     -36.913  21.950   1.253  0.00  0.00    +0.077 A 
ATOM      8  C   UNL     1     -37.668  21.284   0.142  0.00  0.00    +0.177 C 
ATOM      9  C   UNL     1     -37.493  23.154   1.893  0.00  0.00    +0.200 A 
ATOM     10  C   UNL     1     -36.693  23.767   2.967  0.00  0.00    +0.083 A 
ATOM     11  C   UNL     1     -35.405  18.448  -0.626  0.00  0.00    +0.061 C 
ATOM     12  C   UNL     1     -35.471  23.192   3.312  0.00  0.00    +0.151 A 
ATOM     13  C   UNL     1     -37.149  24.908   3.633  0.00  0.00    +0.118 C 
ATOM     14  C   UNL     1     -34.698  23.755   4.327  0.00  0.00    +0.077 C 
ATOM     15  C   UNL     1     -36.372  25.469   4.648  0.00  0.00    +0.174 C 
ATOM     16  C   UNL     1     -35.149  24.893   4.995  0.00  0.00    +0.171 C 
ENDROOT
BRANCH   4  17
ATOM     17  O   UNL     1     -36.964  18.726   1.180  0.00  0.00    -0.363 OA
ATOM     18  H   UNL     1     -36.717  17.788   1.167  0.00  0.00    +0.213 HD
ENDBRANCH   4  17
BRANCH  15  19
ATOM     19  O   UNL     1     -36.797  26.583   5.313  0.00  0.00    -0.503 OA
ATOM     20  H   UNL     1     -36.490  27.429   5.052  0.00  0.00    +0.292 HD
ENDBRANCH  15  19
BRANCH  16  21
ATOM     21  O   UNL     1     -34.386  25.433   5.986  0.00  0.00    -0.503 OA
ATOM     22  H   UNL     1     -33.627  24.976   6.295  0.00  0.00    +0.292 HD
ENDBRANCH  16  21
BRANCH  13  24
ATOM     23  O   UNL     1     -38.554  26.519   2.558  0.00  0.00    -0.245 OA
ATOM     24  C   UNL     1     -38.417  25.562   3.322  0.00  0.00    +0.341 C 
BRANCH  24  25
ATOM     25  O   UNL     1     -39.463  24.995   3.977  0.00  0.00    -0.477 OA
ATOM     26  H   UNL     1     -40.269  25.464   4.070  0.00  0.00    +0.295 HD
ENDBRANCH  24  25
ENDBRANCH  13  24
TORSDOF 5
ENDMDL
MODEL 5
REMARK VINA RESULT:      -5.8      2.640      6.809
REMARK  Name = 5359407
REMARK  5 active torsions:
REMARK  status: ('A' for Active; 'I' for Inactive)
REMARK    1  A    between atoms: C_4  and  O_17
REMARK    2  A    between atoms: C_13  and  C_24
REMARK    3  A    between atoms: C_15  and  O_19
REMARK    4  A    between atoms: C_16  and  O_21
REMARK    5  A    between atoms: C_24  and  O_25
REMARK                            x       y       z     vdW  Elec       q    Type
REMARK                         _______ _______ _______ _____ _____    ______ ____
ROOT
ATOM      1  O   UNL     1     -35.983  19.524   1.265  0.00  0.00    -0.329 OA
ATOM      2  O   UNL     1     -34.124  23.230   0.865  0.00  0.00    -0.458 OA
ATOM      3  O   UNL     1     -36.720  22.739   3.972  0.00  0.00    -0.287 OA
ATOM      4  C   UNL     1     -34.636  19.514   0.774  0.00  0.00    +0.191 C 
ATOM      5  C   UNL     1     -34.294  20.903   0.206  0.00  0.00    +0.120 C 
ATOM      6  C   UNL     1     -34.711  22.008   1.135  0.00  0.00    +0.129 A 
ATOM      7  C   UNL     1     -35.576  21.771   2.134  0.00  0.00    +0.077 A 
ATOM      8  C   UNL     1     -36.185  20.420   2.363  0.00  0.00    +0.177 C 
ATOM      9  C   UNL     1     -35.944  22.887   3.037  0.00  0.00    +0.200 A 
ATOM     10  C   UNL     1     -35.320  24.189   2.748  0.00  0.00    +0.083 A 
ATOM     11  C   UNL     1     -34.554  18.462  -0.331  0.00  0.00    +0.061 C 
ATOM     12  C   UNL     1     -34.440  24.292   1.672  0.00  0.00    +0.151 A 
ATOM     13  C   UNL     1     -35.603  25.307   3.538  0.00  0.00    +0.118 C 
ATOM     14  C   UNL     1     -33.836  25.515   1.380  0.00  0.00    +0.077 C 
ATOM     15  C   UNL     1     -34.999  26.529   3.242  0.00  0.00    +0.174 C 
ATOM     16  C   UNL     1     -34.116  26.633   2.167  0.00  0.00    +0.171 C 
ENDROOT
BRANCH   4  17
ATOM     17  O   UNL     1     -33.685  19.180   1.789  0.00  0.00    -0.363 OA
ATOM     18  H   UNL     1     -32.914  19.761   1.712  0.00  0.00    +0.213 HD
ENDBRANCH   4  17
BRANCH  15  19
ATOM     19  O   UNL     1     -35.259  27.634   4.000  0.00  0.00    -0.503 OA
ATOM     20  H   UNL     1     -36.003  27.646   4.570  0.00  0.00    +0.292 HD
ENDBRANCH  15  19
BRANCH  16  21
ATOM     21  O   UNL     1     -33.518  27.822   1.874  0.00  0.00    -0.503 OA
ATOM     22  H   UNL     1     -33.779  28.602   2.325  0.00  0.00    +0.292 HD
ENDBRANCH  16  21
BRANCH  13  24
ATOM     23  O   UNL     1     -36.176  25.293   5.861  0.00  0.00    -0.245 OA
ATOM     24  C   UNL     1     -36.516  25.269   4.677  0.00  0.00    +0.341 C 
BRANCH  24  25
ATOM     25  O   UNL     1     -37.818  25.206   4.291  0.00  0.00    -0.477 OA
ATOM     26  H   UNL     1     -38.433  25.836   4.612  0.00  0.00    +0.295 HD
ENDBRANCH  24  25
ENDBRANCH  13  24
TORSDOF 5
ENDMDL
MODEL 6
REMARK VINA RESULT:      -5.7      3.516      7.736
REMARK  Name = 5359407
REMARK  5 active torsions:
REMARK  status: ('A' for Active; 'I' for Inactive)
REMARK    1  A    between atoms: C_4  and  O_17
REMARK    2  A    between atoms: C_13  and  C_24
REMARK    3  A    between atoms: C_15  and  O_19
REMARK    4  A    between atoms: C_16  and  O_21
REMARK    5  A    between atoms: C_24  and  O_25
REMARK                            x       y       z     vdW  Elec       q    Type
REMARK                         _______ _______ _______ _____ _____    ______ ____
ROOT
ATOM      1  O   UNL     1     -37.067  18.683   0.367  0.00  0.00    -0.329 OA
ATOM      2  O   UNL     1     -38.750  22.438   1.010  0.00  0.00    -0.458 OA
ATOM      3  O   UNL     1     -35.454  21.441   3.196  0.00  0.00    -0.287 OA
ATOM      4  C   UNL     1     -37.632  19.335  -0.778  0.00  0.00    +0.191 C 
ATOM      5  C   UNL     1     -38.631  20.407  -0.308  0.00  0.00    +0.120 C 
ATOM      6  C   UNL     1     -38.066  21.256   0.795  0.00  0.00    +0.129 A 
ATOM      7  C   UNL     1     -36.979  20.859   1.476  0.00  0.00    +0.077 A 
ATOM      8  C   UNL     1     -36.292  19.555   1.197  0.00  0.00    +0.177 C 
ATOM      9  C   UNL     1     -36.445  21.738   2.543  0.00  0.00    +0.200 A 
ATOM     10  C   UNL     1     -37.175  22.996   2.772  0.00  0.00    +0.083 A 
ATOM     11  C   UNL     1     -38.356  18.272  -1.604  0.00  0.00    +0.061 C 
ATOM     12  C   UNL     1     -38.294  23.281   1.992  0.00  0.00    +0.151 A 
ATOM     13  C   UNL     1     -36.756  23.894   3.758  0.00  0.00    +0.118 C 
ATOM     14  C   UNL     1     -39.000  24.467   2.191  0.00  0.00    +0.077 C 
ATOM     15  C   UNL     1     -37.465  25.079   3.956  0.00  0.00    +0.174 C 
ATOM     16  C   UNL     1     -38.584  25.366   3.174  0.00  0.00    +0.171 C 
ENDROOT
BRANCH   4  17
ATOM     17  O   UNL     1     -36.641  19.953  -1.602  0.00  0.00    -0.363 OA
ATOM     18  H   UNL     1     -36.701  20.916  -1.512  0.00  0.00    +0.213 HD
ENDBRANCH   4  17
BRANCH  15  19
ATOM     19  O   UNL     1     -37.074  25.971   4.912  0.00  0.00    -0.503 OA
ATOM     20  H   UNL     1     -36.915  26.866   4.681  0.00  0.00    +0.292 HD
ENDBRANCH  15  19
BRANCH  16  21
ATOM     21  O   UNL     1     -39.280  26.523   3.358  0.00  0.00    -0.503 OA
ATOM     22  H   UNL     1     -38.898  27.344   3.115  0.00  0.00    +0.292 HD
ENDBRANCH  16  21
BRANCH  13  24
ATOM     23  O   UNL     1     -34.454  24.064   4.388  0.00  0.00    -0.245 OA
ATOM     24  C   UNL     1     -35.595  23.658   4.613  0.00  0.00    +0.341 C 
BRANCH  24  25
ATOM     25  O   UNL     1     -35.907  22.925   5.713  0.00  0.00    -0.477 OA
ATOM     26  H   UNL     1     -35.234  22.670   6.314  0.00  0.00    +0.295 HD
ENDBRANCH  24  25
ENDBRANCH  13  24
TORSDOF 5
ENDMDL
MODEL 7
REMARK VINA RESULT:      -5.7      1.706      6.297
REMARK  Name = 5359407
REMARK  5 active torsions:
REMARK  status: ('A' for Active; 'I' for Inactive)
REMARK    1  A    between atoms: C_4  and  O_17
REMARK    2  A    between atoms: C_13  and  C_24
REMARK    3  A    between atoms: C_15  and  O_19
REMARK    4  A    between atoms: C_16  and  O_21
REMARK    5  A    between atoms: C_24  and  O_25
REMARK                            x       y       z     vdW  Elec       q    Type
REMARK                         _______ _______ _______ _____ _____    ______ ____
ROOT
ATOM      1  O   UNL     1     -35.079  23.588   2.693  0.00  0.00    -0.329 OA
ATOM      2  O   UNL     1     -33.493  25.781   5.859  0.00  0.00    -0.458 OA
ATOM      3  O   UNL     1     -33.756  27.619   2.227  0.00  0.00    -0.287 OA
ATOM      4  C   UNL     1     -35.640  23.339   3.988  0.00  0.00    +0.191 C 
ATOM      5  C   UNL     1     -34.646  23.800   5.068  0.00  0.00    +0.120 C 
ATOM      6  C   UNL     1     -34.095  25.168   4.776  0.00  0.00    +0.129 A 
ATOM      7  C   UNL     1     -34.215  25.706   3.552  0.00  0.00    +0.077 A 
ATOM      8  C   UNL     1     -34.871  24.978   2.417  0.00  0.00    +0.177 C 
ATOM      9  C   UNL     1     -33.674  27.065   3.315  0.00  0.00    +0.200 A 
ATOM     10  C   UNL     1     -33.031  27.718   4.469  0.00  0.00    +0.083 A 
ATOM     11  C   UNL     1     -35.878  21.833   4.105  0.00  0.00    +0.061 C 
ATOM     12  C   UNL     1     -32.974  27.038   5.684  0.00  0.00    +0.151 A 
ATOM     13  C   UNL     1     -32.485  28.999   4.350  0.00  0.00    +0.118 C 
ATOM     14  C   UNL     1     -32.371  27.637   6.790  0.00  0.00    +0.077 C 
ATOM     15  C   UNL     1     -31.882  29.595   5.458  0.00  0.00    +0.174 C 
ATOM     16  C   UNL     1     -31.825  28.916   6.676  0.00  0.00    +0.171 C 
ENDROOT
BRANCH   4  17
ATOM     17  O   UNL     1     -36.886  24.011   4.184  0.00  0.00    -0.363 OA
ATOM     18  H   UNL     1     -37.578  23.564   3.673  0.00  0.00    +0.213 HD
ENDBRANCH   4  17
BRANCH  15  19
ATOM     19  O   UNL     1     -31.342  30.845   5.367  0.00  0.00    -0.503 OA
ATOM     20  H   UNL     1     -30.414  30.951   5.293  0.00  0.00    +0.292 HD
ENDBRANCH  15  19
BRANCH  16  21
ATOM     21  O   UNL     1     -31.241  29.492   7.764  0.00  0.00    -0.503 OA
ATOM     22  H   UNL     1     -30.709  30.257   7.660  0.00  0.00    +0.292 HD
ENDBRANCH  16  21
BRANCH  13  24
ATOM     23  O   UNL     1     -31.564  29.878   2.325  0.00  0.00    -0.245 OA
ATOM     24  C   UNL     1     -32.508  29.766   3.108  0.00  0.00    +0.341 C 
BRANCH  24  25
ATOM     25  O   UNL     1     -33.711  30.360   2.893  0.00  0.00    -0.477 OA
ATOM     26  H   UNL     1     -33.829  30.926   2.155  0.00  0.00    +0.295 HD
ENDBRANCH  24  25
ENDBRANCH  13  24
TORSDOF 5
ENDMDL
MODEL 8
REMARK VINA RESULT:      -5.6      3.441      4.961
REMARK  Name = 5359407
REMARK  5 active torsions:
REMARK  status: ('A' for Active; 'I' for Inactive)
REMARK    1  A    between atoms: C_4  and  O_17
REMARK    2  A    between atoms: C_13  and  C_24
REMARK    3  A    between atoms: C_15  and  O_19
REMARK    4  A    between atoms: C_16  and  O_21
REMARK    5  A    between atoms: C_24  and  O_25
REMARK                            x       y       z     vdW  Elec       q    Type
REMARK                         _______ _______ _______ _____ _____    ______ ____
ROOT
ATOM      1  O   UNL     1     -38.241  25.838  -0.722  0.00  0.00    -0.329 OA
ATOM      2  O   UNL     1     -36.791  25.374   3.156  0.00  0.00    -0.458 OA
ATOM      3  O   UNL     1     -36.576  22.158   0.656  0.00  0.00    -0.287 OA
ATOM      4  C   UNL     1     -37.609  26.982  -0.134  0.00  0.00    +0.191 C 
ATOM      5  C   UNL     1     -37.609  26.830   1.397  0.00  0.00    +0.120 C 
ATOM      6  C   UNL     1     -37.156  25.462   1.825  0.00  0.00    +0.129 A 
ATOM      7  C   UNL     1     -37.116  24.449   0.945  0.00  0.00    +0.077 A 
ATOM      8  C   UNL     1     -37.538  24.612  -0.484  0.00  0.00    +0.177 C 
ATOM      9  C   UNL     1     -36.645  23.122   1.407  0.00  0.00    +0.200 A 
ATOM     10  C   UNL     1     -36.258  23.028   2.825  0.00  0.00    +0.083 A 
ATOM     11  C   UNL     1     -38.420  28.214  -0.536  0.00  0.00    +0.061 C 
ATOM     12  C   UNL     1     -36.353  24.164   3.628  0.00  0.00    +0.151 A 
ATOM     13  C   UNL     1     -35.803  21.821   3.361  0.00  0.00    +0.118 C 
ATOM     14  C   UNL     1     -35.992  24.098   4.973  0.00  0.00    +0.077 C 
ATOM     15  C   UNL     1     -35.443  21.758   4.708  0.00  0.00    +0.174 C 
ATOM     16  C   UNL     1     -35.536  22.895   5.513  0.00  0.00    +0.171 C 
ENDROOT
BRANCH   4  17
ATOM     17  O   UNL     1     -36.264  27.159  -0.584  0.00  0.00    -0.363 OA
ATOM     18  H   UNL     1     -36.260  27.287  -1.545  0.00  0.00    +0.213 HD
ENDBRANCH   4  17
BRANCH  15  19
ATOM     19  O   UNL     1     -34.995  20.590   5.254  0.00  0.00    -0.503 OA
ATOM     20  H   UNL     1     -34.212  20.190   4.928  0.00  0.00    +0.292 HD
ENDBRANCH  15  19
BRANCH  16  21
ATOM     21  O   UNL     1     -35.184  22.843   6.828  0.00  0.00    -0.503 OA
ATOM     22  H   UNL     1     -35.786  22.505   7.461  0.00  0.00    +0.292 HD
ENDBRANCH  16  21
BRANCH  13  24
ATOM     23  O   UNL     1     -34.671  20.237   1.970  0.00  0.00    -0.245 OA
ATOM     24  C   UNL     1     -35.681  20.594   2.578  0.00  0.00    +0.341 C 
BRANCH  24  25
ATOM     25  O   UNL     1     -36.826  19.862   2.588  0.00  0.00    -0.477 OA
ATOM     26  H   UNL     1     -36.794  18.944   2.775  0.00  0.00    +0.295 HD
ENDBRANCH  24  25
ENDBRANCH  13  24
TORSDOF 5
ENDMDL
MODEL 9
REMARK VINA RESULT:      -5.5      3.974      6.475
REMARK  Name = 5359407
REMARK  5 active torsions:
REMARK  status: ('A' for Active; 'I' for Inactive)
REMARK    1  A    between atoms: C_4  and  O_17
REMARK    2  A    between atoms: C_13  and  C_24
REMARK    3  A    between atoms: C_15  and  O_19
REMARK    4  A    between atoms: C_16  and  O_21
REMARK    5  A    between atoms: C_24  and  O_25
REMARK                            x       y       z     vdW  Elec       q    Type
REMARK                         _______ _______ _______ _____ _____    ______ ____
ROOT
ATOM      1  O   UNL     1     -40.212  26.885   1.789  0.00  0.00    -0.329 OA
ATOM      2  O   UNL     1     -38.830  23.080   0.807  0.00  0.00    -0.458 OA
ATOM      3  O   UNL     1     -37.436  24.771   4.248  0.00  0.00    -0.287 OA
ATOM      4  C   UNL     1     -41.146  26.013   1.138  0.00  0.00    +0.191 C 
ATOM      5  C   UNL     1     -40.374  24.905   0.401  0.00  0.00    +0.120 C 
ATOM      6  C   UNL     1     -39.306  24.295   1.264  0.00  0.00    +0.129 A 
ATOM      7  C   UNL     1     -38.894  24.914   2.382  0.00  0.00    +0.077 A 
ATOM      8  C   UNL     1     -39.447  26.240   2.813  0.00  0.00    +0.177 C 
ATOM      9  C   UNL     1     -37.852  24.267   3.213  0.00  0.00    +0.200 A 
ATOM     10  C   UNL     1     -37.344  22.974   2.725  0.00  0.00    +0.083 A 
ATOM     11  C   UNL     1     -41.939  26.853   0.136  0.00  0.00    +0.061 C 
ATOM     12  C   UNL     1     -37.861  22.447   1.542  0.00  0.00    +0.151 A 
ATOM     13  C   UNL     1     -36.357  22.282   3.433  0.00  0.00    +0.118 C 
ATOM     14  C   UNL     1     -37.395  21.223   1.062  0.00  0.00    +0.077 C 
ATOM     15  C   UNL     1     -35.892  21.058   2.949  0.00  0.00    +0.174 C 
ATOM     16  C   UNL     1     -36.411  20.529   1.766  0.00  0.00    +0.171 C 
ENDROOT
BRANCH   4  17
ATOM     17  O   UNL     1     -42.065  25.411   2.053  0.00  0.00    -0.363 OA
ATOM     18  H   UNL     1     -41.572  24.923   2.731  0.00  0.00    +0.213 HD
ENDBRANCH   4  17
BRANCH  15  19
ATOM     19  O   UNL     1     -34.930  20.364   3.623  0.00  0.00    -0.503 OA
ATOM     20  H   UNL     1     -34.099  20.763   3.796  0.00  0.00    +0.292 HD
ENDBRANCH  15  19
BRANCH  16  21
ATOM     21  O   UNL     1     -35.965  19.334   1.288  0.00  0.00    -0.503 OA
ATOM     22  H   UNL     1     -36.430  18.545   1.490  0.00  0.00    +0.292 HD
ENDBRANCH  16  21
BRANCH  13  24
ATOM     23  O   UNL     1     -36.119  22.440   5.808  0.00  0.00    -0.245 OA
ATOM     24  C   UNL     1     -35.770  22.776   4.676  0.00  0.00    +0.341 C 
BRANCH  24  25
ATOM     25  O   UNL     1     -34.771  23.669   4.453  0.00  0.00    -0.477 OA
ATOM     26  H   UNL     1     -34.290  23.644   3.648  0.00  0.00    +0.295 HD
ENDBRANCH  24  25
ENDBRANCH  13  24
TORSDOF 5
ENDMDL
