MODEL 1
REMARK VINA RESULT:      -7.0      0.000      0.000
REMARK  Name = 193728
REMARK  3 active torsions:
REMARK  status: ('A' for Active; 'I' for Inactive)
REMARK    1  A    between atoms: N_3  and  C_20
REMARK    2  A    between atoms: C_20  and  O_21
REMARK    3  A    between atoms: O_21  and  C_23
REMARK                            x       y       z     vdW  Elec       q    Type
REMARK                         _______ _______ _______ _____ _____    ______ ____
ROOT
ATOM      1  O   UNL     1     -40.458  21.019   0.287  0.00  0.00    -0.266 OA
ATOM      2  O   UNL     1     -39.782  24.368   3.362  0.00  0.00    -0.193 OA
ATOM      3  N   UNL     1     -36.160  21.587   2.423  0.00  0.00    -0.235 N 
ATOM      4  N   UNL     1     -37.896  20.248   0.630  0.00  0.00    -0.396 NA
ATOM      5  N   UNL     1     -38.009  23.014   2.908  0.00  0.00    -0.303 NA
ATOM      6  N   UNL     1     -40.137  22.721   1.841  0.00  0.00    -0.196 N 
ATOM      7  C   UNL     1     -35.682  20.483   1.682  0.00  0.00    +0.153 C 
ATOM      8  C   UNL     1     -36.566  19.834   0.796  0.00  0.00    +0.131 C 
ATOM      9  C   UNL     1     -37.474  22.012   2.274  0.00  0.00    +0.235 C 
ATOM     10  C   UNL     1     -34.367  19.992   1.778  0.00  0.00    -0.004 C 
ATOM     11  C   UNL     1     -33.942  18.896   1.022  0.00  0.00    -0.028 C 
ATOM     12  C   UNL     1     -34.824  18.267   0.153  0.00  0.00    -0.024 C 
ATOM     13  C   UNL     1     -38.342  21.257   1.305  0.00  0.00    +0.230 C 
ATOM     14  C   UNL     1     -36.129  18.734   0.041  0.00  0.00    +0.025 C 
ATOM     15  C   UNL     1     -32.535  18.418   1.166  0.00  0.00    +0.030 C 
ATOM     16  C   UNL     1     -34.397  17.093  -0.664  0.00  0.00    +0.031 C 
ATOM     17  C   UNL     1     -39.767  21.640   1.076  0.00  0.00    +0.293 C 
ATOM     18  C   UNL     1     -39.318  23.411   2.736  0.00  0.00    +0.273 C 
ATOM     19  H   UNL     1     -41.065  23.038   1.750  0.00  0.00    +0.169 HD
ENDROOT
BRANCH   3  20
ATOM     20  C   UNL     1     -35.236  22.254   3.339  0.00  0.00    +0.310 C 
BRANCH  20  21
ATOM     21  O   UNL     1     -35.271  21.620   4.625  0.00  0.00    -0.427 OA
BRANCH  21  23
ATOM     22  O   UNL     1     -36.004  22.108   6.761  0.00  0.00    -0.250 OA
ATOM     23  C   UNL     1     -35.533  22.441   5.682  0.00  0.00    +0.319 C 
ATOM     24  C   UNL     1     -35.150  23.846   5.331  0.00  0.00    +0.121 C 
ENDBRANCH  21  23
ENDBRANCH  20  21
ENDBRANCH   3  20
TORSDOF 3
ENDMDL
MODEL 2
REMARK VINA RESULT:      -6.4      1.731      2.461
REMARK  Name = 193728
REMARK  3 active torsions:
REMARK  status: ('A' for Active; 'I' for Inactive)
REMARK    1  A    between atoms: N_3  and  C_20
REMARK    2  A    between atoms: C_20  and  O_21
REMARK    3  A    between atoms: O_21  and  C_23
REMARK                            x       y       z     vdW  Elec       q    Type
REMARK                         _______ _______ _______ _____ _____    ______ ____
ROOT
ATOM      1  O   UNL     1     -41.758  23.482   0.363  0.00  0.00    -0.266 OA
ATOM      2  O   UNL     1     -40.713  26.873   3.285  0.00  0.00    -0.193 OA
ATOM      3  N   UNL     1     -37.526  23.521   2.697  0.00  0.00    -0.235 N 
ATOM      4  N   UNL     1     -39.365  22.353   0.887  0.00  0.00    -0.396 NA
ATOM      5  N   UNL     1     -39.152  25.239   3.002  0.00  0.00    -0.303 NA
ATOM      6  N   UNL     1     -41.249  25.208   1.838  0.00  0.00    -0.196 N 
ATOM      7  C   UNL     1     -37.192  22.314   2.044  0.00  0.00    +0.153 C 
ATOM      8  C   UNL     1     -38.124  21.753   1.147  0.00  0.00    +0.131 C 
ATOM      9  C   UNL     1     -38.750  24.131   2.453  0.00  0.00    +0.235 C 
ATOM     10  C   UNL     1     -35.975  21.635   2.238  0.00  0.00    -0.004 C 
ATOM     11  C   UNL     1     -35.690  20.443   1.566  0.00  0.00    -0.028 C 
ATOM     12  C   UNL     1     -36.618  19.903   0.686  0.00  0.00    -0.024 C 
ATOM     13  C   UNL     1     -39.680  23.458   1.481  0.00  0.00    +0.230 C 
ATOM     14  C   UNL     1     -37.829  20.555   0.477  0.00  0.00    +0.025 C 
ATOM     15  C   UNL     1     -34.382  19.767   1.812  0.00  0.00    +0.030 C 
ATOM     16  C   UNL     1     -36.341  18.630  -0.043  0.00  0.00    +0.031 C 
ATOM     17  C   UNL     1     -41.016  24.039   1.154  0.00  0.00    +0.293 C 
ATOM     18  C   UNL     1     -40.375  25.819   2.738  0.00  0.00    +0.273 C 
ATOM     19  H   UNL     1     -42.111  25.656   1.680  0.00  0.00    +0.169 HD
ENDROOT
BRANCH   3  20
ATOM     20  C   UNL     1     -36.553  24.095   3.624  0.00  0.00    +0.310 C 
BRANCH  20  21
ATOM     21  O   UNL     1     -36.615  23.418   4.888  0.00  0.00    -0.427 OA
BRANCH  21  23
ATOM     22  O   UNL     1     -34.590  24.255   5.619  0.00  0.00    -0.250 OA
ATOM     23  C   UNL     1     -35.453  23.388   5.600  0.00  0.00    +0.319 C 
ATOM     24  C   UNL     1     -35.378  22.112   6.383  0.00  0.00    +0.121 C 
ENDBRANCH  21  23
ENDBRANCH  20  21
ENDBRANCH   3  20
TORSDOF 3
ENDMDL
MODEL 3
REMARK VINA RESULT:      -6.2      4.444      7.435
REMARK  Name = 193728
REMARK  3 active torsions:
REMARK  status: ('A' for Active; 'I' for Inactive)
REMARK    1  A    between atoms: N_3  and  C_20
REMARK    2  A    between atoms: C_20  and  O_21
REMARK    3  A    between atoms: O_21  and  C_23
REMARK                            x       y       z     vdW  Elec       q    Type
REMARK                         _______ _______ _______ _____ _____    ______ ____
ROOT
ATOM      1  O   UNL     1     -33.187  29.467   2.239  0.00  0.00    -0.266 OA
ATOM      2  O   UNL     1     -31.406  27.766   6.120  0.00  0.00    -0.193 OA
ATOM      3  N   UNL     1     -35.401  25.889   4.618  0.00  0.00    -0.235 N 
ATOM      4  N   UNL     1     -35.231  27.723   2.465  0.00  0.00    -0.396 NA
ATOM      5  N   UNL     1     -33.356  26.845   5.392  0.00  0.00    -0.303 NA
ATOM      6  N   UNL     1     -32.268  28.620   4.202  0.00  0.00    -0.196 N 
ATOM      7  C   UNL     1     -36.409  25.900   3.629  0.00  0.00    +0.153 C 
ATOM      8  C   UNL     1     -36.302  26.821   2.568  0.00  0.00    +0.131 C 
ATOM      9  C   UNL     1     -34.333  26.774   4.536  0.00  0.00    +0.235 C 
ATOM     10  C   UNL     1     -37.521  25.038   3.643  0.00  0.00    -0.004 C 
ATOM     11  C   UNL     1     -38.492  25.087   2.639  0.00  0.00    -0.028 C 
ATOM     12  C   UNL     1     -38.374  25.999   1.600  0.00  0.00    -0.024 C 
ATOM     13  C   UNL     1     -34.304  27.721   3.367  0.00  0.00    +0.230 C 
ATOM     14  C   UNL     1     -37.283  26.863   1.565  0.00  0.00    +0.025 C 
ATOM     15  C   UNL     1     -39.652  24.147   2.706  0.00  0.00    +0.030 C 
ATOM     16  C   UNL     1     -39.398  26.074   0.517  0.00  0.00    +0.031 C 
ATOM     17  C   UNL     1     -33.196  28.707   3.192  0.00  0.00    +0.293 C 
ATOM     18  C   UNL     1     -32.310  27.735   5.280  0.00  0.00    +0.273 C 
ATOM     19  H   UNL     1     -31.503  29.239   4.162  0.00  0.00    +0.169 HD
ENDROOT
BRANCH   3  20
ATOM     20  C   UNL     1     -35.520  24.930   5.715  0.00  0.00    +0.310 C 
BRANCH  20  21
ATOM     21  O   UNL     1     -34.760  23.749   5.422  0.00  0.00    -0.427 OA
BRANCH  21  23
ATOM     22  O   UNL     1     -35.933  22.079   6.506  0.00  0.00    -0.250 OA
ATOM     23  C   UNL     1     -35.444  22.572   5.498  0.00  0.00    +0.319 C 
ATOM     24  C   UNL     1     -35.520  21.948   4.137  0.00  0.00    +0.121 C 
ENDBRANCH  21  23
ENDBRANCH  20  21
ENDBRANCH   3  20
TORSDOF 3
ENDMDL
MODEL 4
REMARK VINA RESULT:      -6.1      1.992      5.460
REMARK  Name = 193728
REMARK  3 active torsions:
REMARK  status: ('A' for Active; 'I' for Inactive)
REMARK    1  A    between atoms: N_3  and  C_20
REMARK    2  A    between atoms: C_20  and  O_21
REMARK    3  A    between atoms: O_21  and  C_23
REMARK                            x       y       z     vdW  Elec       q    Type
REMARK                         _______ _______ _______ _____ _____    ______ ____
ROOT
ATOM      1  O   UNL     1     -37.755  18.916  -0.450  0.00  0.00    -0.266 OA
ATOM      2  O   UNL     1     -33.867  19.336   1.966  0.00  0.00    -0.193 OA
ATOM      3  N   UNL     1     -37.028  22.732   2.425  0.00  0.00    -0.235 N 
ATOM      4  N   UNL     1     -38.604  21.252   0.595  0.00  0.00    -0.396 NA
ATOM      5  N   UNL     1     -35.407  20.997   2.195  0.00  0.00    -0.303 NA
ATOM      6  N   UNL     1     -35.779  19.109   0.765  0.00  0.00    -0.196 N 
ATOM      7  C   UNL     1     -38.296  23.221   2.042  0.00  0.00    +0.153 C 
ATOM      8  C   UNL     1     -39.062  22.467   1.130  0.00  0.00    +0.131 C 
ATOM      9  C   UNL     1     -36.557  21.532   1.907  0.00  0.00    +0.235 C 
ATOM     10  C   UNL     1     -38.843  24.426   2.520  0.00  0.00    -0.004 C 
ATOM     11  C   UNL     1     -40.104  24.867   2.111  0.00  0.00    -0.028 C 
ATOM     12  C   UNL     1     -40.847  24.113   1.212  0.00  0.00    -0.024 C 
ATOM     13  C   UNL     1     -37.444  20.797   0.940  0.00  0.00    +0.230 C 
ATOM     14  C   UNL     1     -40.327  22.918   0.724  0.00  0.00    +0.025 C 
ATOM     15  C   UNL     1     -40.633  26.155   2.652  0.00  0.00    +0.030 C 
ATOM     16  C   UNL     1     -42.195  24.562   0.756  0.00  0.00    +0.031 C 
ATOM     17  C   UNL     1     -37.024  19.500   0.331  0.00  0.00    +0.293 C 
ATOM     18  C   UNL     1     -34.968  19.804   1.663  0.00  0.00    +0.273 C 
ATOM     19  H   UNL     1     -35.427  18.262   0.408  0.00  0.00    +0.169 HD
ENDROOT
BRANCH   3  20
ATOM     20  C   UNL     1     -36.242  23.521   3.372  0.00  0.00    +0.310 C 
BRANCH  20  21
ATOM     21  O   UNL     1     -36.498  23.082   4.714  0.00  0.00    -0.427 OA
BRANCH  21  23
ATOM     22  O   UNL     1     -34.804  24.266   5.746  0.00  0.00    -0.250 OA
ATOM     23  C   UNL     1     -35.474  23.253   5.598  0.00  0.00    +0.319 C 
ATOM     24  C   UNL     1     -35.278  21.994   6.387  0.00  0.00    +0.121 C 
ENDBRANCH  21  23
ENDBRANCH  20  21
ENDBRANCH   3  20
TORSDOF 3
ENDMDL
MODEL 5
REMARK VINA RESULT:      -6.1      3.866      5.878
REMARK  Name = 193728
REMARK  3 active torsions:
REMARK  status: ('A' for Active; 'I' for Inactive)
REMARK    1  A    between atoms: N_3  and  C_20
REMARK    2  A    between atoms: C_20  and  O_21
REMARK    3  A    between atoms: O_21  and  C_23
REMARK                            x       y       z     vdW  Elec       q    Type
REMARK                         _______ _______ _______ _____ _____    ______ ____
ROOT
ATOM      1  O   UNL     1     -39.506  20.393   0.269  0.00  0.00    -0.266 OA
ATOM      2  O   UNL     1     -42.869  23.378  -0.682  0.00  0.00    -0.193 OA
ATOM      3  N   UNL     1     -39.601  24.757   2.343  0.00  0.00    -0.235 N 
ATOM      4  N   UNL     1     -38.425  22.212   1.941  0.00  0.00    -0.396 NA
ATOM      5  N   UNL     1     -41.276  24.058   0.796  0.00  0.00    -0.303 NA
ATOM      6  N   UNL     1     -41.218  21.889  -0.226  0.00  0.00    -0.196 N 
ATOM      7  C   UNL     1     -38.415  24.420   3.031  0.00  0.00    +0.153 C 
ATOM      8  C   UNL     1     -37.849  23.147   2.814  0.00  0.00    +0.131 C 
ATOM      9  C   UNL     1     -40.188  23.845   1.475  0.00  0.00    +0.235 C 
ATOM     10  C   UNL     1     -37.762  25.286   3.927  0.00  0.00    -0.004 C 
ATOM     11  C   UNL     1     -36.588  24.906   4.584  0.00  0.00    -0.028 C 
ATOM     12  C   UNL     1     -36.042  23.649   4.360  0.00  0.00    -0.024 C 
ATOM     13  C   UNL     1     -39.511  22.512   1.307  0.00  0.00    +0.230 C 
ATOM     14  C   UNL     1     -36.670  22.774   3.479  0.00  0.00    +0.025 C 
ATOM     15  C   UNL     1     -35.939  25.867   5.524  0.00  0.00    +0.030 C 
ATOM     16  C   UNL     1     -34.791  23.216   5.049  0.00  0.00    +0.031 C 
ATOM     17  C   UNL     1     -40.066  21.468   0.395  0.00  0.00    +0.293 C 
ATOM     18  C   UNL     1     -41.833  23.130  -0.059  0.00  0.00    +0.273 C 
ATOM     19  H   UNL     1     -41.649  21.257  -0.846  0.00  0.00    +0.169 HD
ENDROOT
BRANCH   3  20
ATOM     20  C   UNL     1     -40.180  26.079   2.575  0.00  0.00    +0.310 C 
BRANCH  20  21
ATOM     21  O   UNL     1     -41.076  26.037   3.695  0.00  0.00    -0.427 OA
BRANCH  21  23
ATOM     22  O   UNL     1     -41.750  28.117   4.440  0.00  0.00    -0.250 OA
ATOM     23  C   UNL     1     -41.936  27.089   3.804  0.00  0.00    +0.319 C 
ATOM     24  C   UNL     1     -43.177  26.805   3.012  0.00  0.00    +0.121 C 
ENDBRANCH  21  23
ENDBRANCH  20  21
ENDBRANCH   3  20
TORSDOF 3
ENDMDL
MODEL 6
REMARK VINA RESULT:      -6.0      2.182      5.136
REMARK  Name = 193728
REMARK  3 active torsions:
REMARK  status: ('A' for Active; 'I' for Inactive)
REMARK    1  A    between atoms: N_3  and  C_20
REMARK    2  A    between atoms: C_20  and  O_21
REMARK    3  A    between atoms: O_21  and  C_23
REMARK                            x       y       z     vdW  Elec       q    Type
REMARK                         _______ _______ _______ _____ _____    ______ ____
ROOT
ATOM      1  O   UNL     1     -41.360  24.263   0.817  0.00  0.00    -0.266 OA
ATOM      2  O   UNL     1     -40.734  20.045  -0.898  0.00  0.00    -0.193 OA
ATOM      3  N   UNL     1     -37.555  21.592   2.140  0.00  0.00    -0.235 N 
ATOM      4  N   UNL     1     -39.100  23.963   2.259  0.00  0.00    -0.396 NA
ATOM      5  N   UNL     1     -39.178  20.794   0.585  0.00  0.00    -0.303 NA
ATOM      6  N   UNL     1     -41.061  22.129  -0.064  0.00  0.00    -0.196 N 
ATOM      7  C   UNL     1     -37.141  22.654   2.974  0.00  0.00    +0.153 C 
ATOM      8  C   UNL     1     -37.927  23.823   3.016  0.00  0.00    +0.131 C 
ATOM      9  C   UNL     1     -38.712  21.711   1.382  0.00  0.00    +0.235 C 
ATOM     10  C   UNL     1     -35.981  22.612   3.771  0.00  0.00    -0.004 C 
ATOM     11  C   UNL     1     -35.615  23.689   4.581  0.00  0.00    -0.028 C 
ATOM     12  C   UNL     1     -36.399  24.835   4.612  0.00  0.00    -0.024 C 
ATOM     13  C   UNL     1     -39.486  22.996   1.492  0.00  0.00    +0.230 C 
ATOM     14  C   UNL     1     -37.550  24.901   3.833  0.00  0.00    +0.025 C 
ATOM     15  C   UNL     1     -34.373  23.588   5.405  0.00  0.00    +0.030 C 
ATOM     16  C   UNL     1     -36.029  26.001   5.467  0.00  0.00    +0.031 C 
ATOM     17  C   UNL     1     -40.744  23.216   0.717  0.00  0.00    +0.293 C 
ATOM     18  C   UNL     1     -40.332  20.943  -0.154  0.00  0.00    +0.273 C 
ATOM     19  H   UNL     1     -41.879  22.194  -0.609  0.00  0.00    +0.169 HD
ENDROOT
BRANCH   3  20
ATOM     20  C   UNL     1     -36.733  20.383   2.104  0.00  0.00    +0.310 C 
BRANCH  20  21
ATOM     21  O   UNL     1     -35.955  20.351   0.899  0.00  0.00    -0.427 OA
BRANCH  21  23
ATOM     22  O   UNL     1     -34.066  21.680   0.896  0.00  0.00    -0.250 OA
ATOM     23  C   UNL     1     -34.623  20.602   1.048  0.00  0.00    +0.319 C 
ATOM     24  C   UNL     1     -33.916  19.339   1.437  0.00  0.00    +0.121 C 
ENDBRANCH  21  23
ENDBRANCH  20  21
ENDBRANCH   3  20
TORSDOF 3
ENDMDL
MODEL 7
REMARK VINA RESULT:      -5.9      3.801      6.678
REMARK  Name = 193728
REMARK  3 active torsions:
REMARK  status: ('A' for Active; 'I' for Inactive)
REMARK    1  A    between atoms: N_3  and  C_20
REMARK    2  A    between atoms: C_20  and  O_21
REMARK    3  A    between atoms: O_21  and  C_23
REMARK                            x       y       z     vdW  Elec       q    Type
REMARK                         _______ _______ _______ _____ _____    ______ ____
ROOT
ATOM      1  O   UNL     1     -38.322  27.151   0.490  0.00  0.00    -0.266 OA
ATOM      2  O   UNL     1     -39.766  23.736   3.207  0.00  0.00    -0.193 OA
ATOM      3  N   UNL     1     -35.745  25.800   4.349  0.00  0.00    -0.235 N 
ATOM      4  N   UNL     1     -36.156  27.434   2.072  0.00  0.00    -0.396 NA
ATOM      5  N   UNL     1     -37.802  24.740   3.770  0.00  0.00    -0.303 NA
ATOM      6  N   UNL     1     -39.071  25.419   1.853  0.00  0.00    -0.196 N 
ATOM      7  C   UNL     1     -34.796  26.794   4.023  0.00  0.00    +0.153 C 
ATOM      8  C   UNL     1     -35.023  27.594   2.885  0.00  0.00    +0.131 C 
ATOM      9  C   UNL     1     -36.872  25.624   3.557  0.00  0.00    +0.235 C 
ATOM     10  C   UNL     1     -33.630  27.033   4.773  0.00  0.00    -0.004 C 
ATOM     11  C   UNL     1     -32.722  28.031   4.409  0.00  0.00    -0.028 C 
ATOM     12  C   UNL     1     -32.959  28.811   3.286  0.00  0.00    -0.024 C 
ATOM     13  C   UNL     1     -37.029  26.526   2.363  0.00  0.00    +0.230 C 
ATOM     14  C   UNL     1     -34.105  28.594   2.527  0.00  0.00    +0.025 C 
ATOM     15  C   UNL     1     -31.500  28.239   5.243  0.00  0.00    +0.030 C 
ATOM     16  C   UNL     1     -32.004  29.882   2.873  0.00  0.00    +0.031 C 
ATOM     17  C   UNL     1     -38.208  26.413   1.453  0.00  0.00    +0.293 C 
ATOM     18  C   UNL     1     -38.910  24.591   2.964  0.00  0.00    +0.273 C 
ATOM     19  H   UNL     1     -39.876  25.279   1.304  0.00  0.00    +0.169 HD
ENDROOT
BRANCH   3  20
ATOM     20  C   UNL     1     -35.500  24.976   5.532  0.00  0.00    +0.310 C 
BRANCH  20  21
ATOM     21  O   UNL     1     -34.783  23.788   5.166  0.00  0.00    -0.427 OA
BRANCH  21  23
ATOM     22  O   UNL     1     -35.937  22.210   6.397  0.00  0.00    -0.250 OA
ATOM     23  C   UNL     1     -35.451  22.614   5.349  0.00  0.00    +0.319 C 
ATOM     24  C   UNL     1     -35.513  21.865   4.052  0.00  0.00    +0.121 C 
ENDBRANCH  21  23
ENDBRANCH  20  21
ENDBRANCH   3  20
TORSDOF 3
ENDMDL
MODEL 8
REMARK VINA RESULT:      -5.9      4.177      7.837
REMARK  Name = 193728
REMARK  3 active torsions:
REMARK  status: ('A' for Active; 'I' for Inactive)
REMARK    1  A    between atoms: N_3  and  C_20
REMARK    2  A    between atoms: C_20  and  O_21
REMARK    3  A    between atoms: O_21  and  C_23
REMARK                            x       y       z     vdW  Elec       q    Type
REMARK                         _______ _______ _______ _____ _____    ______ ____
ROOT
ATOM      1  O   UNL     1     -35.220  22.686   6.487  0.00  0.00    -0.266 OA
ATOM      2  O   UNL     1     -37.611  22.244   2.587  0.00  0.00    -0.193 OA
ATOM      3  N   UNL     1     -35.040  26.102   3.073  0.00  0.00    -0.235 N 
ATOM      4  N   UNL     1     -34.292  25.056   5.597  0.00  0.00    -0.396 NA
ATOM      5  N   UNL     1     -36.358  24.130   2.818  0.00  0.00    -0.303 NA
ATOM      6  N   UNL     1     -36.439  22.442   4.520  0.00  0.00    -0.196 N 
ATOM      7  C   UNL     1     -34.156  26.833   3.897  0.00  0.00    +0.153 C 
ATOM      8  C   UNL     1     -33.799  26.291   5.148  0.00  0.00    +0.131 C 
ATOM      9  C   UNL     1     -35.541  24.878   3.499  0.00  0.00    +0.235 C 
ATOM     10  C   UNL     1     -33.609  28.079   3.539  0.00  0.00    -0.004 C 
ATOM     11  C   UNL     1     -32.736  28.763   4.389  0.00  0.00    -0.028 C 
ATOM     12  C   UNL     1     -32.393  28.217   5.619  0.00  0.00    -0.024 C 
ATOM     13  C   UNL     1     -35.102  24.381   4.849  0.00  0.00    +0.230 C 
ATOM     14  C   UNL     1     -32.921  26.986   5.996  0.00  0.00    +0.025 C 
ATOM     15  C   UNL     1     -32.186  30.082   3.956  0.00  0.00    +0.030 C 
ATOM     16  C   UNL     1     -31.465  28.927   6.548  0.00  0.00    +0.031 C 
ATOM     17  C   UNL     1     -35.585  23.076   5.392  0.00  0.00    +0.293 C 
ATOM     18  C   UNL     1     -36.836  22.918   3.270  0.00  0.00    +0.273 C 
ATOM     19  H   UNL     1     -36.804  21.573   4.803  0.00  0.00    +0.169 HD
ENDROOT
BRANCH   3  20
ATOM     20  C   UNL     1     -35.405  26.672   1.777  0.00  0.00    +0.310 C 
BRANCH  20  21
ATOM     21  O   UNL     1     -36.619  27.429   1.894  0.00  0.00    -0.427 OA
BRANCH  21  23
ATOM     22  O   UNL     1     -38.202  28.453   0.560  0.00  0.00    -0.250 OA
ATOM     23  C   UNL     1     -37.286  27.661   0.728  0.00  0.00    +0.319 C 
ATOM     24  C   UNL     1     -36.724  26.787  -0.352  0.00  0.00    +0.121 C 
ENDBRANCH  21  23
ENDBRANCH  20  21
ENDBRANCH   3  20
TORSDOF 3
ENDMDL
MODEL 9
REMARK VINA RESULT:      -5.8      4.213      7.525
REMARK  Name = 193728
REMARK  3 active torsions:
REMARK  status: ('A' for Active; 'I' for Inactive)
REMARK    1  A    between atoms: N_3  and  C_20
REMARK    2  A    between atoms: C_20  and  O_21
REMARK    3  A    between atoms: O_21  and  C_23
REMARK                            x       y       z     vdW  Elec       q    Type
REMARK                         _______ _______ _______ _____ _____    ______ ____
ROOT
ATOM      1  O   UNL     1     -35.923  22.520   6.344  0.00  0.00    -0.266 OA
ATOM      2  O   UNL     1     -36.915  21.589   1.954  0.00  0.00    -0.193 OA
ATOM      3  N   UNL     1     -34.382  25.413   2.791  0.00  0.00    -0.235 N 
ATOM      4  N   UNL     1     -34.586  24.717   5.529  0.00  0.00    -0.396 NA
ATOM      5  N   UNL     1     -35.677  23.457   2.356  0.00  0.00    -0.303 NA
ATOM      6  N   UNL     1     -36.436  22.030   4.127  0.00  0.00    -0.196 N 
ATOM      7  C   UNL     1     -33.771  26.231   3.766  0.00  0.00    +0.153 C 
ATOM      8  C   UNL     1     -33.886  25.863   5.122  0.00  0.00    +0.131 C 
ATOM      9  C   UNL     1     -35.081  24.274   3.173  0.00  0.00    +0.235 C 
ATOM     10  C   UNL     1     -33.049  27.399   3.461  0.00  0.00    -0.004 C 
ATOM     11  C   UNL     1     -32.461  28.175   4.463  0.00  0.00    -0.028 C 
ATOM     12  C   UNL     1     -32.582  27.800   5.794  0.00  0.00    -0.024 C 
ATOM     13  C   UNL     1     -35.150  23.962   4.643  0.00  0.00    +0.230 C 
ATOM     14  C   UNL     1     -33.292  26.649   6.122  0.00  0.00    +0.025 C 
ATOM     15  C   UNL     1     -31.706  29.405   4.078  0.00  0.00    +0.030 C 
ATOM     16  C   UNL     1     -31.966  28.612   6.885  0.00  0.00    +0.031 C 
ATOM     17  C   UNL     1     -35.876  22.760   5.150  0.00  0.00    +0.293 C 
ATOM     18  C   UNL     1     -36.362  22.334   2.767  0.00  0.00    +0.273 C 
ATOM     19  H   UNL     1     -36.936  21.220   4.378  0.00  0.00    +0.169 HD
ENDROOT
BRANCH   3  20
ATOM     20  C   UNL     1     -34.257  25.802   1.387  0.00  0.00    +0.310 C 
BRANCH  20  21
ATOM     21  O   UNL     1     -33.249  25.009   0.743  0.00  0.00    -0.427 OA
BRANCH  21  23
ATOM     22  O   UNL     1     -31.050  25.629   1.082  0.00  0.00    -0.250 OA
ATOM     23  C   UNL     1     -32.090  25.660   0.439  0.00  0.00    +0.319 C 
ATOM     24  C   UNL     1     -32.270  26.437  -0.829  0.00  0.00    +0.121 C 
ENDBRANCH  21  23
ENDBRANCH  20  21
ENDBRANCH   3  20
TORSDOF 3
ENDMDL
