MODEL 1
REMARK VINA RESULT:      -5.9      0.000      0.000
REMARK  Name = 195256
REMARK  8 active torsions:
REMARK  status: ('A' for Active; 'I' for Inactive)
REMARK    1  A    between atoms: C_2  and  O_7
REMARK    2  A    between atoms: C_3  and  C_15
REMARK    3  A    between atoms: C_4  and  O_9
REMARK    4  A    between atoms: C_5  and  O_11
REMARK    5  A    between atoms: C_6  and  O_13
REMARK    6  A    between atoms: C_15  and  N_17
REMARK    7  A    between atoms: C_18  and  C_20
REMARK    8  A    between atoms: C_20  and  N_23
REMARK                            x       y       z     vdW  Elec       q    Type
REMARK                         _______ _______ _______ _____ _____    ______ ____
ROOT
ATOM      1  O   UNL     1     -35.188  23.029   5.500  0.00  0.00    -0.327 OA
ATOM      2  C   UNL     1     -35.730  24.044   3.366  0.00  0.00    +0.169 C 
ATOM      3  C   UNL     1     -34.771  24.019   4.558  0.00  0.00    +0.166 C 
ATOM      4  C   UNL     1     -35.834  22.660   2.726  0.00  0.00    +0.171 C 
ATOM      5  C   UNL     1     -36.103  21.583   3.777  0.00  0.00    +0.196 C 
ATOM      6  C   UNL     1     -35.144  21.711   4.961  0.00  0.00    +0.262 C 
ENDROOT
BRANCH   2   7
ATOM      7  O   UNL     1     -35.255  24.976   2.398  0.00  0.00    -0.379 OA
ATOM      8  H   UNL     1     -35.267  25.869   2.776  0.00  0.00    +0.211 HD
ENDBRANCH   2   7
BRANCH   4   9
ATOM      9  O   UNL     1     -36.912  22.686   1.787  0.00  0.00    -0.379 OA
ATOM     10  H   UNL     1     -37.628  23.240   2.135  0.00  0.00    +0.211 HD
ENDBRANCH   4   9
BRANCH   5  11
ATOM     11  O   UNL     1     -35.921  20.293   3.192  0.00  0.00    -0.378 OA
ATOM     12  H   UNL     1     -36.385  19.628   3.725  0.00  0.00    +0.211 HD
ENDBRANCH   5  11
BRANCH   6  13
ATOM     13  O   UNL     1     -35.548  20.770   5.957  0.00  0.00    -0.358 OA
ATOM     14  H   UNL     1     -34.858  20.701   6.634  0.00  0.00    +0.213 HD
ENDBRANCH   6  13
BRANCH   3  15
ATOM     15  C   UNL     1     -34.739  25.361   5.285  0.00  0.00    +0.122 C 
BRANCH  15  17
ATOM     16  O   UNL     1     -34.871  27.775   3.689  0.00  0.00    -0.273 OA
ATOM     17  N   UNL     1     -33.644  26.165   4.834  0.00  0.00    -0.301 N 
ATOM     18  C   UNL     1     -33.794  27.319   4.065  0.00  0.00    +0.243 C 
ATOM     19  H   UNL     1     -32.731  25.887   5.080  0.00  0.00    +0.150 HD
BRANCH  18  20
ATOM     20  C   UNL     1     -32.466  27.991   3.785  0.00  0.00    +0.186 C 
BRANCH  20  23
ATOM     21  O   UNL     1     -31.367  27.433   6.498  0.00  0.00    -0.269 OA
ATOM     22  O   UNL     1     -32.754  30.958   3.881  0.00  0.00    -0.269 OA
ATOM     23  N   UNL     1     -32.157  28.902   4.846  0.00  0.00    -0.214 N 
ATOM     24  C   UNL     1     -31.647  28.542   6.075  0.00  0.00    +0.256 C 
ATOM     25  C   UNL     1     -32.326  30.268   4.791  0.00  0.00    +0.256 C 
ATOM     26  C   UNL     1     -31.481  29.783   6.847  0.00  0.00    +0.063 C 
ATOM     27  C   UNL     1     -31.884  30.804   6.089  0.00  0.00    +0.063 C 
ENDBRANCH  20  23
ENDBRANCH  18  20
ENDBRANCH  15  17
ENDBRANCH   3  15
TORSDOF 8
ENDMDL
MODEL 2
REMARK VINA RESULT:      -5.9      0.049      1.598
REMARK  Name = 195256
REMARK  8 active torsions:
REMARK  status: ('A' for Active; 'I' for Inactive)
REMARK    1  A    between atoms: C_2  and  O_7
REMARK    2  A    between atoms: C_3  and  C_15
REMARK    3  A    between atoms: C_4  and  O_9
REMARK    4  A    between atoms: C_5  and  O_11
REMARK    5  A    between atoms: C_6  and  O_13
REMARK    6  A    between atoms: C_15  and  N_17
REMARK    7  A    between atoms: C_18  and  C_20
REMARK    8  A    between atoms: C_20  and  N_23
REMARK                            x       y       z     vdW  Elec       q    Type
REMARK                         _______ _______ _______ _____ _____    ______ ____
ROOT
ATOM      1  O   UNL     1     -35.197  23.079   5.470  0.00  0.00    -0.327 OA
ATOM      2  C   UNL     1     -35.745  24.083   3.333  0.00  0.00    +0.169 C 
ATOM      3  C   UNL     1     -34.784  24.068   4.524  0.00  0.00    +0.166 C 
ATOM      4  C   UNL     1     -35.844  22.696   2.698  0.00  0.00    +0.171 C 
ATOM      5  C   UNL     1     -36.107  21.622   3.754  0.00  0.00    +0.196 C 
ATOM      6  C   UNL     1     -35.147  21.759   4.936  0.00  0.00    +0.262 C 
ENDROOT
BRANCH   2   7
ATOM      7  O   UNL     1     -35.275  25.014   2.360  0.00  0.00    -0.379 OA
ATOM      8  H   UNL     1     -35.178  25.888   2.770  0.00  0.00    +0.211 HD
ENDBRANCH   2   7
BRANCH   4   9
ATOM      9  O   UNL     1     -36.922  22.714   1.761  0.00  0.00    -0.379 OA
ATOM     10  H   UNL     1     -37.502  23.468   1.951  0.00  0.00    +0.211 HD
ENDBRANCH   4   9
BRANCH   5  11
ATOM     11  O   UNL     1     -35.919  20.331   3.173  0.00  0.00    -0.378 OA
ATOM     12  H   UNL     1     -35.310  20.400   2.422  0.00  0.00    +0.211 HD
ENDBRANCH   5  11
BRANCH   6  13
ATOM     13  O   UNL     1     -35.546  20.820   5.936  0.00  0.00    -0.358 OA
ATOM     14  H   UNL     1     -36.468  20.560   5.785  0.00  0.00    +0.213 HD
ENDBRANCH   6  13
BRANCH   3  15
ATOM     15  C   UNL     1     -34.758  25.412   5.245  0.00  0.00    +0.122 C 
BRANCH  15  17
ATOM     16  O   UNL     1     -34.868  27.811   3.625  0.00  0.00    -0.273 OA
ATOM     17  N   UNL     1     -33.657  26.213   4.803  0.00  0.00    -0.301 N 
ATOM     18  C   UNL     1     -33.795  27.359   4.022  0.00  0.00    +0.243 C 
ATOM     19  H   UNL     1     -32.748  25.937   5.066  0.00  0.00    +0.150 HD
BRANCH  18  20
ATOM     20  C   UNL     1     -32.464  28.028   3.755  0.00  0.00    +0.186 C 
BRANCH  20  23
ATOM     21  O   UNL     1     -32.759  30.990   3.894  0.00  0.00    -0.269 OA
ATOM     22  O   UNL     1     -31.342  27.435   6.454  0.00  0.00    -0.269 OA
ATOM     23  N   UNL     1     -32.154  28.924   4.829  0.00  0.00    -0.214 N 
ATOM     24  C   UNL     1     -32.329  30.291   4.796  0.00  0.00    +0.256 C 
ATOM     25  C   UNL     1     -31.635  28.548   6.049  0.00  0.00    +0.256 C 
ATOM     26  C   UNL     1     -31.887  30.808   6.100  0.00  0.00    +0.063 C 
ATOM     27  C   UNL     1     -31.476  29.778   6.841  0.00  0.00    +0.063 C 
ENDBRANCH  20  23
ENDBRANCH  18  20
ENDBRANCH  15  17
ENDBRANCH   3  15
TORSDOF 8
ENDMDL
MODEL 3
REMARK VINA RESULT:      -5.7      3.124      7.041
REMARK  Name = 195256
REMARK  8 active torsions:
REMARK  status: ('A' for Active; 'I' for Inactive)
REMARK    1  A    between atoms: C_2  and  O_7
REMARK    2  A    between atoms: C_3  and  C_15
REMARK    3  A    between atoms: C_4  and  O_9
REMARK    4  A    between atoms: C_5  and  O_11
REMARK    5  A    between atoms: C_6  and  O_13
REMARK    6  A    between atoms: C_15  and  N_17
REMARK    7  A    between atoms: C_18  and  C_20
REMARK    8  A    between atoms: C_20  and  N_23
REMARK                            x       y       z     vdW  Elec       q    Type
REMARK                         _______ _______ _______ _____ _____    ______ ____
ROOT
ATOM      1  O   UNL     1     -34.497  24.987   5.067  0.00  0.00    -0.327 OA
ATOM      2  C   UNL     1     -36.676  25.098   4.012  0.00  0.00    +0.169 C 
ATOM      3  C   UNL     1     -35.877  24.657   5.240  0.00  0.00    +0.166 C 
ATOM      4  C   UNL     1     -36.478  26.589   3.742  0.00  0.00    +0.171 C 
ATOM      5  C   UNL     1     -34.995  26.958   3.740  0.00  0.00    +0.196 C 
ATOM      6  C   UNL     1     -34.280  26.391   4.967  0.00  0.00    +0.262 C 
ENDROOT
BRANCH   2   7
ATOM      7  O   UNL     1     -38.061  24.838   4.232  0.00  0.00    -0.379 OA
ATOM      8  H   UNL     1     -38.277  23.947   3.916  0.00  0.00    +0.211 HD
ENDBRANCH   2   7
BRANCH   4   9
ATOM      9  O   UNL     1     -37.042  26.886   2.463  0.00  0.00    -0.379 OA
ATOM     10  H   UNL     1     -37.818  27.458   2.578  0.00  0.00    +0.211 HD
ENDBRANCH   4   9
BRANCH   5  11
ATOM     11  O   UNL     1     -34.860  28.380   3.762  0.00  0.00    -0.378 OA
ATOM     12  H   UNL     1     -34.446  28.678   2.937  0.00  0.00    +0.211 HD
ENDBRANCH   5  11
BRANCH   6  13
ATOM     13  O   UNL     1     -32.884  26.653   4.822  0.00  0.00    -0.358 OA
ATOM     14  H   UNL     1     -32.757  27.406   4.223  0.00  0.00    +0.213 HD
ENDBRANCH   6  13
BRANCH   3  15
ATOM     15  C   UNL     1     -35.966  23.150   5.461  0.00  0.00    +0.122 C 
BRANCH  15  17
ATOM     16  O   UNL     1     -34.855  20.583   4.707  0.00  0.00    -0.273 OA
ATOM     17  N   UNL     1     -36.143  22.457   4.220  0.00  0.00    -0.301 N 
ATOM     18  C   UNL     1     -35.570  21.218   3.935  0.00  0.00    +0.243 C 
ATOM     19  H   UNL     1     -36.701  22.881   3.527  0.00  0.00    +0.150 HD
BRANCH  18  20
ATOM     20  C   UNL     1     -35.976  20.706   2.570  0.00  0.00    +0.186 C 
BRANCH  20  23
ATOM     21  O   UNL     1     -33.793  18.944   1.566  0.00  0.00    -0.269 OA
ATOM     22  O   UNL     1     -35.415  23.225   1.075  0.00  0.00    -0.269 OA
ATOM     23  N   UNL     1     -34.941  20.992   1.623  0.00  0.00    -0.214 N 
ATOM     24  C   UNL     1     -33.969  20.101   1.219  0.00  0.00    +0.256 C 
ATOM     25  C   UNL     1     -34.765  22.198   0.980  0.00  0.00    +0.256 C 
ATOM     26  C   UNL     1     -33.122  20.806   0.245  0.00  0.00    +0.063 C 
ATOM     27  C   UNL     1     -33.593  22.047   0.104  0.00  0.00    +0.063 C 
ENDBRANCH  20  23
ENDBRANCH  18  20
ENDBRANCH  15  17
ENDBRANCH   3  15
TORSDOF 8
ENDMDL
MODEL 4
REMARK VINA RESULT:      -5.7      1.602      2.509
REMARK  Name = 195256
REMARK  8 active torsions:
REMARK  status: ('A' for Active; 'I' for Inactive)
REMARK    1  A    between atoms: C_2  and  O_7
REMARK    2  A    between atoms: C_3  and  C_15
REMARK    3  A    between atoms: C_4  and  O_9
REMARK    4  A    between atoms: C_5  and  O_11
REMARK    5  A    between atoms: C_6  and  O_13
REMARK    6  A    between atoms: C_15  and  N_17
REMARK    7  A    between atoms: C_18  and  C_20
REMARK    8  A    between atoms: C_20  and  N_23
REMARK                            x       y       z     vdW  Elec       q    Type
REMARK                         _______ _______ _______ _____ _____    ______ ____
ROOT
ATOM      1  O   UNL     1     -34.987  24.907   2.421  0.00  0.00    -0.327 OA
ATOM      2  C   UNL     1     -35.684  25.157   4.729  0.00  0.00    +0.169 C 
ATOM      3  C   UNL     1     -35.721  25.745   3.316  0.00  0.00    +0.166 C 
ATOM      4  C   UNL     1     -36.209  23.722   4.734  0.00  0.00    +0.171 C 
ATOM      5  C   UNL     1     -35.539  22.884   3.644  0.00  0.00    +0.196 C 
ATOM      6  C   UNL     1     -35.558  23.607   2.298  0.00  0.00    +0.262 C 
ENDROOT
BRANCH   2   7
ATOM      7  O   UNL     1     -36.487  25.957   5.594  0.00  0.00    -0.379 OA
ATOM      8  H   UNL     1     -35.953  26.257   6.346  0.00  0.00    +0.211 HD
ENDBRANCH   2   7
BRANCH   4   9
ATOM      9  O   UNL     1     -35.926  23.152   6.013  0.00  0.00    -0.379 OA
ATOM     10  H   UNL     1     -36.707  23.234   6.582  0.00  0.00    +0.211 HD
ENDBRANCH   4   9
BRANCH   5  11
ATOM     11  O   UNL     1     -36.241  21.650   3.498  0.00  0.00    -0.378 OA
ATOM     12  H   UNL     1     -35.616  20.912   3.573  0.00  0.00    +0.211 HD
ENDBRANCH   5  11
BRANCH   6  13
ATOM     13  O   UNL     1     -34.794  22.832   1.373  0.00  0.00    -0.358 OA
ATOM     14  H   UNL     1     -34.119  22.328   1.854  0.00  0.00    +0.213 HD
ENDBRANCH   6  13
BRANCH   3  15
ATOM     15  C   UNL     1     -35.093  27.134   3.266  0.00  0.00    +0.122 C 
BRANCH  15  17
ATOM     16  O   UNL     1     -32.262  26.741   3.739  0.00  0.00    -0.273 OA
ATOM     17  N   UNL     1     -34.366  27.415   4.467  0.00  0.00    -0.301 N 
ATOM     18  C   UNL     1     -32.997  27.195   4.614  0.00  0.00    +0.243 C 
ATOM     19  H   UNL     1     -34.862  27.783   5.235  0.00  0.00    +0.150 HD
BRANCH  18  20
ATOM     20  C   UNL     1     -32.494  27.636   5.972  0.00  0.00    +0.186 C 
BRANCH  20  23
ATOM     21  O   UNL     1     -29.543  27.692   6.382  0.00  0.00    -0.269 OA
ATOM     22  O   UNL     1     -33.012  30.456   5.149  0.00  0.00    -0.269 OA
ATOM     23  N   UNL     1     -31.574  28.722   5.813  0.00  0.00    -0.214 N 
ATOM     24  C   UNL     1     -30.214  28.647   6.028  0.00  0.00    +0.256 C 
ATOM     25  C   UNL     1     -31.916  29.999   5.424  0.00  0.00    +0.256 C 
ATOM     26  C   UNL     1     -29.664  29.982   5.748  0.00  0.00    +0.063 C 
ATOM     27  C   UNL     1     -30.670  30.782   5.391  0.00  0.00    +0.063 C 
ENDBRANCH  20  23
ENDBRANCH  18  20
ENDBRANCH  15  17
ENDBRANCH   3  15
TORSDOF 8
ENDMDL
MODEL 5
REMARK VINA RESULT:      -5.6      3.967      6.858
REMARK  Name = 195256
REMARK  8 active torsions:
REMARK  status: ('A' for Active; 'I' for Inactive)
REMARK    1  A    between atoms: C_2  and  O_7
REMARK    2  A    between atoms: C_3  and  C_15
REMARK    3  A    between atoms: C_4  and  O_9
REMARK    4  A    between atoms: C_5  and  O_11
REMARK    5  A    between atoms: C_6  and  O_13
REMARK    6  A    between atoms: C_15  and  N_17
REMARK    7  A    between atoms: C_18  and  C_20
REMARK    8  A    between atoms: C_20  and  N_23
REMARK                            x       y       z     vdW  Elec       q    Type
REMARK                         _______ _______ _______ _____ _____    ______ ____
ROOT
ATOM      1  O   UNL     1     -40.202  24.025   0.793  0.00  0.00    -0.327 OA
ATOM      2  C   UNL     1     -39.659  24.692   3.060  0.00  0.00    +0.169 C 
ATOM      3  C   UNL     1     -39.225  23.894   1.828  0.00  0.00    +0.166 C 
ATOM      4  C   UNL     1     -39.910  26.155   2.698  0.00  0.00    +0.171 C 
ATOM      5  C   UNL     1     -40.816  26.274   1.472  0.00  0.00    +0.196 C 
ATOM      6  C   UNL     1     -40.337  25.368   0.337  0.00  0.00    +0.262 C 
ENDROOT
BRANCH   2   7
ATOM      7  O   UNL     1     -38.638  24.620   4.052  0.00  0.00    -0.379 OA
ATOM      8  H   UNL     1     -38.174  23.771   3.978  0.00  0.00    +0.211 HD
ENDBRANCH   2   7
BRANCH   4   9
ATOM      9  O   UNL     1     -40.539  26.786   3.815  0.00  0.00    -0.379 OA
ATOM     10  H   UNL     1     -41.490  26.871   3.644  0.00  0.00    +0.211 HD
ENDBRANCH   4   9
BRANCH   5  11
ATOM     11  O   UNL     1     -40.803  27.623   1.003  0.00  0.00    -0.378 OA
ATOM     12  H   UNL     1     -40.374  27.658   0.133  0.00  0.00    +0.211 HD
ENDBRANCH   5  11
BRANCH   6  13
ATOM     13  O   UNL     1     -41.306  25.426  -0.710  0.00  0.00    -0.358 OA
ATOM     14  H   UNL     1     -40.992  26.021  -1.408  0.00  0.00    +0.213 HD
ENDBRANCH   6  13
BRANCH   3  15
ATOM     15  C   UNL     1     -39.082  22.407   2.140  0.00  0.00    +0.122 C 
BRANCH  15  17
ATOM     16  O   UNL     1     -36.468  21.735   1.086  0.00  0.00    -0.273 OA
ATOM     17  N   UNL     1     -37.885  22.150   2.883  0.00  0.00    -0.301 N 
ATOM     18  C   UNL     1     -36.661  21.831   2.296  0.00  0.00    +0.243 C 
ATOM     19  H   UNL     1     -37.929  22.200   3.866  0.00  0.00    +0.150 HD
BRANCH  18  20
ATOM     20  C   UNL     1     -35.564  21.667   3.326  0.00  0.00    +0.186 C 
BRANCH  20  23
ATOM     21  O   UNL     1     -34.454  24.201   2.218  0.00  0.00    -0.269 OA
ATOM     22  O   UNL     1     -36.046  22.444   6.165  0.00  0.00    -0.269 OA
ATOM     23  N   UNL     1     -35.329  22.920   3.980  0.00  0.00    -0.214 N 
ATOM     24  C   UNL     1     -34.808  24.044   3.374  0.00  0.00    +0.256 C 
ATOM     25  C   UNL     1     -35.588  23.181   5.307  0.00  0.00    +0.256 C 
ATOM     26  C   UNL     1     -34.740  25.090   4.406  0.00  0.00    +0.063 C 
ATOM     27  C   UNL     1     -35.201  24.580   5.549  0.00  0.00    +0.063 C 
ENDBRANCH  20  23
ENDBRANCH  18  20
ENDBRANCH  15  17
ENDBRANCH   3  15
TORSDOF 8
ENDMDL
MODEL 6
REMARK VINA RESULT:      -5.6      1.622      3.070
REMARK  Name = 195256
REMARK  8 active torsions:
REMARK  status: ('A' for Active; 'I' for Inactive)
REMARK    1  A    between atoms: C_2  and  O_7
REMARK    2  A    between atoms: C_3  and  C_15
REMARK    3  A    between atoms: C_4  and  O_9
REMARK    4  A    between atoms: C_5  and  O_11
REMARK    5  A    between atoms: C_6  and  O_13
REMARK    6  A    between atoms: C_15  and  N_17
REMARK    7  A    between atoms: C_18  and  C_20
REMARK    8  A    between atoms: C_20  and  N_23
REMARK                            x       y       z     vdW  Elec       q    Type
REMARK                         _______ _______ _______ _____ _____    ______ ____
ROOT
ATOM      1  O   UNL     1     -36.371  25.077   1.919  0.00  0.00    -0.327 OA
ATOM      2  C   UNL     1     -35.640  25.834   4.103  0.00  0.00    +0.169 C 
ATOM      3  C   UNL     1     -36.500  26.134   2.873  0.00  0.00    +0.166 C 
ATOM      4  C   UNL     1     -36.008  24.478   4.704  0.00  0.00    +0.171 C 
ATOM      5  C   UNL     1     -36.042  23.388   3.632  0.00  0.00    +0.196 C 
ATOM      6  C   UNL     1     -36.854  23.832   2.416  0.00  0.00    +0.262 C 
ENDROOT
BRANCH   2   7
ATOM      7  O   UNL     1     -35.843  26.853   5.080  0.00  0.00    -0.379 OA
ATOM      8  H   UNL     1     -35.824  26.459   5.966  0.00  0.00    +0.211 HD
ENDBRANCH   2   7
BRANCH   4   9
ATOM      9  O   UNL     1     -35.023  24.147   5.686  0.00  0.00    -0.379 OA
ATOM     10  H   UNL     1     -35.437  24.127   6.563  0.00  0.00    +0.211 HD
ENDBRANCH   4   9
BRANCH   5  11
ATOM     11  O   UNL     1     -36.649  22.213   4.170  0.00  0.00    -0.378 OA
ATOM     12  H   UNL     1     -37.536  22.429   4.499  0.00  0.00    +0.211 HD
ENDBRANCH   5  11
BRANCH   6  13
ATOM     13  O   UNL     1     -36.720  22.828   1.409  0.00  0.00    -0.358 OA
ATOM     14  H   UNL     1     -36.268  22.055   1.782  0.00  0.00    +0.213 HD
ENDBRANCH   6  13
BRANCH   3  15
ATOM     15  C   UNL     1     -36.073  27.428   2.187  0.00  0.00    +0.122 C 
BRANCH  15  17
ATOM     16  O   UNL     1     -34.869  29.814   3.306  0.00  0.00    -0.273 OA
ATOM     17  N   UNL     1     -34.679  27.683   2.392  0.00  0.00    -0.301 N 
ATOM     18  C   UNL     1     -34.180  28.865   2.939  0.00  0.00    +0.243 C 
ATOM     19  H   UNL     1     -34.035  26.985   2.131  0.00  0.00    +0.150 HD
BRANCH  18  20
ATOM     20  C   UNL     1     -32.673  28.829   3.087  0.00  0.00    +0.186 C 
BRANCH  20  23
ATOM     21  O   UNL     1     -31.751  31.321   4.436  0.00  0.00    -0.269 OA
ATOM     22  O   UNL     1     -32.656  26.903   5.364  0.00  0.00    -0.269 OA
ATOM     23  N   UNL     1     -32.321  29.044   4.458  0.00  0.00    -0.214 N 
ATOM     24  C   UNL     1     -31.903  30.245   4.990  0.00  0.00    +0.256 C 
ATOM     25  C   UNL     1     -32.347  28.080   5.443  0.00  0.00    +0.256 C 
ATOM     26  C   UNL     1     -31.652  30.013   6.421  0.00  0.00    +0.063 C 
ATOM     27  C   UNL     1     -31.914  28.733   6.689  0.00  0.00    +0.063 C 
ENDBRANCH  20  23
ENDBRANCH  18  20
ENDBRANCH  15  17
ENDBRANCH   3  15
TORSDOF 8
ENDMDL
MODEL 7
REMARK VINA RESULT:      -5.6      3.552      5.088
REMARK  Name = 195256
REMARK  8 active torsions:
REMARK  status: ('A' for Active; 'I' for Inactive)
REMARK    1  A    between atoms: C_2  and  O_7
REMARK    2  A    between atoms: C_3  and  C_15
REMARK    3  A    between atoms: C_4  and  O_9
REMARK    4  A    between atoms: C_5  and  O_11
REMARK    5  A    between atoms: C_6  and  O_13
REMARK    6  A    between atoms: C_15  and  N_17
REMARK    7  A    between atoms: C_18  and  C_20
REMARK    8  A    between atoms: C_20  and  N_23
REMARK                            x       y       z     vdW  Elec       q    Type
REMARK                         _______ _______ _______ _____ _____    ______ ____
ROOT
ATOM      1  O   UNL     1     -34.770  20.167   2.939  0.00  0.00    -0.327 OA
ATOM      2  C   UNL     1     -37.005  21.043   2.602  0.00  0.00    +0.169 C 
ATOM      3  C   UNL     1     -35.596  21.317   3.133  0.00  0.00    +0.166 C 
ATOM      4  C   UNL     1     -36.959  20.617   1.135  0.00  0.00    +0.171 C 
ATOM      5  C   UNL     1     -35.934  19.505   0.914  0.00  0.00    +0.196 C 
ATOM      6  C   UNL     1     -34.593  19.848   1.562  0.00  0.00    +0.262 C 
ENDROOT
BRANCH   2   7
ATOM      7  O   UNL     1     -37.794  22.224   2.726  0.00  0.00    -0.379 OA
ATOM      8  H   UNL     1     -37.736  22.558   3.635  0.00  0.00    +0.211 HD
ENDBRANCH   2   7
BRANCH   4   9
ATOM      9  O   UNL     1     -38.257  20.146   0.770  0.00  0.00    -0.379 OA
ATOM     10  H   UNL     1     -38.743  20.857   0.322  0.00  0.00    +0.211 HD
ENDBRANCH   4   9
BRANCH   5  11
ATOM     11  O   UNL     1     -35.721  19.328  -0.487  0.00  0.00    -0.378 OA
ATOM     12  H   UNL     1     -35.208  18.519  -0.636  0.00  0.00    +0.211 HD
ENDBRANCH   5  11
BRANCH   6  13
ATOM     13  O   UNL     1     -33.741  18.709   1.438  0.00  0.00    -0.358 OA
ATOM     14  H   UNL     1     -33.484  18.400   2.321  0.00  0.00    +0.213 HD
ENDBRANCH   6  13
BRANCH   3  15
ATOM     15  C   UNL     1     -35.607  21.630   4.627  0.00  0.00    +0.122 C 
BRANCH  15  17
ATOM     16  O   UNL     1     -34.105  24.102   4.787  0.00  0.00    -0.273 OA
ATOM     17  N   UNL     1     -36.120  22.943   4.874  0.00  0.00    -0.301 N 
ATOM     18  C   UNL     1     -35.325  24.087   4.936  0.00  0.00    +0.243 C 
ATOM     19  H   UNL     1     -37.090  23.045   5.009  0.00  0.00    +0.150 HD
BRANCH  18  20
ATOM     20  C   UNL     1     -36.148  25.339   5.156  0.00  0.00    +0.186 C 
BRANCH  20  23
ATOM     21  O   UNL     1     -34.870  27.236   3.246  0.00  0.00    -0.269 OA
ATOM     22  O   UNL     1     -38.701  24.729   3.739  0.00  0.00    -0.269 OA
ATOM     23  N   UNL     1     -36.629  25.823   3.897  0.00  0.00    -0.214 N 
ATOM     24  C   UNL     1     -35.957  26.707   3.079  0.00  0.00    +0.256 C 
ATOM     25  C   UNL     1     -37.833  25.478   3.322  0.00  0.00    +0.256 C 
ATOM     26  C   UNL     1     -36.807  26.927   1.900  0.00  0.00    +0.063 C 
ATOM     27  C   UNL     1     -37.917  26.201   2.044  0.00  0.00    +0.063 C 
ENDBRANCH  20  23
ENDBRANCH  18  20
ENDBRANCH  15  17
ENDBRANCH   3  15
TORSDOF 8
ENDMDL
MODEL 8
REMARK VINA RESULT:      -5.5      1.817      7.048
REMARK  Name = 195256
REMARK  8 active torsions:
REMARK  status: ('A' for Active; 'I' for Inactive)
REMARK    1  A    between atoms: C_2  and  O_7
REMARK    2  A    between atoms: C_3  and  C_15
REMARK    3  A    between atoms: C_4  and  O_9
REMARK    4  A    between atoms: C_5  and  O_11
REMARK    5  A    between atoms: C_6  and  O_13
REMARK    6  A    between atoms: C_15  and  N_17
REMARK    7  A    between atoms: C_18  and  C_20
REMARK    8  A    between atoms: C_20  and  N_23
REMARK                            x       y       z     vdW  Elec       q    Type
REMARK                         _______ _______ _______ _____ _____    ______ ____
ROOT
ATOM      1  O   UNL     1     -32.778  26.824   5.133  0.00  0.00    -0.327 OA
ATOM      2  C   UNL     1     -31.931  28.594   3.710  0.00  0.00    +0.169 C 
ATOM      3  C   UNL     1     -33.096  27.649   4.011  0.00  0.00    +0.166 C 
ATOM      4  C   UNL     1     -31.574  29.425   4.942  0.00  0.00    +0.171 C 
ATOM      5  C   UNL     1     -31.414  28.539   6.178  0.00  0.00    +0.196 C 
ATOM      6  C   UNL     1     -32.592  27.577   6.328  0.00  0.00    +0.262 C 
ENDROOT
BRANCH   2   7
ATOM      7  O   UNL     1     -32.295  29.467   2.643  0.00  0.00    -0.379 OA
ATOM      8  H   UNL     1     -31.501  29.909   2.302  0.00  0.00    +0.211 HD
ENDBRANCH   2   7
BRANCH   4   9
ATOM      9  O   UNL     1     -30.343  30.100   4.680  0.00  0.00    -0.379 OA
ATOM     10  H   UNL     1     -29.643  29.721   5.234  0.00  0.00    +0.211 HD
ENDBRANCH   4   9
BRANCH   5  11
ATOM     11  O   UNL     1     -31.357  29.360   7.345  0.00  0.00    -0.378 OA
ATOM     12  H   UNL     1     -31.609  28.837   8.122  0.00  0.00    +0.211 HD
ENDBRANCH   5  11
BRANCH   6  13
ATOM     13  O   UNL     1     -32.302  26.694   7.413  0.00  0.00    -0.358 OA
ATOM     14  H   UNL     1     -31.538  26.141   7.183  0.00  0.00    +0.213 HD
ENDBRANCH   6  13
BRANCH   3  15
ATOM     15  C   UNL     1     -33.394  26.728   2.831  0.00  0.00    +0.122 C 
BRANCH  15  17
ATOM     16  O   UNL     1     -34.047  24.182   1.612  0.00  0.00    -0.273 OA
ATOM     17  N   UNL     1     -34.537  25.906   3.096  0.00  0.00    -0.301 N 
ATOM     18  C   UNL     1     -34.778  24.687   2.462  0.00  0.00    +0.243 C 
ATOM     19  H   UNL     1     -35.190  26.219   3.763  0.00  0.00    +0.150 HD
BRANCH  18  20
ATOM     20  C   UNL     1     -36.031  24.016   2.982  0.00  0.00    +0.186 C 
BRANCH  20  23
ATOM     21  O   UNL     1     -35.725  24.911   5.807  0.00  0.00    -0.269 OA
ATOM     22  O   UNL     1     -35.493  21.094   3.244  0.00  0.00    -0.269 OA
ATOM     23  N   UNL     1     -35.715  23.249   4.150  0.00  0.00    -0.214 N 
ATOM     24  C   UNL     1     -35.596  23.761   5.424  0.00  0.00    +0.256 C 
ATOM     25  C   UNL     1     -35.482  21.891   4.167  0.00  0.00    +0.256 C 
ATOM     26  C   UNL     1     -35.266  22.631   6.308  0.00  0.00    +0.063 C 
ATOM     27  C   UNL     1     -35.198  21.526   5.564  0.00  0.00    +0.063 C 
ENDBRANCH  20  23
ENDBRANCH  18  20
ENDBRANCH  15  17
ENDBRANCH   3  15
TORSDOF 8
ENDMDL
MODEL 9
REMARK VINA RESULT:      -5.5      3.741      7.682
REMARK  Name = 195256
REMARK  8 active torsions:
REMARK  status: ('A' for Active; 'I' for Inactive)
REMARK    1  A    between atoms: C_2  and  O_7
REMARK    2  A    between atoms: C_3  and  C_15
REMARK    3  A    between atoms: C_4  and  O_9
REMARK    4  A    between atoms: C_5  and  O_11
REMARK    5  A    between atoms: C_6  and  O_13
REMARK    6  A    between atoms: C_15  and  N_17
REMARK    7  A    between atoms: C_18  and  C_20
REMARK    8  A    between atoms: C_20  and  N_23
REMARK                            x       y       z     vdW  Elec       q    Type
REMARK                         _______ _______ _______ _____ _____    ______ ____
ROOT
ATOM      1  O   UNL     1     -35.234  24.546   2.286  0.00  0.00    -0.327 OA
ATOM      2  C   UNL     1     -36.077  24.393   4.553  0.00  0.00    +0.169 C 
ATOM      3  C   UNL     1     -35.183  23.765   3.481  0.00  0.00    +0.166 C 
ATOM      4  C   UNL     1     -35.680  25.847   4.807  0.00  0.00    +0.171 C 
ATOM      5  C   UNL     1     -35.562  26.625   3.496  0.00  0.00    +0.196 C 
ATOM      6  C   UNL     1     -34.722  25.863   2.471  0.00  0.00    +0.262 C 
ENDROOT
BRANCH   2   7
ATOM      7  O   UNL     1     -35.951  23.652   5.765  0.00  0.00    -0.379 OA
ATOM      8  H   UNL     1     -36.347  24.155   6.494  0.00  0.00    +0.211 HD
ENDBRANCH   2   7
BRANCH   4   9
ATOM      9  O   UNL     1     -36.687  26.444   5.625  0.00  0.00    -0.379 OA
ATOM     10  H   UNL     1     -36.435  27.358   5.832  0.00  0.00    +0.211 HD
ENDBRANCH   4   9
BRANCH   5  11
ATOM     11  O   UNL     1     -34.931  27.881   3.746  0.00  0.00    -0.378 OA
ATOM     12  H   UNL     1     -33.975  27.795   3.609  0.00  0.00    +0.211 HD
ENDBRANCH   5  11
BRANCH   6  13
ATOM     13  O   UNL     1     -34.779  26.580   1.237  0.00  0.00    -0.358 OA
ATOM     14  H   UNL     1     -34.793  27.533   1.418  0.00  0.00    +0.213 HD
ENDBRANCH   6  13
BRANCH   3  15
ATOM     15  C   UNL     1     -35.634  22.351   3.127  0.00  0.00    +0.122 C 
BRANCH  15  17
ATOM     16  O   UNL     1     -37.366  22.179   0.811  0.00  0.00    -0.273 OA
ATOM     17  N   UNL     1     -37.062  22.254   3.116  0.00  0.00    -0.301 N 
ATOM     18  C   UNL     1     -37.825  22.175   1.952  0.00  0.00    +0.243 C 
ATOM     19  H   UNL     1     -37.533  22.243   3.981  0.00  0.00    +0.150 HD
BRANCH  18  20
ATOM     20  C   UNL     1     -39.302  22.025   2.250  0.00  0.00    +0.186 C 
BRANCH  20  23
ATOM     21  O   UNL     1     -39.246  24.599   3.750  0.00  0.00    -0.269 OA
ATOM     22  O   UNL     1     -41.144  22.708   0.006  0.00  0.00    -0.269 OA
ATOM     23  N   UNL     1     -39.975  23.257   1.967  0.00  0.00    -0.214 N 
ATOM     24  C   UNL     1     -39.884  24.403   2.729  0.00  0.00    +0.256 C 
ATOM     25  C   UNL     1     -40.813  23.474   0.894  0.00  0.00    +0.256 C 
ATOM     26  C   UNL     1     -40.728  25.416   2.077  0.00  0.00    +0.063 C 
ATOM     27  C   UNL     1     -41.278  24.867   0.993  0.00  0.00    +0.063 C 
ENDBRANCH  20  23
ENDBRANCH  18  20
ENDBRANCH  15  17
ENDBRANCH   3  15
TORSDOF 8
ENDMDL
