MODEL 1
REMARK VINA RESULT:      -5.8      0.000      0.000
REMARK  Name = 21119846
REMARK  14 active torsions:
REMARK  status: ('A' for Active; 'I' for Inactive)
REMARK    1  A    between atoms: CA_1  and  N_3
REMARK    2  A    between atoms: CA_1  and  C_19
REMARK    3  A    between atoms: CA_1  and  CB_26
REMARK    4  A    between atoms: C_4  and  C_6
REMARK    5  A    between atoms: C_6  and  C_7
REMARK    6  A    between atoms: C_7  and  CA_8
REMARK    7  A    between atoms: CA_8  and  N_9
REMARK    8  A    between atoms: CA_8  and  C_14
REMARK    9  A    between atoms: C_14  and  O_15
REMARK   10  A    between atoms: N_18  and  CA_21
REMARK   11  A    between atoms: CA_21  and  C_23
REMARK   12  A    between atoms: C_23  and  O_24
REMARK   13  A    between atoms: CB_26  and  SG_27
REMARK   14  A    between atoms: SG_27  and  C_31
REMARK                            x       y       z     vdW  Elec       q    Type
REMARK                         _______ _______ _______ _____ _____    ______ ____
ROOT
ATOM      1  CA  UNL     1     -35.067  27.324   3.222  0.00  0.00    +0.160 C 
ENDROOT
BRANCH   1   3
ATOM      2  O   UNL     1     -36.050  26.297   5.735  0.00  0.00    -0.275 OA
ATOM      3  N   UNL     1     -34.609  26.143   3.919  0.00  0.00    -0.298 N 
ATOM      4  C   UNL     1     -35.147  25.728   5.129  0.00  0.00    +0.223 C 
ATOM      5  H   UNL     1     -33.884  25.611   3.518  0.00  0.00    +0.150 HD
BRANCH   4   6
ATOM      6  C   UNL     1     -34.470  24.465   5.635  0.00  0.00    +0.083 C 
BRANCH   6   7
ATOM      7  C   UNL     1     -35.414  23.260   5.643  0.00  0.00    -0.001 C 
BRANCH   7   8
ATOM      8  CA  UNL     1     -35.641  22.673   4.246  0.00  0.00    +0.036 C 
BRANCH   8   9
ATOM      9  N   UNL     1     -37.043  22.851   3.861  0.00  0.00    +0.389 N 
ATOM     10  H1  UNL     1     -37.107  22.951   2.849  0.00  0.00    -0.088 HD
ATOM     11  H2  UNL     1     -37.414  23.689   4.310  0.00  0.00    -0.088 HD
ATOM     12  H3  UNL     1     -37.583  22.039   4.159  0.00  0.00    -0.088 HD
ENDBRANCH   8   9
BRANCH   8  14
ATOM     13  OXT UNL     1     -35.325  20.488   3.215  0.00  0.00    -0.253 OA
ATOM     14  C   UNL     1     -35.369  21.180   4.224  0.00  0.00    +0.293 C 
BRANCH  14  15
ATOM     15  O   UNL     1     -35.203  20.668   5.472  0.00  0.00    -0.482 OA
ATOM     16  H   UNL     1     -34.522  20.997   6.026  0.00  0.00    +0.295 HD
ENDBRANCH  14  15
ENDBRANCH   8  14
ENDBRANCH   7   8
ENDBRANCH   6   7
ENDBRANCH   4   6
ENDBRANCH   1   3
BRANCH   1  19
ATOM     17  O   UNL     1     -36.035  26.973   1.026  0.00  0.00    -0.273 OA
ATOM     18  N   UNL     1     -37.332  26.534   2.898  0.00  0.00    -0.294 N 
ATOM     19  C   ACE A   1     -36.171  26.924   2.246  0.00  0.00    +0.242 C 
ATOM     20  H   UNL     1     -37.342  26.530   3.883  0.00  0.00    +0.150 HD
BRANCH  18  21
ATOM     21  CA  UNL     1     -38.526  26.134   2.190  0.00  0.00    +0.200 C 
BRANCH  21  23
ATOM     22  OXT UNL     1     -39.682  24.456   3.471  0.00  0.00    -0.248 OA
ATOM     23  C   UNL     1     -39.608  25.623   3.106  0.00  0.00    +0.334 C 
BRANCH  23  24
ATOM     24  O   UNL     1     -40.492  26.575   3.486  0.00  0.00    -0.479 OA
ATOM     25  H   UNL     1     -40.197  27.449   3.650  0.00  0.00    +0.295 HD
ENDBRANCH  23  24
ENDBRANCH  21  23
ENDBRANCH  18  21
ENDBRANCH   1  19
BRANCH   1  26
ATOM     26  CB  UNL     1     -33.919  28.092   2.562  0.00  0.00    +0.092 C 
BRANCH  26  27
ATOM     27  SG  UNL     1     -32.269  27.607   3.164  0.00  0.00    -0.099 S 
BRANCH  27  31
ATOM     28 CL   UNL     1     -32.419  27.709   6.090  0.00  0.00    -0.074 Cl
ATOM     29 CL   UNL     1     -31.970  30.889   6.034  0.00  0.00    -0.068 Cl
ATOM     30 CL   UNL     1     -31.867  30.831   3.112  0.00  0.00    -0.068 Cl
ATOM     31  C   UNL     1     -32.202  28.590   4.600  0.00  0.00    +0.104 C 
ATOM     32  C   UNL     1     -32.034  29.926   4.587  0.00  0.00    +0.131 C 
ENDBRANCH  27  31
ENDBRANCH  26  27
ENDBRANCH   1  26
TORSDOF 14
ENDMDL
MODEL 2
REMARK VINA RESULT:      -5.4      4.437      7.471
REMARK  Name = 21119846
REMARK  14 active torsions:
REMARK  status: ('A' for Active; 'I' for Inactive)
REMARK    1  A    between atoms: CA_1  and  N_3
REMARK    2  A    between atoms: CA_1  and  C_19
REMARK    3  A    between atoms: CA_1  and  CB_26
REMARK    4  A    between atoms: C_4  and  C_6
REMARK    5  A    between atoms: C_6  and  C_7
REMARK    6  A    between atoms: C_7  and  CA_8
REMARK    7  A    between atoms: CA_8  and  N_9
REMARK    8  A    between atoms: CA_8  and  C_14
REMARK    9  A    between atoms: C_14  and  O_15
REMARK   10  A    between atoms: N_18  and  CA_21
REMARK   11  A    between atoms: CA_21  and  C_23
REMARK   12  A    between atoms: C_23  and  O_24
REMARK   13  A    between atoms: CB_26  and  SG_27
REMARK   14  A    between atoms: SG_27  and  C_31
REMARK                            x       y       z     vdW  Elec       q    Type
REMARK                         _______ _______ _______ _____ _____    ______ ____
ROOT
ATOM      1  CA  UNL     1     -36.225  20.917   2.641  0.00  0.00    +0.160 C 
ENDROOT
BRANCH   1   3
ATOM      2  O   UNL     1     -35.025  20.654   5.253  0.00  0.00    -0.275 OA
ATOM      3  N   UNL     1     -36.080  21.951   3.640  0.00  0.00    -0.298 N 
ATOM      4  C   UNL     1     -35.486  21.727   4.874  0.00  0.00    +0.223 C 
ATOM      5  H   UNL     1     -36.417  22.853   3.437  0.00  0.00    +0.150 HD
BRANCH   4   6
ATOM      6  C   UNL     1     -35.476  22.985   5.726  0.00  0.00    +0.083 C 
BRANCH   6   7
ATOM      7  C   UNL     1     -35.707  24.252   4.898  0.00  0.00    -0.001 C 
BRANCH   7   8
ATOM      8  CA  UNL     1     -35.449  25.536   5.692  0.00  0.00    +0.036 C 
BRANCH   8   9
ATOM      9  N   UNL     1     -36.349  26.592   5.222  0.00  0.00    +0.389 N 
ATOM     10  H1  UNL     1     -35.817  27.279   4.688  0.00  0.00    -0.088 HD
ATOM     11  H2  UNL     1     -36.785  27.048   6.024  0.00  0.00    -0.088 HD
ATOM     12  H3  UNL     1     -37.071  26.185   4.629  0.00  0.00    -0.088 HD
ENDBRANCH   8   9
BRANCH   8  14
ATOM     13  OXT UNL     1     -33.511  26.955   6.106  0.00  0.00    -0.253 OA
ATOM     14  C   UNL     1     -34.034  26.043   5.479  0.00  0.00    +0.293 C 
BRANCH  14  15
ATOM     15  O   UNL     1     -33.397  25.384   4.476  0.00  0.00    -0.482 OA
ATOM     16  H   UNL     1     -33.894  24.936   3.820  0.00  0.00    +0.295 HD
ENDBRANCH  14  15
ENDBRANCH   8  14
ENDBRANCH   7   8
ENDBRANCH   6   7
ENDBRANCH   4   6
ENDBRANCH   1   3
BRANCH   1  19
ATOM     17  O   UNL     1     -34.441  21.769   1.235  0.00  0.00    -0.273 OA
ATOM     18  N   UNL     1     -34.397  19.535   1.861  0.00  0.00    -0.294 N 
ATOM     19  C   ACE A   1     -34.929  20.817   1.841  0.00  0.00    +0.242 C 
ATOM     20  H   UNL     1     -34.864  18.839   2.376  0.00  0.00    +0.150 HD
BRANCH  18  21
ATOM     21  CA  UNL     1     -33.186  19.184   1.157  0.00  0.00    +0.200 C 
BRANCH  21  23
ATOM     22  OXT UNL     1     -32.028  17.082   0.965  0.00  0.00    -0.248 OA
ATOM     23  C   UNL     1     -33.078  17.707   0.877  0.00  0.00    +0.334 C 
BRANCH  23  24
ATOM     24  O   UNL     1     -34.252  17.136   0.518  0.00  0.00    -0.479 OA
ATOM     25  H   UNL     1     -34.413  16.923  -0.380  0.00  0.00    +0.295 HD
ENDBRANCH  23  24
ENDBRANCH  21  23
ENDBRANCH  18  21
ENDBRANCH   1  19
BRANCH   1  26
ATOM     26  CB  UNL     1     -37.465  21.122   1.767  0.00  0.00    +0.092 C 
BRANCH  26  27
ATOM     27  SG  UNL     1     -38.470  22.565   2.245  0.00  0.00    -0.099 S 
BRANCH  27  31
ATOM     28 CL   UNL     1     -38.999  22.508  -0.637  0.00  0.00    -0.074 Cl
ATOM     29 CL   UNL     1     -37.982  25.542  -0.917  0.00  0.00    -0.068 Cl
ATOM     30 CL   UNL     1     -37.394  25.617   1.947  0.00  0.00    -0.068 Cl
ATOM     31  C   UNL     1     -38.442  23.430   0.735  0.00  0.00    +0.104 C 
ATOM     32  C   UNL     1     -38.000  24.695   0.603  0.00  0.00    +0.131 C 
ENDBRANCH  27  31
ENDBRANCH  26  27
ENDBRANCH   1  26
TORSDOF 14
ENDMDL
MODEL 3
REMARK VINA RESULT:      -5.4      3.527      5.929
REMARK  Name = 21119846
REMARK  14 active torsions:
REMARK  status: ('A' for Active; 'I' for Inactive)
REMARK    1  A    between atoms: CA_1  and  N_3
REMARK    2  A    between atoms: CA_1  and  C_19
REMARK    3  A    between atoms: CA_1  and  CB_26
REMARK    4  A    between atoms: C_4  and  C_6
REMARK    5  A    between atoms: C_6  and  C_7
REMARK    6  A    between atoms: C_7  and  CA_8
REMARK    7  A    between atoms: CA_8  and  N_9
REMARK    8  A    between atoms: CA_8  and  C_14
REMARK    9  A    between atoms: C_14  and  O_15
REMARK   10  A    between atoms: N_18  and  CA_21
REMARK   11  A    between atoms: CA_21  and  C_23
REMARK   12  A    between atoms: C_23  and  O_24
REMARK   13  A    between atoms: CB_26  and  SG_27
REMARK   14  A    between atoms: SG_27  and  C_31
REMARK                            x       y       z     vdW  Elec       q    Type
REMARK                         _______ _______ _______ _____ _____    ______ ____
ROOT
ATOM      1  CA  UNL     1     -33.037  27.671   4.159  0.00  0.00    +0.160 C 
ENDROOT
BRANCH   1   3
ATOM      2  O   UNL     1     -33.219  24.814   4.528  0.00  0.00    -0.275 OA
ATOM      3  N   UNL     1     -34.154  26.933   4.703  0.00  0.00    -0.298 N 
ATOM      4  C   UNL     1     -34.148  25.553   4.842  0.00  0.00    +0.223 C 
ATOM      5  H   UNL     1     -34.954  27.431   4.987  0.00  0.00    +0.150 HD
BRANCH   4   6
ATOM      6  C   UNL     1     -35.454  25.045   5.431  0.00  0.00    +0.083 C 
BRANCH   6   7
ATOM      7  C   UNL     1     -35.474  23.522   5.580  0.00  0.00    -0.001 C 
BRANCH   7   8
ATOM      8  CA  UNL     1     -35.700  22.797   4.250  0.00  0.00    +0.036 C 
BRANCH   8   9
ATOM      9  N   UNL     1     -37.110  22.902   3.868  0.00  0.00    +0.389 N 
ATOM     10  H1  UNL     1     -37.533  23.698   4.345  0.00  0.00    -0.088 HD
ATOM     11  H2  UNL     1     -37.599  22.047   4.135  0.00  0.00    -0.088 HD
ATOM     12  H3  UNL     1     -37.181  23.031   2.860  0.00  0.00    -0.088 HD
ENDBRANCH   8   9
BRANCH   8  14
ATOM     13  OXT UNL     1     -35.254  20.547   3.426  0.00  0.00    -0.253 OA
ATOM     14  C   UNL     1     -35.390  21.315   4.370  0.00  0.00    +0.293 C 
BRANCH  14  15
ATOM     15  O   UNL     1     -35.303  20.910   5.663  0.00  0.00    -0.482 OA
ATOM     16  H   UNL     1     -35.951  20.332   6.018  0.00  0.00    +0.295 HD
ENDBRANCH  14  15
ENDBRANCH   8  14
ENDBRANCH   7   8
ENDBRANCH   6   7
ENDBRANCH   4   6
ENDBRANCH   1   3
BRANCH   1  19
ATOM     17  O   UNL     1     -32.478  28.059   6.488  0.00  0.00    -0.273 OA
ATOM     18  N   UNL     1     -30.939  28.657   4.858  0.00  0.00    -0.294 N 
ATOM     19  C   ACE A   1     -32.143  28.132   5.308  0.00  0.00    +0.242 C 
ATOM     20  H   UNL     1     -30.764  28.673   3.889  0.00  0.00    +0.150 HD
BRANCH  18  21
ATOM     21  CA  UNL     1     -29.936  29.183   5.753  0.00  0.00    +0.200 C 
BRANCH  21  23
ATOM     22  OXT UNL     1     -27.766  28.142   5.786  0.00  0.00    -0.248 OA
ATOM     23  C   UNL     1     -28.927  28.147   6.177  0.00  0.00    +0.334 C 
BRANCH  23  24
ATOM     24  O   UNL     1     -29.427  27.221   7.029  0.00  0.00    -0.479 OA
ATOM     25  H   UNL     1     -30.311  27.291   7.331  0.00  0.00    +0.295 HD
ENDBRANCH  23  24
ENDBRANCH  21  23
ENDBRANCH  18  21
ENDBRANCH   1  19
BRANCH   1  26
ATOM     26  CB  UNL     1     -33.484  28.811   3.241  0.00  0.00    +0.092 C 
BRANCH  26  27
ATOM     27  SG  UNL     1     -33.708  28.309   1.503  0.00  0.00    -0.099 S 
BRANCH  27  31
ATOM     28 CL   UNL     1     -36.309  29.659   1.486  0.00  0.00    -0.074 Cl
ATOM     29 CL   UNL     1     -37.818  26.823   1.491  0.00  0.00    -0.068 Cl
ATOM     30 CL   UNL     1     -35.240  25.444   1.561  0.00  0.00    -0.068 Cl
ATOM     31  C   UNL     1     -35.441  28.146   1.487  0.00  0.00    +0.104 C 
ATOM     32  C   UNL     1     -36.084  26.963   1.509  0.00  0.00    +0.131 C 
ENDBRANCH  27  31
ENDBRANCH  26  27
ENDBRANCH   1  26
TORSDOF 14
ENDMDL
MODEL 4
REMARK VINA RESULT:      -5.4      4.573      6.767
REMARK  Name = 21119846
REMARK  14 active torsions:
REMARK  status: ('A' for Active; 'I' for Inactive)
REMARK    1  A    between atoms: CA_1  and  N_3
REMARK    2  A    between atoms: CA_1  and  C_19
REMARK    3  A    between atoms: CA_1  and  CB_26
REMARK    4  A    between atoms: C_4  and  C_6
REMARK    5  A    between atoms: C_6  and  C_7
REMARK    6  A    between atoms: C_7  and  CA_8
REMARK    7  A    between atoms: CA_8  and  N_9
REMARK    8  A    between atoms: CA_8  and  C_14
REMARK    9  A    between atoms: C_14  and  O_15
REMARK   10  A    between atoms: N_18  and  CA_21
REMARK   11  A    between atoms: CA_21  and  C_23
REMARK   12  A    between atoms: C_23  and  O_24
REMARK   13  A    between atoms: CB_26  and  SG_27
REMARK   14  A    between atoms: SG_27  and  C_31
REMARK                            x       y       z     vdW  Elec       q    Type
REMARK                         _______ _______ _______ _____ _____    ______ ____
ROOT
ATOM      1  CA  UNL     1     -37.719  22.312   2.160  0.00  0.00    +0.160 C 
ENDROOT
BRANCH   1   3
ATOM      2  O   UNL     1     -36.195  24.641   2.924  0.00  0.00    -0.275 OA
ATOM      3  N   UNL     1     -37.161  22.598   3.461  0.00  0.00    -0.298 N 
ATOM      4  C   UNL     1     -36.438  23.751   3.734  0.00  0.00    +0.223 C 
ATOM      5  H   UNL     1     -37.297  21.946   4.187  0.00  0.00    +0.150 HD
BRANCH   4   6
ATOM      6  C   UNL     1     -35.964  23.785   5.177  0.00  0.00    +0.083 C 
BRANCH   6   7
ATOM      7  C   UNL     1     -34.616  24.493   5.332  0.00  0.00    -0.001 C 
BRANCH   7   8
ATOM      8  CA  UNL     1     -34.759  25.986   5.642  0.00  0.00    +0.036 C 
BRANCH   8   9
ATOM      9  N   UNL     1     -36.180  26.344   5.679  0.00  0.00    +0.389 N 
ATOM     10  H1  UNL     1     -36.707  25.703   5.087  0.00  0.00    -0.088 HD
ATOM     11  H2  UNL     1     -36.298  27.298   5.336  0.00  0.00    -0.088 HD
ATOM     12  H3  UNL     1     -36.521  26.284   6.637  0.00  0.00    -0.088 HD
ENDBRANCH   8   9
BRANCH   8  14
ATOM     13  OXT UNL     1     -32.919  26.939   4.360  0.00  0.00    -0.253 OA
ATOM     14  C   UNL     1     -34.123  26.839   4.560  0.00  0.00    +0.293 C 
BRANCH  14  15
ATOM     15  O   UNL     1     -35.046  27.520   3.832  0.00  0.00    -0.482 OA
ATOM     16  H   UNL     1     -35.923  27.194   3.764  0.00  0.00    +0.295 HD
ENDBRANCH  14  15
ENDBRANCH   8  14
ENDBRANCH   7   8
ENDBRANCH   6   7
ENDBRANCH   4   6
ENDBRANCH   1   3
BRANCH   1  19
ATOM     17  O   UNL     1     -40.123  21.988   2.132  0.00  0.00    -0.273 OA
ATOM     18  N   UNL     1     -39.290  24.153   2.093  0.00  0.00    -0.294 N 
ATOM     19  C   ACE A   1     -39.175  22.770   2.136  0.00  0.00    +0.242 C 
ATOM     20  H   UNL     1     -38.468  24.695   2.098  0.00  0.00    +0.150 HD
BRANCH  18  21
ATOM     21  CA  UNL     1     -40.566  24.827   2.038  0.00  0.00    +0.200 C 
BRANCH  21  23
ATOM     22  OXT UNL     1     -40.836  27.164   1.528  0.00  0.00    -0.248 OA
ATOM     23  C   UNL     1     -40.461  26.304   2.316  0.00  0.00    +0.334 C 
BRANCH  23  24
ATOM     24  O   UNL     1     -39.912  26.592   3.520  0.00  0.00    -0.479 OA
ATOM     25  H   UNL     1     -40.027  26.004   4.240  0.00  0.00    +0.295 HD
ENDBRANCH  23  24
ENDBRANCH  21  23
ENDBRANCH  18  21
ENDBRANCH   1  19
BRANCH   1  26
ATOM     26  CB  UNL     1     -37.536  20.847   1.756  0.00  0.00    +0.092 C 
BRANCH  26  27
ATOM     27  SG  UNL     1     -36.424  20.612   0.331  0.00  0.00    -0.099 S 
BRANCH  27  31
ATOM     28 CL   UNL     1     -34.844  20.415   2.792  0.00  0.00    -0.074 Cl
ATOM     29 CL   UNL     1     -32.917  18.242   1.419  0.00  0.00    -0.068 Cl
ATOM     30 CL   UNL     1     -34.441  18.452  -1.069  0.00  0.00    -0.068 Cl
ATOM     31  C   UNL     1     -35.080  19.870   1.152  0.00  0.00    +0.104 C 
ATOM     32  C   UNL     1     -34.255  18.973   0.580  0.00  0.00    +0.131 C 
ENDBRANCH  27  31
ENDBRANCH  26  27
ENDBRANCH   1  26
TORSDOF 14
ENDMDL
MODEL 5
REMARK VINA RESULT:      -5.4      2.322      3.233
REMARK  Name = 21119846
REMARK  14 active torsions:
REMARK  status: ('A' for Active; 'I' for Inactive)
REMARK    1  A    between atoms: CA_1  and  N_3
REMARK    2  A    between atoms: CA_1  and  C_19
REMARK    3  A    between atoms: CA_1  and  CB_26
REMARK    4  A    between atoms: C_4  and  C_6
REMARK    5  A    between atoms: C_6  and  C_7
REMARK    6  A    between atoms: C_7  and  CA_8
REMARK    7  A    between atoms: CA_8  and  N_9
REMARK    8  A    between atoms: CA_8  and  C_14
REMARK    9  A    between atoms: C_14  and  O_15
REMARK   10  A    between atoms: N_18  and  CA_21
REMARK   11  A    between atoms: CA_21  and  C_23
REMARK   12  A    between atoms: C_23  and  O_24
REMARK   13  A    between atoms: CB_26  and  SG_27
REMARK   14  A    between atoms: SG_27  and  C_31
REMARK                            x       y       z     vdW  Elec       q    Type
REMARK                         _______ _______ _______ _____ _____    ______ ____
ROOT
ATOM      1  CA  UNL     1     -36.545  24.760   4.740  0.00  0.00    +0.160 C 
ENDROOT
BRANCH   1   3
ATOM      2  O   UNL     1     -35.952  22.461   6.382  0.00  0.00    -0.275 OA
ATOM      3  N   UNL     1     -35.990  23.500   4.304  0.00  0.00    -0.298 N 
ATOM      4  C   UNL     1     -35.738  22.447   5.173  0.00  0.00    +0.223 C 
ATOM      5  H   UNL     1     -35.780  23.382   3.350  0.00  0.00    +0.150 HD
BRANCH   4   6
ATOM      6  C   UNL     1     -35.147  21.252   4.445  0.00  0.00    +0.083 C 
BRANCH   6   7
ATOM      7  C   UNL     1     -35.290  21.364   2.926  0.00  0.00    -0.001 C 
BRANCH   7   8
ATOM      8  CA  UNL     1     -36.361  20.426   2.358  0.00  0.00    +0.036 C 
BRANCH   8   9
ATOM      9  N   UNL     1     -35.795  19.647   1.255  0.00  0.00    +0.389 N 
ATOM     10  H1  UNL     1     -35.134  20.223   0.736  0.00  0.00    -0.088 HD
ATOM     11  H2  UNL     1     -36.546  19.346   0.632  0.00  0.00    -0.088 HD
ATOM     12  H3  UNL     1     -35.315  18.829   1.627  0.00  0.00    -0.088 HD
ENDBRANCH   8   9
BRANCH   8  14
ATOM     13  OXT UNL     1     -37.861  21.214   0.606  0.00  0.00    -0.253 OA
ATOM     14  C   UNL     1     -37.530  21.207   1.785  0.00  0.00    +0.293 C 
BRANCH  14  15
ATOM     15  O   UNL     1     -38.176  21.937   2.732  0.00  0.00    -0.482 OA
ATOM     16  H   UNL     1     -38.765  22.620   2.475  0.00  0.00    +0.295 HD
ENDBRANCH  14  15
ENDBRANCH   8  14
ENDBRANCH   7   8
ENDBRANCH   6   7
ENDBRANCH   4   6
ENDBRANCH   1   3
BRANCH   1  19
ATOM     17  O   UNL     1     -37.111  26.099   2.798  0.00  0.00    -0.273 OA
ATOM     18  N   UNL     1     -38.761  24.785   3.764  0.00  0.00    -0.294 N 
ATOM     19  C   ACE A   1     -37.474  25.294   3.652  0.00  0.00    +0.242 C 
ATOM     20  H   UNL     1     -38.953  24.144   4.486  0.00  0.00    +0.150 HD
BRANCH  18  21
ATOM     21  CA  UNL     1     -39.827  25.160   2.866  0.00  0.00    +0.200 C 
BRANCH  21  23
ATOM     22  OXT UNL     1     -40.922  23.539   1.464  0.00  0.00    -0.248 OA
ATOM     23  C   UNL     1     -39.942  24.242   1.677  0.00  0.00    +0.334 C 
BRANCH  23  24
ATOM     24  O   UNL     1     -38.857  24.265   0.866  0.00  0.00    -0.479 OA
ATOM     25  H   UNL     1     -38.815  23.695   0.125  0.00  0.00    +0.295 HD
ENDBRANCH  23  24
ENDBRANCH  21  23
ENDBRANCH  18  21
ENDBRANCH   1  19
BRANCH   1  26
ATOM     26  CB  UNL     1     -35.464  25.759   5.161  0.00  0.00    +0.092 C 
BRANCH  26  27
ATOM     27  SG  UNL     1     -33.823  25.406   4.449  0.00  0.00    -0.099 S 
BRANCH  27  31
ATOM     28 CL   UNL     1     -33.521  27.541   2.464  0.00  0.00    -0.074 Cl
ATOM     29 CL   UNL     1     -32.260  29.480   4.693  0.00  0.00    -0.068 Cl
ATOM     30 CL   UNL     1     -32.499  27.355   6.687  0.00  0.00    -0.068 Cl
ATOM     31  C   UNL     1     -33.312  27.038   4.120  0.00  0.00    +0.104 C 
ATOM     32  C   UNL     1     -32.764  27.852   5.042  0.00  0.00    +0.131 C 
ENDBRANCH  27  31
ENDBRANCH  26  27
ENDBRANCH   1  26
TORSDOF 14
ENDMDL
MODEL 6
REMARK VINA RESULT:      -5.3      3.593      5.817
REMARK  Name = 21119846
REMARK  14 active torsions:
REMARK  status: ('A' for Active; 'I' for Inactive)
REMARK    1  A    between atoms: CA_1  and  N_3
REMARK    2  A    between atoms: CA_1  and  C_19
REMARK    3  A    between atoms: CA_1  and  CB_26
REMARK    4  A    between atoms: C_4  and  C_6
REMARK    5  A    between atoms: C_6  and  C_7
REMARK    6  A    between atoms: C_7  and  CA_8
REMARK    7  A    between atoms: CA_8  and  N_9
REMARK    8  A    between atoms: CA_8  and  C_14
REMARK    9  A    between atoms: C_14  and  O_15
REMARK   10  A    between atoms: N_18  and  CA_21
REMARK   11  A    between atoms: CA_21  and  C_23
REMARK   12  A    between atoms: C_23  and  O_24
REMARK   13  A    between atoms: CB_26  and  SG_27
REMARK   14  A    between atoms: SG_27  and  C_31
REMARK                            x       y       z     vdW  Elec       q    Type
REMARK                         _______ _______ _______ _____ _____    ______ ____
ROOT
ATOM      1  CA  UNL     1     -33.151  27.638   4.078  0.00  0.00    +0.160 C 
ENDROOT
BRANCH   1   3
ATOM      2  O   UNL     1     -33.248  24.785   4.507  0.00  0.00    -0.275 OA
ATOM      3  N   UNL     1     -34.205  26.891   4.725  0.00  0.00    -0.298 N 
ATOM      4  C   UNL     1     -34.162  25.513   4.885  0.00  0.00    +0.223 C 
ATOM      5  H   UNL     1     -34.989  27.380   5.066  0.00  0.00    +0.150 HD
BRANCH   4   6
ATOM      6  C   UNL     1     -35.405  24.994   5.588  0.00  0.00    +0.083 C 
BRANCH   6   7
ATOM      7  C   UNL     1     -35.430  23.466   5.677  0.00  0.00    -0.001 C 
BRANCH   7   8
ATOM      8  CA  UNL     1     -35.668  22.795   4.321  0.00  0.00    +0.036 C 
BRANCH   8   9
ATOM      9  N   UNL     1     -37.077  22.938   3.944  0.00  0.00    +0.389 N 
ATOM     10  H1  UNL     1     -37.486  23.722   4.450  0.00  0.00    -0.088 HD
ATOM     11  H2  UNL     1     -37.579  22.082   4.179  0.00  0.00    -0.088 HD
ATOM     12  H3  UNL     1     -37.145  23.106   2.941  0.00  0.00    -0.088 HD
ENDBRANCH   8   9
BRANCH   8  14
ATOM     13  OXT UNL     1     -35.280  20.566   3.414  0.00  0.00    -0.253 OA
ATOM     14  C   UNL     1     -35.384  21.305   4.385  0.00  0.00    +0.293 C 
BRANCH  14  15
ATOM     15  O   UNL     1     -35.279  20.855   5.662  0.00  0.00    -0.482 OA
ATOM     16  H   UNL     1     -35.930  20.277   6.010  0.00  0.00    +0.295 HD
ENDBRANCH  14  15
ENDBRANCH   8  14
ENDBRANCH   7   8
ENDBRANCH   6   7
ENDBRANCH   4   6
ENDBRANCH   1   3
BRANCH   1  19
ATOM     17  O   UNL     1     -32.502  28.263   6.331  0.00  0.00    -0.273 OA
ATOM     18  N   UNL     1     -30.970  28.543   4.611  0.00  0.00    -0.294 N 
ATOM     19  C   ACE A   1     -32.195  28.167   5.145  0.00  0.00    +0.242 C 
ATOM     20  H   UNL     1     -30.821  28.428   3.645  0.00  0.00    +0.150 HD
BRANCH  18  21
ATOM     21  CA  UNL     1     -29.907  29.097   5.417  0.00  0.00    +0.200 C 
BRANCH  21  23
ATOM     22  OXT UNL     1     -28.451  27.181   5.448  0.00  0.00    -0.248 OA
ATOM     23  C   UNL     1     -29.058  28.041   6.075  0.00  0.00    +0.334 C 
BRANCH  23  24
ATOM     24  O   UNL     1     -29.031  28.130   7.426  0.00  0.00    -0.479 OA
ATOM     25  H   UNL     1     -28.710  28.908   7.837  0.00  0.00    +0.295 HD
ENDBRANCH  23  24
ENDBRANCH  21  23
ENDBRANCH  18  21
ENDBRANCH   1  19
BRANCH   1  26
ATOM     26  CB  UNL     1     -33.694  28.730   3.153  0.00  0.00    +0.092 C 
BRANCH  26  27
ATOM     27  SG  UNL     1     -33.535  28.335   1.381  0.00  0.00    -0.099 S 
BRANCH  27  31
ATOM     28 CL   UNL     1     -36.136  27.020   1.690  0.00  0.00    -0.074 Cl
ATOM     29 CL   UNL     1     -34.797  24.161   1.096  0.00  0.00    -0.068 Cl
ATOM     30 CL   UNL     1     -32.178  25.435   0.832  0.00  0.00    -0.068 Cl
ATOM     31  C   UNL     1     -34.435  26.845   1.351  0.00  0.00    +0.104 C 
ATOM     32  C   UNL     1     -33.880  25.639   1.123  0.00  0.00    +0.131 C 
ENDBRANCH  27  31
ENDBRANCH  26  27
ENDBRANCH   1  26
TORSDOF 14
ENDMDL
MODEL 7
REMARK VINA RESULT:      -5.3      2.540      3.164
REMARK  Name = 21119846
REMARK  14 active torsions:
REMARK  status: ('A' for Active; 'I' for Inactive)
REMARK    1  A    between atoms: CA_1  and  N_3
REMARK    2  A    between atoms: CA_1  and  C_19
REMARK    3  A    between atoms: CA_1  and  CB_26
REMARK    4  A    between atoms: C_4  and  C_6
REMARK    5  A    between atoms: C_6  and  C_7
REMARK    6  A    between atoms: C_7  and  CA_8
REMARK    7  A    between atoms: CA_8  and  N_9
REMARK    8  A    between atoms: CA_8  and  C_14
REMARK    9  A    between atoms: C_14  and  O_15
REMARK   10  A    between atoms: N_18  and  CA_21
REMARK   11  A    between atoms: CA_21  and  C_23
REMARK   12  A    between atoms: C_23  and  O_24
REMARK   13  A    between atoms: CB_26  and  SG_27
REMARK   14  A    between atoms: SG_27  and  C_31
REMARK                            x       y       z     vdW  Elec       q    Type
REMARK                         _______ _______ _______ _____ _____    ______ ____
ROOT
ATOM      1  CA  UNL     1     -36.455  26.498   2.742  0.00  0.00    +0.160 C 
ENDROOT
BRANCH   1   3
ATOM      2  O   UNL     1     -34.534  26.672   4.889  0.00  0.00    -0.275 OA
ATOM      3  N   UNL     1     -35.853  25.399   3.460  0.00  0.00    -0.298 N 
ATOM      4  C   UNL     1     -34.934  25.583   4.484  0.00  0.00    +0.223 C 
ATOM      5  H   UNL     1     -36.104  24.480   3.214  0.00  0.00    +0.150 HD
BRANCH   4   6
ATOM      6  C   UNL     1     -34.459  24.257   5.053  0.00  0.00    +0.083 C 
BRANCH   6   7
ATOM      7  C   UNL     1     -35.502  23.607   5.965  0.00  0.00    -0.001 C 
BRANCH   7   8
ATOM      8  CA  UNL     1     -35.597  22.090   5.772  0.00  0.00    +0.036 C 
BRANCH   8   9
ATOM      9  N   UNL     1     -34.312  21.472   6.107  0.00  0.00    +0.389 N 
ATOM     10  H1  UNL     1     -33.879  21.983   6.876  0.00  0.00    -0.088 HD
ATOM     11  H2  UNL     1     -33.699  21.500   5.292  0.00  0.00    -0.088 HD
ATOM     12  H3  UNL     1     -34.462  20.503   6.384  0.00  0.00    -0.088 HD
ENDBRANCH   8   9
BRANCH   8  14
ATOM     13  OXT UNL     1     -35.300  20.874   3.681  0.00  0.00    -0.253 OA
ATOM     14  C   UNL     1     -35.887  21.734   4.325  0.00  0.00    +0.293 C 
BRANCH  14  15
ATOM     15  O   UNL     1     -36.873  22.503   3.793  0.00  0.00    -0.482 OA
ATOM     16  H   UNL     1     -36.872  23.430   3.935  0.00  0.00    +0.295 HD
ENDBRANCH  14  15
ENDBRANCH   8  14
ENDBRANCH   7   8
ENDBRANCH   6   7
ENDBRANCH   4   6
ENDBRANCH   1   3
BRANCH   1  19
ATOM     17  O   UNL     1     -38.668  26.895   1.829  0.00  0.00    -0.273 OA
ATOM     18  N   UNL     1     -38.343  25.055   3.205  0.00  0.00    -0.294 N 
ATOM     19  C   ACE A   1     -37.935  26.191   2.520  0.00  0.00    +0.242 C 
ATOM     20  H   UNL     1     -37.678  24.558   3.733  0.00  0.00    +0.150 HD
BRANCH  18  21
ATOM     21  CA  UNL     1     -39.705  24.575   3.172  0.00  0.00    +0.200 C 
BRANCH  21  23
ATOM     22  OXT UNL     1     -39.179  22.440   2.191  0.00  0.00    -0.248 OA
ATOM     23  C   UNL     1     -39.900  23.430   2.211  0.00  0.00    +0.334 C 
BRANCH  23  24
ATOM     24  O   UNL     1     -40.948  23.601   1.371  0.00  0.00    -0.479 OA
ATOM     25  H   UNL     1     -41.822  23.467   1.680  0.00  0.00    +0.295 HD
ENDBRANCH  23  24
ENDBRANCH  21  23
ENDBRANCH  18  21
ENDBRANCH   1  19
BRANCH   1  26
ATOM     26  CB  UNL     1     -35.703  26.832   1.450  0.00  0.00    +0.092 C 
BRANCH  26  27
ATOM     27  SG  UNL     1     -34.613  28.285   1.591  0.00  0.00    -0.099 S 
BRANCH  27  31
ATOM     28 CL   UNL     1     -36.961  29.255   0.130  0.00  0.00    -0.074 Cl
ATOM     29 CL   UNL     1     -37.034  31.907   1.941  0.00  0.00    -0.068 Cl
ATOM     30 CL   UNL     1     -34.661  30.994   3.386  0.00  0.00    -0.068 Cl
ATOM     31  C   UNL     1     -35.805  29.541   1.404  0.00  0.00    +0.104 C 
ATOM     32  C   UNL     1     -35.833  30.665   2.144  0.00  0.00    +0.131 C 
ENDBRANCH  27  31
ENDBRANCH  26  27
ENDBRANCH   1  26
TORSDOF 14
ENDMDL
MODEL 8
REMARK VINA RESULT:      -5.3      3.625      6.052
REMARK  Name = 21119846
REMARK  14 active torsions:
REMARK  status: ('A' for Active; 'I' for Inactive)
REMARK    1  A    between atoms: CA_1  and  N_3
REMARK    2  A    between atoms: CA_1  and  C_19
REMARK    3  A    between atoms: CA_1  and  CB_26
REMARK    4  A    between atoms: C_4  and  C_6
REMARK    5  A    between atoms: C_6  and  C_7
REMARK    6  A    between atoms: C_7  and  CA_8
REMARK    7  A    between atoms: CA_8  and  N_9
REMARK    8  A    between atoms: CA_8  and  C_14
REMARK    9  A    between atoms: C_14  and  O_15
REMARK   10  A    between atoms: N_18  and  CA_21
REMARK   11  A    between atoms: CA_21  and  C_23
REMARK   12  A    between atoms: C_23  and  O_24
REMARK   13  A    between atoms: CB_26  and  SG_27
REMARK   14  A    between atoms: SG_27  and  C_31
REMARK                            x       y       z     vdW  Elec       q    Type
REMARK                         _______ _______ _______ _____ _____    ______ ____
ROOT
ATOM      1  CA  UNL     1     -32.235  27.875   4.628  0.00  0.00    +0.160 C 
ENDROOT
BRANCH   1   3
ATOM      2  O   UNL     1     -33.310  25.197   4.647  0.00  0.00    -0.275 OA
ATOM      3  N   UNL     1     -33.539  27.465   5.095  0.00  0.00    -0.298 N 
ATOM      4  C   UNL     1     -33.969  26.146   5.064  0.00  0.00    +0.223 C 
ATOM      5  H   UNL     1     -34.149  28.151   5.451  0.00  0.00    +0.150 HD
BRANCH   4   6
ATOM      6  C   UNL     1     -35.381  26.006   5.607  0.00  0.00    +0.083 C 
BRANCH   6   7
ATOM      7  C   UNL     1     -35.979  24.625   5.330  0.00  0.00    -0.001 C 
BRANCH   7   8
ATOM      8  CA  UNL     1     -36.619  24.521   3.942  0.00  0.00    +0.036 C 
BRANCH   8   9
ATOM      9  N   UNL     1     -38.059  24.771   4.047  0.00  0.00    +0.389 N 
ATOM     10  H1  UNL     1     -38.215  25.672   4.498  0.00  0.00    -0.088 HD
ATOM     11  H2  UNL     1     -38.492  24.033   4.602  0.00  0.00    -0.088 HD
ATOM     12  H3  UNL     1     -38.472  24.780   3.115  0.00  0.00    -0.088 HD
ENDBRANCH   8   9
BRANCH   8  14
ATOM     13  OXT UNL     1     -35.413  22.655   2.941  0.00  0.00    -0.253 OA
ATOM     14  C   UNL     1     -36.461  23.127   3.363  0.00  0.00    +0.293 C 
BRANCH  14  15
ATOM     15  O   UNL     1     -37.635  22.444   3.336  0.00  0.00    -0.482 OA
ATOM     16  H   UNL     1     -38.413  22.862   3.020  0.00  0.00    +0.295 HD
ENDBRANCH  14  15
ENDBRANCH   8  14
ENDBRANCH   7   8
ENDBRANCH   6   7
ENDBRANCH   4   6
ENDBRANCH   1   3
BRANCH   1  19
ATOM     17  O   UNL     1     -32.084  29.119   6.706  0.00  0.00    -0.273 OA
ATOM     18  N   UNL     1     -30.124  28.564   5.594  0.00  0.00    -0.294 N 
ATOM     19  C   ACE A   1     -31.502  28.582   5.766  0.00  0.00    +0.242 C 
ATOM     20  H   UNL     1     -29.753  28.107   4.806  0.00  0.00    +0.150 HD
BRANCH  18  21
ATOM     21  CA  UNL     1     -29.216  29.190   6.526  0.00  0.00    +0.200 C 
BRANCH  21  23
ATOM     22  OXT UNL     1     -27.581  28.517   8.160  0.00  0.00    -0.248 OA
ATOM     23  C   UNL     1     -28.435  28.193   7.343  0.00  0.00    +0.334 C 
BRANCH  23  24
ATOM     24  O   UNL     1     -28.764  26.905   7.086  0.00  0.00    -0.479 OA
ATOM     25  H   UNL     1     -29.544  26.708   6.606  0.00  0.00    +0.295 HD
ENDBRANCH  23  24
ENDBRANCH  21  23
ENDBRANCH  18  21
ENDBRANCH   1  19
BRANCH   1  26
ATOM     26  CB  UNL     1     -32.310  28.707   3.345  0.00  0.00    +0.092 C 
BRANCH  26  27
ATOM     27  SG  UNL     1     -33.924  29.514   3.088  0.00  0.00    -0.099 S 
BRANCH  27  31
ATOM     28 CL   UNL     1     -31.839  31.486   3.685  0.00  0.00    -0.074 Cl
ATOM     29 CL   UNL     1     -33.541  33.779   2.215  0.00  0.00    -0.068 Cl
ATOM     30 CL   UNL     1     -35.664  31.850   1.648  0.00  0.00    -0.068 Cl
ATOM     31  C   UNL     1     -33.385  31.164   2.945  0.00  0.00    +0.104 C 
ATOM     32  C   UNL     1     -34.099  32.137   2.348  0.00  0.00    +0.131 C 
ENDBRANCH  27  31
ENDBRANCH  26  27
ENDBRANCH   1  26
TORSDOF 14
ENDMDL
MODEL 9
REMARK VINA RESULT:      -5.2      3.353      5.245
REMARK  Name = 21119846
REMARK  14 active torsions:
REMARK  status: ('A' for Active; 'I' for Inactive)
REMARK    1  A    between atoms: CA_1  and  N_3
REMARK    2  A    between atoms: CA_1  and  C_19
REMARK    3  A    between atoms: CA_1  and  CB_26
REMARK    4  A    between atoms: C_4  and  C_6
REMARK    5  A    between atoms: C_6  and  C_7
REMARK    6  A    between atoms: C_7  and  CA_8
REMARK    7  A    between atoms: CA_8  and  N_9
REMARK    8  A    between atoms: CA_8  and  C_14
REMARK    9  A    between atoms: C_14  and  O_15
REMARK   10  A    between atoms: N_18  and  CA_21
REMARK   11  A    between atoms: CA_21  and  C_23
REMARK   12  A    between atoms: C_23  and  O_24
REMARK   13  A    between atoms: CB_26  and  SG_27
REMARK   14  A    between atoms: SG_27  and  C_31
REMARK                            x       y       z     vdW  Elec       q    Type
REMARK                         _______ _______ _______ _____ _____    ______ ____
ROOT
ATOM      1  CA  UNL     1     -34.331  28.786   2.917  0.00  0.00    +0.160 C 
ENDROOT
BRANCH   1   3
ATOM      2  O   UNL     1     -34.022  25.920   3.066  0.00  0.00    -0.275 OA
ATOM      3  N   UNL     1     -35.003  27.885   3.825  0.00  0.00    -0.298 N 
ATOM      4  C   UNL     1     -34.788  26.514   3.821  0.00  0.00    +0.223 C 
ATOM      5  H   UNL     1     -35.641  28.258   4.475  0.00  0.00    +0.150 HD
BRANCH   4   6
ATOM      6  C   UNL     1     -35.631  25.813   4.872  0.00  0.00    +0.083 C 
BRANCH   6   7
ATOM      7  C   UNL     1     -35.002  24.500   5.345  0.00  0.00    -0.001 C 
BRANCH   7   8
ATOM      8  CA  UNL     1     -35.542  23.278   4.596  0.00  0.00    +0.036 C 
BRANCH   8   9
ATOM      9  N   UNL     1     -36.909  23.546   4.141  0.00  0.00    +0.389 N 
ATOM     10  H1  UNL     1     -37.109  24.541   4.235  0.00  0.00    -0.088 HD
ATOM     11  H2  UNL     1     -37.566  23.012   4.710  0.00  0.00    -0.088 HD
ATOM     12  H3  UNL     1     -37.003  23.270   3.165  0.00  0.00    -0.088 HD
ENDBRANCH   8   9
BRANCH   8  14
ATOM     13  OXT UNL     1     -35.935  22.085   6.684  0.00  0.00    -0.253 OA
ATOM     14  C   UNL     1     -35.616  22.063   5.503  0.00  0.00    +0.293 C 
BRANCH  14  15
ATOM     15  O   UNL     1     -35.256  20.920   4.862  0.00  0.00    -0.482 OA
ATOM     16  H   UNL     1     -35.623  20.099   5.128  0.00  0.00    +0.295 HD
ENDBRANCH  14  15
ENDBRANCH   8  14
ENDBRANCH   7   8
ENDBRANCH   6   7
ENDBRANCH   4   6
ENDBRANCH   1   3
BRANCH   1  19
ATOM     17  O   UNL     1     -31.906  28.812   2.841  0.00  0.00    -0.273 OA
ATOM     18  N   UNL     1     -32.972  29.659   4.720  0.00  0.00    -0.294 N 
ATOM     19  C   ACE A   1     -32.934  29.082   3.458  0.00  0.00    +0.242 C 
ATOM     20  H   UNL     1     -33.848  29.836   5.132  0.00  0.00    +0.150 HD
BRANCH  18  21
ATOM     21  CA  UNL     1     -31.777  30.009   5.452  0.00  0.00    +0.200 C 
BRANCH  21  23
ATOM     22  OXT UNL     1     -31.055  27.850   6.235  0.00  0.00    -0.248 OA
ATOM     23  C   UNL     1     -31.413  28.990   6.501  0.00  0.00    +0.334 C 
BRANCH  23  24
ATOM     24  O   UNL     1     -31.521  29.456   7.768  0.00  0.00    -0.479 OA
ATOM     25  H   UNL     1     -30.918  29.168   8.425  0.00  0.00    +0.295 HD
ENDBRANCH  23  24
ENDBRANCH  21  23
ENDBRANCH  18  21
ENDBRANCH   1  19
BRANCH   1  26
ATOM     26  CB  UNL     1     -35.153  30.046   2.633  0.00  0.00    +0.092 C 
BRANCH  26  27
ATOM     27  SG  UNL     1     -34.849  30.764   0.986  0.00  0.00    -0.099 S 
BRANCH  27  31
ATOM     28 CL   UNL     1     -33.087  32.499   2.560  0.00  0.00    -0.074 Cl
ATOM     29 CL   UNL     1     -34.696  35.094   1.561  0.00  0.00    -0.068 Cl
ATOM     30 CL   UNL     1     -36.504  33.388   0.020  0.00  0.00    -0.068 Cl
ATOM     31  C   UNL     1     -34.441  32.387   1.467  0.00  0.00    +0.104 C 
ATOM     32  C   UNL     1     -35.121  33.480   1.069  0.00  0.00    +0.131 C 
ENDBRANCH  27  31
ENDBRANCH  26  27
ENDBRANCH   1  26
TORSDOF 14
ENDMDL
