MODEL 1
REMARK VINA RESULT:      -5.6      0.000      0.000
REMARK  Name = 195582
REMARK  11 active torsions:
REMARK  status: ('A' for Active; 'I' for Inactive)
REMARK    1  A    between atoms: C_1  and  O_2
REMARK    2  A    between atoms: C_1  and  C_9
REMARK    3  A    between atoms: C_1  and  C_19
REMARK    4  A    between atoms: O_2  and  S_3
REMARK    5  A    between atoms: S_3  and  N_6
REMARK    6  A    between atoms: C_9  and  O_10
REMARK    7  A    between atoms: O_10  and  C_11
REMARK    8  A    between atoms: C_12  and  O_17
REMARK    9  A    between atoms: C_19  and  O_20
REMARK   10  A    between atoms: O_20  and  S_21
REMARK   11  A    between atoms: S_21  and  N_24
REMARK                            x       y       z     vdW  Elec       q    Type
REMARK                         _______ _______ _______ _____ _____    ______ ____
ROOT
ATOM      1  C   UNL     1     -39.575  24.873   2.263  0.00  0.00    +0.220 C 
ENDROOT
BRANCH   1   2
ATOM      2  O   UNL     1     -39.980  23.561   2.663  0.00  0.00    -0.226 OA
BRANCH   2   3
ATOM      3  S   UNL     1     -39.404  22.263   1.858  0.00  0.00    +0.049 S 
ATOM      4  O   UNL     1     -39.063  22.669   0.507  0.00  0.00    -0.056 OA
ATOM      5  O   UNL     1     -40.351  21.181   2.064  0.00  0.00    -0.056 OA
BRANCH   3   6
ATOM      6  N   UNL     1     -37.942  21.865   2.674  0.00  0.00    -0.178 NA
ATOM      7  C   UNL     1     -36.860  21.258   1.873  0.00  0.00    +0.110 C 
ATOM      8  H   UNL     1     -38.176  21.209   3.419  0.00  0.00    +0.149 HD
ENDBRANCH   3   6
ENDBRANCH   2   3
ENDBRANCH   1   2
BRANCH   1   9
ATOM      9  C   UNL     1     -38.780  25.488   3.407  0.00  0.00    +0.240 C 
BRANCH   9  10
ATOM     10  O   UNL     1     -37.946  24.488   3.982  0.00  0.00    -0.470 OA
BRANCH  10  11
ATOM     11  C   UNL     1     -36.658  24.851   4.269  0.00  0.00    +0.172 C 
ATOM     12  C   UNL     1     -35.790  23.953   4.893  0.00  0.00    +0.172 C 
ATOM     13  C   UNL     1     -36.214  26.130   3.934  0.00  0.00    +0.040 C 
ATOM     14  C   UNL     1     -34.480  24.335   5.181  0.00  0.00    +0.040 C 
ATOM     15  C   UNL     1     -34.904  26.512   4.223  0.00  0.00    +0.003 C 
ATOM     16  C   UNL     1     -34.037  25.615   4.845  0.00  0.00    +0.003 C 
BRANCH  12  17
ATOM     17  O   UNL     1     -36.212  22.701   5.224  0.00  0.00    -0.468 OA
ATOM     18  C   UNL     1     -35.541  22.057   6.305  0.00  0.00    +0.253 C 
ENDBRANCH  12  17
ENDBRANCH  10  11
ENDBRANCH   9  10
ENDBRANCH   1   9
BRANCH   1  19
ATOM     19  C   UNL     1     -40.820  25.694   1.944  0.00  0.00    +0.210 C 
BRANCH  19  20
ATOM     20  O   UNL     1     -40.744  26.954   2.592  0.00  0.00    -0.227 OA
BRANCH  20  21
ATOM     21  S   UNL     1     -42.089  27.606   3.260  0.00  0.00    +0.049 S 
ATOM     22  O   UNL     1     -43.154  26.627   3.135  0.00  0.00    -0.056 OA
ATOM     23  O   UNL     1     -41.743  28.125   4.571  0.00  0.00    -0.056 OA
BRANCH  21  24
ATOM     24  N   UNL     1     -42.463  28.946   2.246  0.00  0.00    -0.178 NA
ATOM     25  C   UNL     1     -43.809  29.538   2.372  0.00  0.00    +0.110 C 
ATOM     26  H   UNL     1     -42.354  28.638   1.279  0.00  0.00    +0.149 HD
ENDBRANCH  21  24
ENDBRANCH  20  21
ENDBRANCH  19  20
ENDBRANCH   1  19
TORSDOF 11
ENDMDL
MODEL 2
REMARK VINA RESULT:      -5.6      3.401      5.485
REMARK  Name = 195582
REMARK  11 active torsions:
REMARK  status: ('A' for Active; 'I' for Inactive)
REMARK    1  A    between atoms: C_1  and  O_2
REMARK    2  A    between atoms: C_1  and  C_9
REMARK    3  A    between atoms: C_1  and  C_19
REMARK    4  A    between atoms: O_2  and  S_3
REMARK    5  A    between atoms: S_3  and  N_6
REMARK    6  A    between atoms: C_9  and  O_10
REMARK    7  A    between atoms: O_10  and  C_11
REMARK    8  A    between atoms: C_12  and  O_17
REMARK    9  A    between atoms: C_19  and  O_20
REMARK   10  A    between atoms: O_20  and  S_21
REMARK   11  A    between atoms: S_21  and  N_24
REMARK                            x       y       z     vdW  Elec       q    Type
REMARK                         _______ _______ _______ _____ _____    ______ ____
ROOT
ATOM      1  C   UNL     1     -34.869  25.273   4.995  0.00  0.00    +0.220 C 
ENDROOT
BRANCH   1   2
ATOM      2  O   UNL     1     -35.649  24.396   5.813  0.00  0.00    -0.226 OA
BRANCH   2   3
ATOM      3  S   UNL     1     -35.565  22.785   5.569  0.00  0.00    +0.049 S 
ATOM      4  O   UNL     1     -36.169  22.112   6.703  0.00  0.00    -0.056 OA
ATOM      5  O   UNL     1     -34.193  22.481   5.202  0.00  0.00    -0.056 OA
BRANCH   3   6
ATOM      6  N   UNL     1     -36.567  22.505   4.197  0.00  0.00    -0.178 NA
ATOM      7  C   UNL     1     -35.913  22.019   2.965  0.00  0.00    +0.110 C 
ATOM      8  H   UNL     1     -37.028  23.387   3.971  0.00  0.00    +0.149 HD
ENDBRANCH   3   6
ENDBRANCH   2   3
ENDBRANCH   1   2
BRANCH   1   9
ATOM      9  C   UNL     1     -33.995  26.118   5.911  0.00  0.00    +0.240 C 
BRANCH   9  10
ATOM     10  O   UNL     1     -32.865  26.578   5.178  0.00  0.00    -0.470 OA
BRANCH  10  11
ATOM     11  C   UNL     1     -32.497  27.883   5.370  0.00  0.00    +0.172 C 
ATOM     12  C   UNL     1     -32.623  28.815   4.338  0.00  0.00    +0.172 C 
ATOM     13  C   UNL     1     -31.991  28.279   6.608  0.00  0.00    +0.040 C 
ATOM     14  C   UNL     1     -32.244  30.141   4.546  0.00  0.00    +0.040 C 
ATOM     15  C   UNL     1     -31.612  29.604   6.815  0.00  0.00    +0.003 C 
ATOM     16  C   UNL     1     -31.738  30.535   5.785  0.00  0.00    +0.003 C 
BRANCH  12  17
ATOM     17  O   UNL     1     -33.117  28.441   3.125  0.00  0.00    -0.468 OA
ATOM     18  C   UNL     1     -34.279  29.125   2.660  0.00  0.00    +0.253 C 
ENDBRANCH  12  17
ENDBRANCH  10  11
ENDBRANCH   9  10
ENDBRANCH   1   9
BRANCH   1  19
ATOM     19  C   UNL     1     -35.813  26.141   4.170  0.00  0.00    +0.210 C 
BRANCH  19  20
ATOM     20  O   UNL     1     -37.115  25.574   4.173  0.00  0.00    -0.227 OA
BRANCH  20  21
ATOM     21  S   UNL     1     -38.069  25.722   2.852  0.00  0.00    +0.049 S 
ATOM     22  O   UNL     1     -37.444  26.693   1.972  0.00  0.00    -0.056 OA
ATOM     23  O   UNL     1     -38.371  24.393   2.353  0.00  0.00    -0.056 OA
BRANCH  21  24
ATOM     24  N   UNL     1     -39.532  26.401   3.455  0.00  0.00    -0.178 NA
ATOM     25  C   UNL     1     -40.770  26.128   2.700  0.00  0.00    +0.110 C 
ATOM     26  H   UNL     1     -39.410  27.414   3.485  0.00  0.00    +0.149 HD
ENDBRANCH  21  24
ENDBRANCH  20  21
ENDBRANCH  19  20
ENDBRANCH   1  19
TORSDOF 11
ENDMDL
MODEL 3
REMARK VINA RESULT:      -5.5      5.254      7.683
REMARK  Name = 195582
REMARK  11 active torsions:
REMARK  status: ('A' for Active; 'I' for Inactive)
REMARK    1  A    between atoms: C_1  and  O_2
REMARK    2  A    between atoms: C_1  and  C_9
REMARK    3  A    between atoms: C_1  and  C_19
REMARK    4  A    between atoms: O_2  and  S_3
REMARK    5  A    between atoms: S_3  and  N_6
REMARK    6  A    between atoms: C_9  and  O_10
REMARK    7  A    between atoms: O_10  and  C_11
REMARK    8  A    between atoms: C_12  and  O_17
REMARK    9  A    between atoms: C_19  and  O_20
REMARK   10  A    between atoms: O_20  and  S_21
REMARK   11  A    between atoms: S_21  and  N_24
REMARK                            x       y       z     vdW  Elec       q    Type
REMARK                         _______ _______ _______ _____ _____    ______ ____
ROOT
ATOM      1  C   UNL     1     -33.918  26.945   4.082  0.00  0.00    +0.220 C 
ENDROOT
BRANCH   1   2
ATOM      2  O   UNL     1     -34.854  27.960   3.708  0.00  0.00    -0.226 OA
BRANCH   2   3
ATOM      3  S   UNL     1     -35.564  27.896   2.241  0.00  0.00    +0.049 S 
ATOM      4  O   UNL     1     -34.720  27.120   1.351  0.00  0.00    -0.056 OA
ATOM      5  O   UNL     1     -35.923  29.257   1.883  0.00  0.00    -0.056 OA
BRANCH   3   6
ATOM      6  N   UNL     1     -37.013  27.005   2.502  0.00  0.00    -0.178 NA
ATOM      7  C   UNL     1     -37.866  26.732   1.328  0.00  0.00    +0.110 C 
ATOM      8  H   UNL     1     -37.575  27.527   3.175  0.00  0.00    +0.149 HD
ENDBRANCH   3   6
ENDBRANCH   2   3
ENDBRANCH   1   2
BRANCH   1   9
ATOM      9  C   UNL     1     -34.477  26.213   5.293  0.00  0.00    +0.240 C 
BRANCH   9  10
ATOM     10  O   UNL     1     -35.636  25.485   4.899  0.00  0.00    -0.470 OA
BRANCH  10  11
ATOM     11  C   UNL     1     -35.531  24.120   4.887  0.00  0.00    +0.172 C 
ATOM     12  C   UNL     1     -35.705  23.406   3.701  0.00  0.00    +0.172 C 
ATOM     13  C   UNL     1     -35.250  23.442   6.073  0.00  0.00    +0.040 C 
ATOM     14  C   UNL     1     -35.597  22.016   3.701  0.00  0.00    +0.040 C 
ATOM     15  C   UNL     1     -35.142  22.052   6.074  0.00  0.00    +0.003 C 
ATOM     16  C   UNL     1     -35.315  21.339   4.888  0.00  0.00    +0.003 C 
BRANCH  12  17
ATOM     17  O   UNL     1     -35.980  24.057   2.536  0.00  0.00    -0.468 OA
ATOM     18  C   UNL     1     -35.273  23.630   1.373  0.00  0.00    +0.253 C 
ENDBRANCH  12  17
ENDBRANCH  10  11
ENDBRANCH   9  10
ENDBRANCH   1   9
BRANCH   1  19
ATOM     19  C   UNL     1     -32.580  27.605   4.398  0.00  0.00    +0.210 C 
BRANCH  19  20
ATOM     20  O   UNL     1     -32.610  28.152   5.707  0.00  0.00    -0.227 OA
BRANCH  20  21
ATOM     21  S   UNL     1     -31.347  29.042   6.246  0.00  0.00    +0.049 S 
ATOM     22  O   UNL     1     -30.902  29.875   5.144  0.00  0.00    -0.056 OA
ATOM     23  O   UNL     1     -31.726  29.661   7.504  0.00  0.00    -0.056 OA
BRANCH  21  24
ATOM     24  N   UNL     1     -30.119  27.883   6.580  0.00  0.00    -0.178 NA
ATOM     25  C   UNL     1     -28.886  27.947   5.771  0.00  0.00    +0.110 C 
ATOM     26  H   UNL     1     -30.526  26.957   6.443  0.00  0.00    +0.149 HD
ENDBRANCH  21  24
ENDBRANCH  20  21
ENDBRANCH  19  20
ENDBRANCH   1  19
TORSDOF 11
ENDMDL
MODEL 4
REMARK VINA RESULT:      -5.5      3.684      6.225
REMARK  Name = 195582
REMARK  11 active torsions:
REMARK  status: ('A' for Active; 'I' for Inactive)
REMARK    1  A    between atoms: C_1  and  O_2
REMARK    2  A    between atoms: C_1  and  C_9
REMARK    3  A    between atoms: C_1  and  C_19
REMARK    4  A    between atoms: O_2  and  S_3
REMARK    5  A    between atoms: S_3  and  N_6
REMARK    6  A    between atoms: C_9  and  O_10
REMARK    7  A    between atoms: O_10  and  C_11
REMARK    8  A    between atoms: C_12  and  O_17
REMARK    9  A    between atoms: C_19  and  O_20
REMARK   10  A    between atoms: O_20  and  S_21
REMARK   11  A    between atoms: S_21  and  N_24
REMARK                            x       y       z     vdW  Elec       q    Type
REMARK                         _______ _______ _______ _____ _____    ______ ____
ROOT
ATOM      1  C   UNL     1     -35.656  22.858   4.055  0.00  0.00    +0.220 C 
ENDROOT
BRANCH   1   2
ATOM      2  O   UNL     1     -37.057  23.135   4.125  0.00  0.00    -0.226 OA
BRANCH   2   3
ATOM      3  S   UNL     1     -37.758  24.034   2.957  0.00  0.00    +0.049 S 
ATOM      4  O   UNL     1     -36.831  25.077   2.556  0.00  0.00    -0.056 OA
ATOM      5  O   UNL     1     -39.081  24.394   3.434  0.00  0.00    -0.056 OA
BRANCH   3   6
ATOM      6  N   UNL     1     -37.936  22.951   1.631  0.00  0.00    -0.178 NA
ATOM      7  C   UNL     1     -39.247  22.293   1.461  0.00  0.00    +0.110 C 
ATOM      8  H   UNL     1     -37.236  22.216   1.740  0.00  0.00    +0.149 HD
ENDBRANCH   3   6
ENDBRANCH   2   3
ENDBRANCH   1   2
BRANCH   1   9
ATOM      9  C   UNL     1     -35.483  21.358   3.856  0.00  0.00    +0.240 C 
BRANCH   9  10
ATOM     10  O   UNL     1     -35.784  21.034   2.502  0.00  0.00    -0.470 OA
BRANCH  10  11
ATOM     11  C   UNL     1     -34.719  20.799   1.675  0.00  0.00    +0.172 C 
ATOM     12  C   UNL     1     -34.293  21.774   0.771  0.00  0.00    +0.172 C 
ATOM     13  C   UNL     1     -34.057  19.573   1.738  0.00  0.00    +0.040 C 
ATOM     14  C   UNL     1     -33.208  21.523  -0.067  0.00  0.00    +0.040 C 
ATOM     15  C   UNL     1     -32.971  19.321   0.900  0.00  0.00    +0.003 C 
ATOM     16  C   UNL     1     -32.547  20.296  -0.003  0.00  0.00    +0.003 C 
BRANCH  12  17
ATOM     17  O   UNL     1     -34.931  22.976   0.700  0.00  0.00    -0.468 OA
ATOM     18  C   UNL     1     -34.128  24.119   0.413  0.00  0.00    +0.253 C 
ENDBRANCH  12  17
ENDBRANCH  10  11
ENDBRANCH   9  10
ENDBRANCH   1   9
BRANCH   1  19
ATOM     19  C   UNL     1     -34.998  23.328   5.347  0.00  0.00    +0.210 C 
BRANCH  19  20
ATOM     20  O   UNL     1     -34.152  24.435   5.082  0.00  0.00    -0.227 OA
BRANCH  20  21
ATOM     21  S   UNL     1     -34.694  25.956   5.350  0.00  0.00    +0.049 S 
ATOM     22  O   UNL     1     -36.070  25.852   5.801  0.00  0.00    -0.056 OA
ATOM     23  O   UNL     1     -33.721  26.650   6.174  0.00  0.00    -0.056 OA
BRANCH  21  24
ATOM     24  N   UNL     1     -34.687  26.694   3.795  0.00  0.00    -0.178 NA
ATOM     25  C   UNL     1     -33.401  26.745   3.072  0.00  0.00    +0.110 C 
ATOM     26  H   UNL     1     -35.011  27.655   3.911  0.00  0.00    +0.149 HD
ENDBRANCH  21  24
ENDBRANCH  20  21
ENDBRANCH  19  20
ENDBRANCH   1  19
TORSDOF 11
ENDMDL
MODEL 5
REMARK VINA RESULT:      -5.4      1.940      5.296
REMARK  Name = 195582
REMARK  11 active torsions:
REMARK  status: ('A' for Active; 'I' for Inactive)
REMARK    1  A    between atoms: C_1  and  O_2
REMARK    2  A    between atoms: C_1  and  C_9
REMARK    3  A    between atoms: C_1  and  C_19
REMARK    4  A    between atoms: O_2  and  S_3
REMARK    5  A    between atoms: S_3  and  N_6
REMARK    6  A    between atoms: C_9  and  O_10
REMARK    7  A    between atoms: O_10  and  C_11
REMARK    8  A    between atoms: C_12  and  O_17
REMARK    9  A    between atoms: C_19  and  O_20
REMARK   10  A    between atoms: O_20  and  S_21
REMARK   11  A    between atoms: S_21  and  N_24
REMARK                            x       y       z     vdW  Elec       q    Type
REMARK                         _______ _______ _______ _____ _____    ______ ____
ROOT
ATOM      1  C   UNL     1     -39.459  23.833   2.358  0.00  0.00    +0.220 C 
ENDROOT
BRANCH   1   2
ATOM      2  O   UNL     1     -39.707  24.788   1.323  0.00  0.00    -0.226 OA
BRANCH   2   3
ATOM      3  S   UNL     1     -39.907  26.360   1.712  0.00  0.00    +0.049 S 
ATOM      4  O   UNL     1     -41.065  26.870   1.001  0.00  0.00    -0.056 OA
ATOM      5  O   UNL     1     -38.619  27.007   1.541  0.00  0.00    -0.056 OA
BRANCH   3   6
ATOM      6  N   UNL     1     -40.287  26.343   3.391  0.00  0.00    -0.178 NA
ATOM      7  C   UNL     1     -41.678  26.654   3.777  0.00  0.00    +0.110 C 
ATOM      8  H   UNL     1     -39.682  27.026   3.847  0.00  0.00    +0.149 HD
ENDBRANCH   3   6
ENDBRANCH   2   3
ENDBRANCH   1   2
BRANCH   1   9
ATOM      9  C   UNL     1     -37.984  23.912   2.727  0.00  0.00    +0.240 C 
BRANCH   9  10
ATOM     10  O   UNL     1     -37.863  24.446   4.041  0.00  0.00    -0.470 OA
BRANCH  10  11
ATOM     11  C   UNL     1     -36.618  24.870   4.422  0.00  0.00    +0.172 C 
ATOM     12  C   UNL     1     -35.801  24.055   5.207  0.00  0.00    +0.172 C 
ATOM     13  C   UNL     1     -36.169  26.128   4.020  0.00  0.00    +0.040 C 
ATOM     14  C   UNL     1     -34.535  24.499   5.589  0.00  0.00    +0.040 C 
ATOM     15  C   UNL     1     -34.903  26.571   4.402  0.00  0.00    +0.003 C 
ATOM     16  C   UNL     1     -34.086  25.757   5.186  0.00  0.00    +0.003 C 
BRANCH  12  17
ATOM     17  O   UNL     1     -36.229  22.825   5.605  0.00  0.00    -0.468 OA
ATOM     18  C   UNL     1     -35.266  21.974   6.224  0.00  0.00    +0.253 C 
ENDBRANCH  12  17
ENDBRANCH  10  11
ENDBRANCH   9  10
ENDBRANCH   1   9
BRANCH   1  19
ATOM     19  C   UNL     1     -39.832  22.447   1.845  0.00  0.00    +0.210 C 
BRANCH  19  20
ATOM     20  O   UNL     1     -39.219  22.218   0.586  0.00  0.00    -0.227 OA
BRANCH  20  21
ATOM     21  S   UNL     1     -38.321  20.871   0.351  0.00  0.00    +0.049 S 
ATOM     22  O   UNL     1     -39.217  19.826  -0.110  0.00  0.00    -0.056 OA
ATOM     23  O   UNL     1     -37.163  21.226  -0.450  0.00  0.00    -0.056 OA
BRANCH  21  24
ATOM     24  N   UNL     1     -37.762  20.450   1.924  0.00  0.00    -0.178 NA
ATOM     25  C   UNL     1     -36.310  20.536   2.175  0.00  0.00    +0.110 C 
ATOM     26  H   UNL     1     -38.046  19.486   2.102  0.00  0.00    +0.149 HD
ENDBRANCH  21  24
ENDBRANCH  20  21
ENDBRANCH  19  20
ENDBRANCH   1  19
TORSDOF 11
ENDMDL
MODEL 6
REMARK VINA RESULT:      -5.4      4.886      7.037
REMARK  Name = 195582
REMARK  11 active torsions:
REMARK  status: ('A' for Active; 'I' for Inactive)
REMARK    1  A    between atoms: C_1  and  O_2
REMARK    2  A    between atoms: C_1  and  C_9
REMARK    3  A    between atoms: C_1  and  C_19
REMARK    4  A    between atoms: O_2  and  S_3
REMARK    5  A    between atoms: S_3  and  N_6
REMARK    6  A    between atoms: C_9  and  O_10
REMARK    7  A    between atoms: O_10  and  C_11
REMARK    8  A    between atoms: C_12  and  O_17
REMARK    9  A    between atoms: C_19  and  O_20
REMARK   10  A    between atoms: O_20  and  S_21
REMARK   11  A    between atoms: S_21  and  N_24
REMARK                            x       y       z     vdW  Elec       q    Type
REMARK                         _______ _______ _______ _____ _____    ______ ____
ROOT
ATOM      1  C   UNL     1     -33.484  27.373   4.176  0.00  0.00    +0.220 C 
ENDROOT
BRANCH   1   2
ATOM      2  O   UNL     1     -32.173  27.623   4.689  0.00  0.00    -0.226 OA
BRANCH   2   3
ATOM      3  S   UNL     1     -31.996  28.112   6.236  0.00  0.00    +0.049 S 
ATOM      4  O   UNL     1     -32.874  27.318   7.076  0.00  0.00    -0.056 OA
ATOM      5  O   UNL     1     -32.115  29.559   6.241  0.00  0.00    -0.056 OA
BRANCH   3   6
ATOM      6  N   UNL     1     -30.373  27.701   6.635  0.00  0.00    -0.178 NA
ATOM      7  C   UNL     1     -29.296  28.455   5.963  0.00  0.00    +0.110 C 
ATOM      8  H   UNL     1     -30.244  26.714   6.408  0.00  0.00    +0.149 HD
ENDBRANCH   3   6
ENDBRANCH   2   3
ENDBRANCH   1   2
BRANCH   1   9
ATOM      9  C   UNL     1     -33.587  25.888   3.854  0.00  0.00    +0.240 C 
BRANCH   9  10
ATOM     10  O   UNL     1     -34.903  25.439   4.161  0.00  0.00    -0.470 OA
BRANCH  10  11
ATOM     11  C   UNL     1     -35.056  24.100   4.402  0.00  0.00    +0.172 C 
ATOM     12  C   UNL     1     -35.458  23.237   3.381  0.00  0.00    +0.172 C 
ATOM     13  C   UNL     1     -34.807  23.599   5.679  0.00  0.00    +0.040 C 
ATOM     14  C   UNL     1     -35.611  21.875   3.639  0.00  0.00    +0.040 C 
ATOM     15  C   UNL     1     -34.959  22.237   5.937  0.00  0.00    +0.003 C 
ATOM     16  C   UNL     1     -35.362  21.375   4.918  0.00  0.00    +0.003 C 
BRANCH  12  17
ATOM     17  O   UNL     1     -35.704  23.714   2.129  0.00  0.00    -0.468 OA
ATOM     18  C   UNL     1     -36.648  22.996   1.336  0.00  0.00    +0.253 C 
ENDBRANCH  12  17
ENDBRANCH  10  11
ENDBRANCH   9  10
ENDBRANCH   1   9
BRANCH   1  19
ATOM     19  C   UNL     1     -33.694  28.229   2.931  0.00  0.00    +0.210 C 
BRANCH  19  20
ATOM     20  O   UNL     1     -35.061  28.592   2.822  0.00  0.00    -0.227 OA
BRANCH  20  21
ATOM     21  S   UNL     1     -36.002  27.883   1.685  0.00  0.00    +0.049 S 
ATOM     22  O   UNL     1     -36.945  28.883   1.217  0.00  0.00    -0.056 OA
ATOM     23  O   UNL     1     -35.139  27.211   0.730  0.00  0.00    -0.056 OA
BRANCH  21  24
ATOM     24  N   UNL     1     -36.875  26.674   2.545  0.00  0.00    -0.178 NA
ATOM     25  C   UNL     1     -38.237  26.355   2.073  0.00  0.00    +0.110 C 
ATOM     26  H   UNL     1     -36.953  26.984   3.514  0.00  0.00    +0.149 HD
ENDBRANCH  21  24
ENDBRANCH  20  21
ENDBRANCH  19  20
ENDBRANCH   1  19
TORSDOF 11
ENDMDL
MODEL 7
REMARK VINA RESULT:      -5.4      3.641      6.297
REMARK  Name = 195582
REMARK  11 active torsions:
REMARK  status: ('A' for Active; 'I' for Inactive)
REMARK    1  A    between atoms: C_1  and  O_2
REMARK    2  A    between atoms: C_1  and  C_9
REMARK    3  A    between atoms: C_1  and  C_19
REMARK    4  A    between atoms: O_2  and  S_3
REMARK    5  A    between atoms: S_3  and  N_6
REMARK    6  A    between atoms: C_9  and  O_10
REMARK    7  A    between atoms: O_10  and  C_11
REMARK    8  A    between atoms: C_12  and  O_17
REMARK    9  A    between atoms: C_19  and  O_20
REMARK   10  A    between atoms: O_20  and  S_21
REMARK   11  A    between atoms: S_21  and  N_24
REMARK                            x       y       z     vdW  Elec       q    Type
REMARK                         _______ _______ _______ _____ _____    ______ ____
ROOT
ATOM      1  C   UNL     1     -36.049  23.620   3.850  0.00  0.00    +0.220 C 
ENDROOT
BRANCH   1   2
ATOM      2  O   UNL     1     -37.436  23.851   4.110  0.00  0.00    -0.226 OA
BRANCH   2   3
ATOM      3  S   UNL     1     -38.305  24.763   3.073  0.00  0.00    +0.049 S 
ATOM      4  O   UNL     1     -38.526  24.002   1.858  0.00  0.00    -0.056 OA
ATOM      5  O   UNL     1     -37.654  26.059   3.000  0.00  0.00    -0.056 OA
BRANCH   3   6
ATOM      6  N   UNL     1     -39.828  24.966   3.851  0.00  0.00    -0.178 NA
ATOM      7  C   UNL     1     -40.772  25.932   3.256  0.00  0.00    +0.110 C 
ATOM      8  H   UNL     1     -39.644  25.267   4.808  0.00  0.00    +0.149 HD
ENDBRANCH   3   6
ENDBRANCH   2   3
ENDBRANCH   1   2
BRANCH   1   9
ATOM      9  C   UNL     1     -35.837  22.117   3.726  0.00  0.00    +0.240 C 
BRANCH   9  10
ATOM     10  O   UNL     1     -36.069  21.727   2.377  0.00  0.00    -0.470 OA
BRANCH  10  11
ATOM     11  C   UNL     1     -34.997  21.229   1.687  0.00  0.00    +0.172 C 
ATOM     12  C   UNL     1     -34.321  22.021   0.758  0.00  0.00    +0.172 C 
ATOM     13  C   UNL     1     -34.581  19.918   1.918  0.00  0.00    +0.040 C 
ATOM     14  C   UNL     1     -33.230  21.501   0.061  0.00  0.00    +0.040 C 
ATOM     15  C   UNL     1     -33.490  19.398   1.222  0.00  0.00    +0.003 C 
ATOM     16  C   UNL     1     -32.815  20.190   0.293  0.00  0.00    +0.003 C 
BRANCH  12  17
ATOM     17  O   UNL     1     -34.717  23.303   0.523  0.00  0.00    -0.468 OA
ATOM     18  C   UNL     1     -33.820  24.340   0.916  0.00  0.00    +0.253 C 
ENDBRANCH  12  17
ENDBRANCH  10  11
ENDBRANCH   9  10
ENDBRANCH   1   9
BRANCH   1  19
ATOM     19  C   UNL     1     -35.232  24.205   4.997  0.00  0.00    +0.210 C 
BRANCH  19  20
ATOM     20  O   UNL     1     -34.080  24.855   4.485  0.00  0.00    -0.227 OA
BRANCH  20  21
ATOM     21  S   UNL     1     -33.801  26.425   4.855  0.00  0.00    +0.049 S 
ATOM     22  O   UNL     1     -33.908  26.557   6.297  0.00  0.00    -0.056 OA
ATOM     23  O   UNL     1     -32.583  26.844   4.186  0.00  0.00    -0.056 OA
BRANCH  21  24
ATOM     24  N   UNL     1     -35.115  27.274   4.135  0.00  0.00    -0.178 NA
ATOM     25  C   UNL     1     -34.824  28.085   2.937  0.00  0.00    +0.110 C 
ATOM     26  H   UNL     1     -35.498  27.901   4.843  0.00  0.00    +0.149 HD
ENDBRANCH  21  24
ENDBRANCH  20  21
ENDBRANCH  19  20
ENDBRANCH   1  19
TORSDOF 11
ENDMDL
MODEL 8
REMARK VINA RESULT:      -5.4      3.758      6.961
REMARK  Name = 195582
REMARK  11 active torsions:
REMARK  status: ('A' for Active; 'I' for Inactive)
REMARK    1  A    between atoms: C_1  and  O_2
REMARK    2  A    between atoms: C_1  and  C_9
REMARK    3  A    between atoms: C_1  and  C_19
REMARK    4  A    between atoms: O_2  and  S_3
REMARK    5  A    between atoms: S_3  and  N_6
REMARK    6  A    between atoms: C_9  and  O_10
REMARK    7  A    between atoms: O_10  and  C_11
REMARK    8  A    between atoms: C_12  and  O_17
REMARK    9  A    between atoms: C_19  and  O_20
REMARK   10  A    between atoms: O_20  and  S_21
REMARK   11  A    between atoms: S_21  and  N_24
REMARK                            x       y       z     vdW  Elec       q    Type
REMARK                         _______ _______ _______ _____ _____    ______ ____
ROOT
ATOM      1  C   UNL     1     -35.016  25.681   4.470  0.00  0.00    +0.220 C 
ENDROOT
BRANCH   1   2
ATOM      2  O   UNL     1     -35.179  26.572   3.363  0.00  0.00    -0.226 OA
BRANCH   2   3
ATOM      3  S   UNL     1     -36.531  26.483   2.454  0.00  0.00    +0.049 S 
ATOM      4  O   UNL     1     -36.394  25.376   1.525  0.00  0.00    -0.056 OA
ATOM      5  O   UNL     1     -36.790  27.818   1.945  0.00  0.00    -0.056 OA
BRANCH   3   6
ATOM      6  N   UNL     1     -37.776  26.079   3.573  0.00  0.00    -0.178 NA
ATOM      7  C   UNL     1     -39.060  25.604   3.020  0.00  0.00    +0.110 C 
ATOM      8  H   UNL     1     -37.971  26.913   4.127  0.00  0.00    +0.149 HD
ENDBRANCH   3   6
ENDBRANCH   2   3
ENDBRANCH   1   2
BRANCH   1   9
ATOM      9  C   UNL     1     -34.155  26.380   5.513  0.00  0.00    +0.240 C 
BRANCH   9  10
ATOM     10  O   UNL     1     -32.924  26.767   4.912  0.00  0.00    -0.470 OA
BRANCH  10  11
ATOM     11  C   UNL     1     -32.460  28.020   5.212  0.00  0.00    +0.172 C 
ATOM     12  C   UNL     1     -32.411  29.012   4.231  0.00  0.00    +0.172 C 
ATOM     13  C   UNL     1     -32.032  28.302   6.509  0.00  0.00    +0.040 C 
ATOM     14  C   UNL     1     -31.936  30.284   4.549  0.00  0.00    +0.040 C 
ATOM     15  C   UNL     1     -31.557  29.573   6.827  0.00  0.00    +0.003 C 
ATOM     16  C   UNL     1     -31.508  30.565   5.847  0.00  0.00    +0.003 C 
BRANCH  12  17
ATOM     17  O   UNL     1     -32.826  28.749   2.961  0.00  0.00    -0.468 OA
ATOM     18  C   UNL     1     -32.264  29.544   1.918  0.00  0.00    +0.253 C 
ENDBRANCH  12  17
ENDBRANCH  10  11
ENDBRANCH   9  10
ENDBRANCH   1   9
BRANCH   1  19
ATOM     19  C   UNL     1     -34.358  24.398   3.973  0.00  0.00    +0.210 C 
BRANCH  19  20
ATOM     20  O   UNL     1     -34.441  23.396   4.974  0.00  0.00    -0.227 OA
BRANCH  20  21
ATOM     21  S   UNL     1     -35.779  22.460   5.079  0.00  0.00    +0.049 S 
ATOM     22  O   UNL     1     -36.005  22.181   6.485  0.00  0.00    -0.056 OA
ATOM     23  O   UNL     1     -36.832  23.076   4.292  0.00  0.00    -0.056 OA
BRANCH  21  24
ATOM     24  N   UNL     1     -35.335  20.990   4.300  0.00  0.00    -0.178 NA
ATOM     25  C   UNL     1     -35.576  20.890   2.848  0.00  0.00    +0.110 C 
ATOM     26  H   UNL     1     -35.857  20.236   4.749  0.00  0.00    +0.149 HD
ENDBRANCH  21  24
ENDBRANCH  20  21
ENDBRANCH  19  20
ENDBRANCH   1  19
TORSDOF 11
ENDMDL
MODEL 9
REMARK VINA RESULT:      -5.3      4.639      6.449
REMARK  Name = 195582
REMARK  11 active torsions:
REMARK  status: ('A' for Active; 'I' for Inactive)
REMARK    1  A    between atoms: C_1  and  O_2
REMARK    2  A    between atoms: C_1  and  C_9
REMARK    3  A    between atoms: C_1  and  C_19
REMARK    4  A    between atoms: O_2  and  S_3
REMARK    5  A    between atoms: S_3  and  N_6
REMARK    6  A    between atoms: C_9  and  O_10
REMARK    7  A    between atoms: O_10  and  C_11
REMARK    8  A    between atoms: C_12  and  O_17
REMARK    9  A    between atoms: C_19  and  O_20
REMARK   10  A    between atoms: O_20  and  S_21
REMARK   11  A    between atoms: S_21  and  N_24
REMARK                            x       y       z     vdW  Elec       q    Type
REMARK                         _______ _______ _______ _____ _____    ______ ____
ROOT
ATOM      1  C   UNL     1     -34.884  27.355   2.932  0.00  0.00    +0.220 C 
ENDROOT
BRANCH   1   2
ATOM      2  O   UNL     1     -34.897  27.312   4.362  0.00  0.00    -0.226 OA
BRANCH   2   3
ATOM      3  S   UNL     1     -34.097  26.119   5.136  0.00  0.00    +0.049 S 
ATOM      4  O   UNL     1     -33.701  26.600   6.446  0.00  0.00    -0.056 OA
ATOM      5  O   UNL     1     -33.087  25.621   4.219  0.00  0.00    -0.056 OA
BRANCH   3   6
ATOM      6  N   UNL     1     -35.277  24.887   5.363  0.00  0.00    -0.178 NA
ATOM      7  C   UNL     1     -34.812  23.486   5.339  0.00  0.00    +0.110 C 
ATOM      8  H   UNL     1     -35.973  24.991   4.624  0.00  0.00    +0.149 HD
ENDBRANCH   3   6
ENDBRANCH   2   3
ENDBRANCH   1   2
BRANCH   1   9
ATOM      9  C   UNL     1     -34.502  28.766   2.508  0.00  0.00    +0.240 C 
BRANCH   9  10
ATOM     10  O   UNL     1     -34.371  29.579   3.669  0.00  0.00    -0.470 OA
BRANCH  10  11
ATOM     11  C   UNL     1     -33.354  30.496   3.667  0.00  0.00    +0.172 C 
ATOM     12  C   UNL     1     -32.378  30.476   4.664  0.00  0.00    +0.172 C 
ATOM     13  C   UNL     1     -33.299  31.458   2.658  0.00  0.00    +0.040 C 
ATOM     14  C   UNL     1     -31.348  31.416   4.651  0.00  0.00    +0.040 C 
ATOM     15  C   UNL     1     -32.270  32.398   2.645  0.00  0.00    +0.003 C 
ATOM     16  C   UNL     1     -31.294  32.378   3.642  0.00  0.00    +0.003 C 
BRANCH  12  17
ATOM     17  O   UNL     1     -32.420  29.542   5.654  0.00  0.00    -0.468 OA
ATOM     18  C   UNL     1     -31.412  29.618   6.661  0.00  0.00    +0.253 C 
ENDBRANCH  12  17
ENDBRANCH  10  11
ENDBRANCH   9  10
ENDBRANCH   1   9
BRANCH   1  19
ATOM     19  C   UNL     1     -36.269  26.975   2.419  0.00  0.00    +0.210 C 
BRANCH  19  20
ATOM     20  O   UNL     1     -36.446  25.570   2.506  0.00  0.00    -0.227 OA
BRANCH  20  21
ATOM     21  S   UNL     1     -37.934  24.954   2.794  0.00  0.00    +0.049 S 
ATOM     22  O   UNL     1     -38.398  24.345   1.560  0.00  0.00    -0.056 OA
ATOM     23  O   UNL     1     -37.875  24.159   4.007  0.00  0.00    -0.056 OA
BRANCH  21  24
ATOM     24  N   UNL     1     -38.913  26.333   3.117  0.00  0.00    -0.178 NA
ATOM     25  C   UNL     1     -40.373  26.180   2.972  0.00  0.00    +0.110 C 
ATOM     26  H   UNL     1     -38.618  27.074   2.479  0.00  0.00    +0.149 HD
ENDBRANCH  21  24
ENDBRANCH  20  21
ENDBRANCH  19  20
ENDBRANCH   1  19
TORSDOF 11
ENDMDL
