MODEL 1
REMARK VINA RESULT:      -7.1      0.000      0.000
REMARK  Name = 54674134
REMARK  4 active torsions:
REMARK  status: ('A' for Active; 'I' for Inactive)
REMARK    1  A    between atoms: C_2  and  S_11
REMARK    2  A    between atoms: C_7  and  N_17
REMARK    3  A    between atoms: S_11  and  C_14
REMARK    4  A    between atoms: N_17  and  C_21
REMARK                            x       y       z     vdW  Elec       q    Type
REMARK                         _______ _______ _______ _____ _____    ______ ____
ROOT
ATOM      1  N   UNL     1     -38.592  20.660   0.134  0.00  0.00    -0.248 NA
ATOM      2  C   UNL     1     -36.921  22.868   3.250  0.00  0.00    +0.084 C 
ATOM      3  C   UNL     1     -36.804  20.990   1.716  0.00  0.00    +0.011 C 
ATOM      4  C   UNL     1     -36.255  21.746   2.766  0.00  0.00    +0.073 C 
ATOM      5  C   UNL     1     -38.137  23.239   2.688  0.00  0.00    -0.006 C 
ATOM      6  C   UNL     1     -38.038  21.361   1.141  0.00  0.00    +0.061 C 
ATOM      7  C   UNL     1     -36.154  19.857   1.208  0.00  0.00    +0.047 C 
ATOM      8  C   UNL     1     -38.683  22.487   1.644  0.00  0.00    +0.072 C 
ATOM      9  C   UNL     1     -36.723  19.132   0.171  0.00  0.00    +0.035 C 
ATOM     10  C   UNL     1     -37.932  19.572  -0.327  0.00  0.00    +0.100 C 
ENDROOT
BRANCH   2  11
ATOM     11  S   UNL     1     -36.235  23.802   4.554  0.00  0.00    +0.003 S 
ATOM     12  O   UNL     1     -37.069  24.976   4.783  0.00  0.00    -0.169 OA
ATOM     13  O   UNL     1     -35.949  22.894   5.655  0.00  0.00    -0.169 OA
BRANCH  11  14
ATOM     14  C   UNL     1     -34.684  24.388   3.912  0.00  0.00    +0.134 C 
ATOM     15  C   UNL     1     -33.999  25.289   4.928  0.00  0.00    +0.026 C 
ATOM     16  C   UNL     1     -34.898  25.105   2.587  0.00  0.00    +0.026 C 
ENDBRANCH  11  14
ENDBRANCH   2  11
BRANCH   7  17
ATOM     17  N   UNL     1     -34.915  19.414   1.727  0.00  0.00    -0.313 N 
ATOM     18  H   UNL     1     -34.972  19.054   2.642  0.00  0.00    +0.152 HD
BRANCH  17  21
ATOM     19  S   UNL     1     -29.436  19.046  -0.398  0.00  0.00    -0.105 S 
ATOM     20  N   UNL     1     -30.558  17.236   1.057  0.00  0.00    -0.262 NA
ATOM     21  C   UNL     1     -33.616  19.387   1.191  0.00  0.00    +0.049 C 
ATOM     22  C   UNL     1     -32.791  18.287   1.436  0.00  0.00    +0.030 C 
ATOM     23  C   UNL     1     -33.162  20.453   0.422  0.00  0.00    +0.011 C 
ATOM     24  C   UNL     1     -31.485  18.256   0.899  0.00  0.00    +0.070 C 
ATOM     25  C   UNL     1     -31.052  19.340   0.129  0.00  0.00    +0.111 C 
ATOM     26  C   UNL     1     -31.875  20.449  -0.121  0.00  0.00    -0.008 C 
ATOM     27  C   UNL     1     -29.452  17.544   0.421  0.00  0.00    +0.183 C 
ENDBRANCH  17  21
ENDBRANCH   7  17
TORSDOF 4
ENDMDL
MODEL 2
REMARK VINA RESULT:      -6.9      1.061      1.525
REMARK  Name = 54674134
REMARK  4 active torsions:
REMARK  status: ('A' for Active; 'I' for Inactive)
REMARK    1  A    between atoms: C_2  and  S_11
REMARK    2  A    between atoms: C_7  and  N_17
REMARK    3  A    between atoms: S_11  and  C_14
REMARK    4  A    between atoms: N_17  and  C_21
REMARK                            x       y       z     vdW  Elec       q    Type
REMARK                         _______ _______ _______ _____ _____    ______ ____
ROOT
ATOM      1  N   UNL     1     -38.270  20.251   0.010  0.00  0.00    -0.248 NA
ATOM      2  C   UNL     1     -36.860  22.609   3.145  0.00  0.00    +0.084 C 
ATOM      3  C   UNL     1     -36.558  20.731   1.636  0.00  0.00    +0.011 C 
ATOM      4  C   UNL     1     -36.097  21.537   2.692  0.00  0.00    +0.073 C 
ATOM      5  C   UNL     1     -38.084  22.881   2.546  0.00  0.00    -0.006 C 
ATOM      6  C   UNL     1     -37.799  21.002   1.024  0.00  0.00    +0.061 C 
ATOM      7  C   UNL     1     -35.809  19.646   1.161  0.00  0.00    +0.047 C 
ATOM      8  C   UNL     1     -38.542  22.080   1.496  0.00  0.00    +0.072 C 
ATOM      9  C   UNL     1     -36.292  18.870   0.117  0.00  0.00    +0.035 C 
ATOM     10  C   UNL     1     -37.517  19.212  -0.419  0.00  0.00    +0.100 C 
ENDROOT
BRANCH   2  11
ATOM     11  S   UNL     1     -36.284  23.606   4.456  0.00  0.00    +0.003 S 
ATOM     12  O   UNL     1     -37.161  24.763   4.590  0.00  0.00    -0.169 OA
ATOM     13  O   UNL     1     -36.044  22.744   5.604  0.00  0.00    -0.169 OA
BRANCH  11  14
ATOM     14  C   UNL     1     -34.710  24.215   3.892  0.00  0.00    +0.134 C 
ATOM     15  C   UNL     1     -34.098  25.139   4.934  0.00  0.00    +0.026 C 
ATOM     16  C   UNL     1     -34.865  24.914   2.550  0.00  0.00    +0.026 C 
ENDBRANCH  11  14
ENDBRANCH   2  11
BRANCH   7  17
ATOM     17  N   UNL     1     -34.555  19.304   1.718  0.00  0.00    -0.313 N 
ATOM     18  H   UNL     1     -34.595  19.067   2.673  0.00  0.00    +0.152 HD
BRANCH  17  21
ATOM     19  S   UNL     1     -29.174  19.280  -0.672  0.00  0.00    -0.105 S 
ATOM     20  N   UNL     1     -30.856  21.223  -0.892  0.00  0.00    -0.262 NA
ATOM     21  C   UNL     1     -33.261  19.236   1.174  0.00  0.00    +0.049 C 
ATOM     22  C   UNL     1     -32.772  20.307   0.420  0.00  0.00    +0.030 C 
ATOM     23  C   UNL     1     -32.478  18.107   1.388  0.00  0.00    +0.011 C 
ATOM     24  C   UNL     1     -31.472  20.242  -0.127  0.00  0.00    +0.070 C 
ATOM     25  C   UNL     1     -30.704  19.097   0.102  0.00  0.00    +0.111 C 
ATOM     26  C   UNL     1     -31.189  18.017   0.857  0.00  0.00    -0.008 C 
ATOM     27  C   UNL     1     -29.652  20.825  -1.230  0.00  0.00    +0.183 C 
ENDBRANCH  17  21
ENDBRANCH   7  17
TORSDOF 4
ENDMDL
MODEL 3
REMARK VINA RESULT:      -6.9      6.273      7.969
REMARK  Name = 54674134
REMARK  4 active torsions:
REMARK  status: ('A' for Active; 'I' for Inactive)
REMARK    1  A    between atoms: C_2  and  S_11
REMARK    2  A    between atoms: C_7  and  N_17
REMARK    3  A    between atoms: S_11  and  C_14
REMARK    4  A    between atoms: N_17  and  C_21
REMARK                            x       y       z     vdW  Elec       q    Type
REMARK                         _______ _______ _______ _____ _____    ______ ____
ROOT
ATOM      1  N   UNL     1     -41.003  23.335   0.737  0.00  0.00    -0.248 NA
ATOM      2  C   UNL     1     -42.118  26.924   2.539  0.00  0.00    +0.084 C 
ATOM      3  C   UNL     1     -40.572  25.061   2.362  0.00  0.00    +0.011 C 
ATOM      4  C   UNL     1     -40.962  26.272   2.959  0.00  0.00    +0.073 C 
ATOM      5  C   UNL     1     -42.887  26.370   1.524  0.00  0.00    -0.006 C 
ATOM      6  C   UNL     1     -41.348  24.493   1.330  0.00  0.00    +0.061 C 
ATOM      7  C   UNL     1     -39.412  24.385   2.765  0.00  0.00    +0.047 C 
ATOM      8  C   UNL     1     -42.499  25.165   0.930  0.00  0.00    +0.072 C 
ATOM      9  C   UNL     1     -39.054  23.190   2.155  0.00  0.00    +0.035 C 
ATOM     10  C   UNL     1     -39.876  22.713   1.155  0.00  0.00    +0.100 C 
ENDROOT
BRANCH   2  11
ATOM     11  S   UNL     1     -42.599  28.428   3.284  0.00  0.00    +0.003 S 
ATOM     12  O   UNL     1     -41.912  28.561   4.563  0.00  0.00    -0.169 OA
ATOM     13  O   UNL     1     -42.479  29.481   2.286  0.00  0.00    -0.169 OA
BRANCH  11  14
ATOM     14  C   UNL     1     -44.327  28.211   3.645  0.00  0.00    +0.134 C 
ATOM     15  C   UNL     1     -44.923  29.510   4.167  0.00  0.00    +0.026 C 
ATOM     16  C   UNL     1     -44.520  27.073   4.636  0.00  0.00    +0.026 C 
ENDBRANCH  11  14
ENDBRANCH   2  11
BRANCH   7  17
ATOM     17  N   UNL     1     -38.576  24.883   3.791  0.00  0.00    -0.313 N 
ATOM     18  H   UNL     1     -38.944  24.761   4.697  0.00  0.00    +0.152 HD
BRANCH  17  21
ATOM     19  S   UNL     1     -33.289  27.468   3.981  0.00  0.00    -0.105 S 
ATOM     20  N   UNL     1     -34.369  26.213   5.960  0.00  0.00    -0.262 NA
ATOM     21  C   UNL     1     -37.323  25.519   3.772  0.00  0.00    +0.049 C 
ATOM     22  C   UNL     1     -36.525  25.507   4.919  0.00  0.00    +0.030 C 
ATOM     23  C   UNL     1     -36.887  26.155   2.615  0.00  0.00    +0.011 C 
ATOM     24  C   UNL     1     -35.266  26.144   4.903  0.00  0.00    +0.070 C 
ATOM     25  C   UNL     1     -34.849  26.777   3.727  0.00  0.00    +0.111 C 
ATOM     26  C   UNL     1     -35.646  26.794   2.572  0.00  0.00    -0.008 C 
ATOM     27  C   UNL     1     -33.302  26.882   5.588  0.00  0.00    +0.183 C 
ENDBRANCH  17  21
ENDBRANCH   7  17
TORSDOF 4
ENDMDL
MODEL 4
REMARK VINA RESULT:      -6.7      3.798      6.670
REMARK  Name = 54674134
REMARK  4 active torsions:
REMARK  status: ('A' for Active; 'I' for Inactive)
REMARK    1  A    between atoms: C_2  and  S_11
REMARK    2  A    between atoms: C_7  and  N_17
REMARK    3  A    between atoms: S_11  and  C_14
REMARK    4  A    between atoms: N_17  and  C_21
REMARK                            x       y       z     vdW  Elec       q    Type
REMARK                         _______ _______ _______ _____ _____    ______ ____
ROOT
ATOM      1  N   UNL     1     -40.975  23.715   1.121  0.00  0.00    -0.248 NA
ATOM      2  C   UNL     1     -37.538  21.402   1.583  0.00  0.00    +0.084 C 
ATOM      3  C   UNL     1     -38.885  23.309   2.250  0.00  0.00    +0.011 C 
ATOM      4  C   UNL     1     -37.732  22.518   2.392  0.00  0.00    +0.073 C 
ATOM      5  C   UNL     1     -38.493  21.072   0.630  0.00  0.00    -0.006 C 
ATOM      6  C   UNL     1     -39.859  22.979   1.284  0.00  0.00    +0.061 C 
ATOM      7  C   UNL     1     -39.105  24.437   3.052  0.00  0.00    +0.047 C 
ATOM      8  C   UNL     1     -39.641  21.859   0.488  0.00  0.00    +0.072 C 
ATOM      9  C   UNL     1     -40.254  25.197   2.886  0.00  0.00    +0.035 C 
ATOM     10  C   UNL     1     -41.150  24.796   1.916  0.00  0.00    +0.100 C 
ENDROOT
BRANCH   2  11
ATOM     11  S   UNL     1     -36.104  20.424   1.764  0.00  0.00    +0.003 S 
ATOM     12  O   UNL     1     -35.648  20.507   3.146  0.00  0.00    -0.169 OA
ATOM     13  O   UNL     1     -36.370  19.122   1.168  0.00  0.00    -0.169 OA
BRANCH  11  14
ATOM     14  C   UNL     1     -34.880  21.241   0.765  0.00  0.00    +0.134 C 
ATOM     15  C   UNL     1     -33.607  20.410   0.706  0.00  0.00    +0.026 C 
ATOM     16  C   UNL     1     -34.608  22.638   1.304  0.00  0.00    +0.026 C 
ENDBRANCH  11  14
ENDBRANCH   2  11
BRANCH   7  17
ATOM     17  N   UNL     1     -38.180  24.838   4.044  0.00  0.00    -0.313 N 
ATOM     18  H   UNL     1     -38.446  24.591   4.960  0.00  0.00    +0.152 HD
BRANCH  17  21
ATOM     19  S   UNL     1     -33.000  27.636   4.042  0.00  0.00    -0.105 S 
ATOM     20  N   UNL     1     -33.992  26.411   6.084  0.00  0.00    -0.262 NA
ATOM     21  C   UNL     1     -36.955  25.522   3.978  0.00  0.00    +0.049 C 
ATOM     22  C   UNL     1     -36.137  25.583   5.110  0.00  0.00    +0.030 C 
ATOM     23  C   UNL     1     -36.565  26.133   2.791  0.00  0.00    +0.011 C 
ATOM     24  C   UNL     1     -34.904  26.268   5.047  0.00  0.00    +0.070 C 
ATOM     25  C   UNL     1     -34.534  26.875   3.842  0.00  0.00    +0.111 C 
ATOM     26  C   UNL     1     -35.352  26.819   2.702  0.00  0.00    -0.008 C 
ATOM     27  C   UNL     1     -32.960  27.107   5.669  0.00  0.00    +0.183 C 
ENDBRANCH  17  21
ENDBRANCH   7  17
TORSDOF 4
ENDMDL
MODEL 5
REMARK VINA RESULT:      -6.4      3.073      6.639
REMARK  Name = 54674134
REMARK  4 active torsions:
REMARK  status: ('A' for Active; 'I' for Inactive)
REMARK    1  A    between atoms: C_2  and  S_11
REMARK    2  A    between atoms: C_7  and  N_17
REMARK    3  A    between atoms: S_11  and  C_14
REMARK    4  A    between atoms: N_17  and  C_21
REMARK                            x       y       z     vdW  Elec       q    Type
REMARK                         _______ _______ _______ _____ _____    ______ ____
ROOT
ATOM      1  N   UNL     1     -37.718  20.097  -0.547  0.00  0.00    -0.248 NA
ATOM      2  C   UNL     1     -33.946  18.476   0.174  0.00  0.00    +0.084 C 
ATOM      3  C   UNL     1     -35.841  19.789   0.933  0.00  0.00    +0.011 C 
ATOM      4  C   UNL     1     -34.570  19.235   1.160  0.00  0.00    +0.073 C 
ATOM      5  C   UNL     1     -34.589  18.267  -1.040  0.00  0.00    -0.006 C 
ATOM      6  C   UNL     1     -36.500  19.581  -0.296  0.00  0.00    +0.061 C 
ATOM      7  C   UNL     1     -36.492  20.557   1.909  0.00  0.00    +0.047 C 
ATOM      8  C   UNL     1     -35.854  18.818  -1.265  0.00  0.00    +0.072 C 
ATOM      9  C   UNL     1     -37.748  21.090   1.654  0.00  0.00    +0.035 C 
ATOM     10  C   UNL     1     -38.312  20.832   0.422  0.00  0.00    +0.100 C 
ENDROOT
BRANCH   2  11
ATOM     11  S   UNL     1     -32.367  17.790   0.460  0.00  0.00    +0.003 S 
ATOM     12  O   UNL     1     -32.061  17.887   1.882  0.00  0.00    -0.169 OA
ATOM     13  O   UNL     1     -32.312  16.497  -0.204  0.00  0.00    -0.169 OA
BRANCH  11  14
ATOM     14  C   UNL     1     -31.248  18.886  -0.384  0.00  0.00    +0.134 C 
ATOM     15  C   UNL     1     -29.814  18.598   0.033  0.00  0.00    +0.026 C 
ATOM     16  C   UNL     1     -31.626  20.335  -0.115  0.00  0.00    +0.026 C 
ENDBRANCH  11  14
ENDBRANCH   2  11
BRANCH   7  17
ATOM     17  N   UNL     1     -35.904  20.815   3.169  0.00  0.00    -0.313 N 
ATOM     18  H   UNL     1     -35.725  20.003   3.699  0.00  0.00    +0.152 HD
BRANCH  17  21
ATOM     19  S   UNL     1     -34.278  25.919   5.614  0.00  0.00    -0.105 S 
ATOM     20  N   UNL     1     -34.419  25.501   3.072  0.00  0.00    -0.262 NA
ATOM     21  C   UNL     1     -35.524  22.005   3.814  0.00  0.00    +0.049 C 
ATOM     22  C   UNL     1     -35.173  23.121   3.051  0.00  0.00    +0.030 C 
ATOM     23  C   UNL     1     -35.501  22.063   5.203  0.00  0.00    +0.011 C 
ATOM     24  C   UNL     1     -34.792  24.318   3.695  0.00  0.00    +0.070 C 
ATOM     25  C   UNL     1     -34.776  24.352   5.093  0.00  0.00    +0.111 C 
ATOM     26  C   UNL     1     -35.127  23.234   5.866  0.00  0.00    -0.008 C 
ATOM     27  C   UNL     1     -34.130  26.404   3.980  0.00  0.00    +0.183 C 
ENDBRANCH  17  21
ENDBRANCH   7  17
TORSDOF 4
ENDMDL
MODEL 6
REMARK VINA RESULT:      -6.3      4.471      6.996
REMARK  Name = 54674134
REMARK  4 active torsions:
REMARK  status: ('A' for Active; 'I' for Inactive)
REMARK    1  A    between atoms: C_2  and  S_11
REMARK    2  A    between atoms: C_7  and  N_17
REMARK    3  A    between atoms: S_11  and  C_14
REMARK    4  A    between atoms: N_17  and  C_21
REMARK                            x       y       z     vdW  Elec       q    Type
REMARK                         _______ _______ _______ _____ _____    ______ ____
ROOT
ATOM      1  N   UNL     1     -37.073  21.156   2.073  0.00  0.00    -0.248 NA
ATOM      2  C   UNL     1     -39.598  24.468   2.232  0.00  0.00    +0.084 C 
ATOM      3  C   UNL     1     -37.589  23.328   2.979  0.00  0.00    +0.011 C 
ATOM      4  C   UNL     1     -38.452  24.437   3.020  0.00  0.00    +0.073 C 
ATOM      5  C   UNL     1     -39.888  23.394   1.400  0.00  0.00    -0.006 C 
ATOM      6  C   UNL     1     -37.877  22.234   2.137  0.00  0.00    +0.061 C 
ATOM      7  C   UNL     1     -36.428  23.272   3.761  0.00  0.00    +0.047 C 
ATOM      8  C   UNL     1     -39.030  22.290   1.359  0.00  0.00    +0.072 C 
ATOM      9  C   UNL     1     -35.597  22.162   3.698  0.00  0.00    +0.035 C 
ATOM     10  C   UNL     1     -35.962  21.141   2.845  0.00  0.00    +0.100 C 
ENDROOT
BRANCH   2  11
ATOM     11  S   UNL     1     -40.666  25.848   2.287  0.00  0.00    +0.003 S 
ATOM     12  O   UNL     1     -41.198  25.979   3.637  0.00  0.00    -0.169 OA
ATOM     13  O   UNL     1     -39.979  26.973   1.669  0.00  0.00    -0.169 OA
BRANCH  11  14
ATOM     14  C   UNL     1     -42.028  25.397   1.236  0.00  0.00    +0.134 C 
ATOM     15  C   UNL     1     -41.857  26.015  -0.144  0.00  0.00    +0.026 C 
ATOM     16  C   UNL     1     -43.346  25.813   1.873  0.00  0.00    +0.026 C 
ENDBRANCH  11  14
ENDBRANCH   2  11
BRANCH   7  17
ATOM     17  N   UNL     1     -36.064  24.325   4.633  0.00  0.00    -0.313 N 
ATOM     18  H   UNL     1     -36.596  24.357   5.461  0.00  0.00    +0.152 HD
BRANCH  17  21
ATOM     19  S   UNL     1     -31.945  28.531   4.557  0.00  0.00    -0.105 S 
ATOM     20  N   UNL     1     -32.682  27.253   6.673  0.00  0.00    -0.262 NA
ATOM     21  C   UNL     1     -35.091  25.336   4.547  0.00  0.00    +0.049 C 
ATOM     22  C   UNL     1     -34.412  25.738   5.700  0.00  0.00    +0.030 C 
ATOM     23  C   UNL     1     -34.812  25.926   3.320  0.00  0.00    +0.011 C 
ATOM     24  C   UNL     1     -33.433  26.753   5.619  0.00  0.00    +0.070 C 
ATOM     25  C   UNL     1     -33.170  27.332   4.373  0.00  0.00    +0.111 C 
ATOM     26  C   UNL     1     -33.850  26.933   3.211  0.00  0.00    -0.008 C 
ATOM     27  C   UNL     1     -31.872  28.186   6.231  0.00  0.00    +0.183 C 
ENDBRANCH  17  21
ENDBRANCH   7  17
TORSDOF 4
ENDMDL
MODEL 7
REMARK VINA RESULT:      -6.3      3.440      6.282
REMARK  Name = 54674134
REMARK  4 active torsions:
REMARK  status: ('A' for Active; 'I' for Inactive)
REMARK    1  A    between atoms: C_2  and  S_11
REMARK    2  A    between atoms: C_7  and  N_17
REMARK    3  A    between atoms: S_11  and  C_14
REMARK    4  A    between atoms: N_17  and  C_21
REMARK                            x       y       z     vdW  Elec       q    Type
REMARK                         _______ _______ _______ _____ _____    ______ ____
ROOT
ATOM      1  N   UNL     1     -35.013  19.252  -0.405  0.00  0.00    -0.248 NA
ATOM      2  C   UNL     1     -38.767  20.988   0.115  0.00  0.00    +0.084 C 
ATOM      3  C   UNL     1     -36.589  20.400   1.012  0.00  0.00    +0.011 C 
ATOM      4  C   UNL     1     -37.859  20.981   1.170  0.00  0.00    +0.073 C 
ATOM      5  C   UNL     1     -38.411  20.416  -1.100  0.00  0.00    -0.006 C 
ATOM      6  C   UNL     1     -36.221  19.818  -0.219  0.00  0.00    +0.061 C 
ATOM      7  C   UNL     1     -35.655  20.380   2.057  0.00  0.00    +0.047 C 
ATOM      8  C   UNL     1     -37.148  19.838  -1.257  0.00  0.00    +0.072 C 
ATOM      9  C   UNL     1     -34.410  19.798   1.869  0.00  0.00    +0.035 C 
ATOM     10  C   UNL     1     -34.141  19.254   0.630  0.00  0.00    +0.100 C 
ENDROOT
BRANCH   2  11
ATOM     11  S   UNL     1     -40.343  21.710   0.317  0.00  0.00    +0.003 S 
ATOM     12  O   UNL     1     -41.360  20.681   0.143  0.00  0.00    -0.169 OA
ATOM     13  O   UNL     1     -40.320  22.505   1.537  0.00  0.00    -0.169 OA
BRANCH  11  14
ATOM     14  C   UNL     1     -40.498  22.827  -1.059  0.00  0.00    +0.134 C 
ATOM     15  C   UNL     1     -39.904  24.183  -0.707  0.00  0.00    +0.026 C 
ATOM     16  C   UNL     1     -41.956  22.950  -1.476  0.00  0.00    +0.026 C 
ENDBRANCH  11  14
ENDBRANCH   2  11
BRANCH   7  17
ATOM     17  N   UNL     1     -35.942  20.940   3.324  0.00  0.00    -0.313 N 
ATOM     18  H   UNL     1     -36.543  20.388   3.876  0.00  0.00    +0.152 HD
BRANCH  17  21
ATOM     19  S   UNL     1     -34.207  26.049   5.681  0.00  0.00    -0.105 S 
ATOM     20  N   UNL     1     -34.339  25.585   3.148  0.00  0.00    -0.262 NA
ATOM     21  C   UNL     1     -35.538  22.132   3.949  0.00  0.00    +0.049 C 
ATOM     22  C   UNL     1     -35.152  23.224   3.166  0.00  0.00    +0.030 C 
ATOM     23  C   UNL     1     -35.524  22.217   5.336  0.00  0.00    +0.011 C 
ATOM     24  C   UNL     1     -34.746  24.424   3.790  0.00  0.00    +0.070 C 
ATOM     25  C   UNL     1     -34.741  24.485   5.188  0.00  0.00    +0.111 C 
ATOM     26  C   UNL     1     -35.126  23.392   5.979  0.00  0.00    -0.008 C 
ATOM     27  C   UNL     1     -34.034  26.498   4.040  0.00  0.00    +0.183 C 
ENDBRANCH  17  21
ENDBRANCH   7  17
TORSDOF 4
ENDMDL
MODEL 8
REMARK VINA RESULT:      -6.3      2.290      3.110
REMARK  Name = 54674134
REMARK  4 active torsions:
REMARK  status: ('A' for Active; 'I' for Inactive)
REMARK    1  A    between atoms: C_2  and  S_11
REMARK    2  A    between atoms: C_7  and  N_17
REMARK    3  A    between atoms: S_11  and  C_14
REMARK    4  A    between atoms: N_17  and  C_21
REMARK                            x       y       z     vdW  Elec       q    Type
REMARK                         _______ _______ _______ _____ _____    ______ ____
ROOT
ATOM      1  N   UNL     1     -40.032  23.839   1.234  0.00  0.00    -0.248 NA
ATOM      2  C   UNL     1     -36.865  24.541   3.851  0.00  0.00    +0.084 C 
ATOM      3  C   UNL     1     -38.137  23.005   2.468  0.00  0.00    +0.011 C 
ATOM      4  C   UNL     1     -37.074  23.259   3.351  0.00  0.00    +0.073 C 
ATOM      5  C   UNL     1     -37.715  25.572   3.472  0.00  0.00    -0.006 C 
ATOM      6  C   UNL     1     -39.004  24.047   2.078  0.00  0.00    +0.061 C 
ATOM      7  C   UNL     1     -38.370  21.724   1.948  0.00  0.00    +0.047 C 
ATOM      8  C   UNL     1     -38.772  25.319   2.593  0.00  0.00    +0.072 C 
ATOM      9  C   UNL     1     -39.429  21.506   1.078  0.00  0.00    +0.035 C 
ATOM     10  C   UNL     1     -40.223  22.587   0.756  0.00  0.00    +0.100 C 
ENDROOT
BRANCH   2  11
ATOM     11  S   UNL     1     -35.543  24.851   4.948  0.00  0.00    +0.003 S 
ATOM     12  O   UNL     1     -35.936  25.906   5.874  0.00  0.00    -0.169 OA
ATOM     13  O   UNL     1     -35.079  23.572   5.465  0.00  0.00    -0.169 OA
BRANCH  11  14
ATOM     14  C   UNL     1     -34.259  25.522   3.916  0.00  0.00    +0.134 C 
ATOM     15  C   UNL     1     -34.449  27.022   3.747  0.00  0.00    +0.026 C 
ATOM     16  C   UNL     1     -34.235  24.809   2.572  0.00  0.00    +0.026 C 
ENDBRANCH  11  14
ENDBRANCH   2  11
BRANCH   7  17
ATOM     17  N   UNL     1     -37.551  20.622   2.287  0.00  0.00    -0.313 N 
ATOM     18  H   UNL     1     -37.807  20.179   3.129  0.00  0.00    +0.152 HD
BRANCH  17  21
ATOM     19  S   UNL     1     -33.080  18.047  -0.550  0.00  0.00    -0.105 S 
ATOM     20  N   UNL     1     -35.554  17.856  -1.254  0.00  0.00    -0.262 NA
ATOM     21  C   UNL     1     -36.441  20.034   1.656  0.00  0.00    +0.049 C 
ATOM     22  C   UNL     1     -36.632  19.248   0.516  0.00  0.00    +0.030 C 
ATOM     23  C   UNL     1     -35.164  20.238   2.168  0.00  0.00    +0.011 C 
ATOM     24  C   UNL     1     -35.519  18.657  -0.121  0.00  0.00    +0.070 C 
ATOM     25  C   UNL     1     -34.245  18.877   0.413  0.00  0.00    +0.111 C 
ATOM     26  C   UNL     1     -34.047  19.665   1.557  0.00  0.00    -0.008 C 
ATOM     27  C   UNL     1     -34.335  17.483  -1.566  0.00  0.00    +0.183 C 
ENDBRANCH  17  21
ENDBRANCH   7  17
TORSDOF 4
ENDMDL
MODEL 9
REMARK VINA RESULT:      -6.3      4.111      7.234
REMARK  Name = 54674134
REMARK  4 active torsions:
REMARK  status: ('A' for Active; 'I' for Inactive)
REMARK    1  A    between atoms: C_2  and  S_11
REMARK    2  A    between atoms: C_7  and  N_17
REMARK    3  A    between atoms: S_11  and  C_14
REMARK    4  A    between atoms: N_17  and  C_21
REMARK                            x       y       z     vdW  Elec       q    Type
REMARK                         _______ _______ _______ _____ _____    ______ ____
ROOT
ATOM      1  N   UNL     1     -35.225  20.855   5.003  0.00  0.00    -0.248 NA
ATOM      2  C   UNL     1     -35.426  22.478   1.168  0.00  0.00    +0.084 C 
ATOM      3  C   UNL     1     -35.432  22.787   3.576  0.00  0.00    +0.011 C 
ATOM      4  C   UNL     1     -35.498  23.317   2.277  0.00  0.00    +0.073 C 
ATOM      5  C   UNL     1     -35.288  21.108   1.354  0.00  0.00    -0.006 C 
ATOM      6  C   UNL     1     -35.291  21.397   3.772  0.00  0.00    +0.061 C 
ATOM      7  C   UNL     1     -35.500  23.609   4.709  0.00  0.00    +0.047 C 
ATOM      8  C   UNL     1     -35.222  20.580   2.647  0.00  0.00    +0.072 C 
ATOM      9  C   UNL     1     -35.432  23.054   5.979  0.00  0.00    +0.035 C 
ATOM     10  C   UNL     1     -35.295  21.684   6.070  0.00  0.00    +0.100 C 
ENDROOT
BRANCH   2  11
ATOM     11  S   UNL     1     -35.509  23.141  -0.444  0.00  0.00    +0.003 S 
ATOM     12  O   UNL     1     -35.142  22.104  -1.400  0.00  0.00    -0.169 OA
ATOM     13  O   UNL     1     -36.783  23.832  -0.580  0.00  0.00    -0.169 OA
BRANCH  11  14
ATOM     14  C   UNL     1     -34.218  24.364  -0.487  0.00  0.00    +0.134 C 
ATOM     15  C   UNL     1     -34.286  25.156  -1.784  0.00  0.00    +0.026 C 
ATOM     16  C   UNL     1     -32.859  23.703  -0.309  0.00  0.00    +0.026 C 
ENDBRANCH  11  14
ENDBRANCH   2  11
BRANCH   7  17
ATOM     17  N   UNL     1     -35.641  25.012   4.604  0.00  0.00    -0.313 N 
ATOM     18  H   UNL     1     -36.578  25.318   4.594  0.00  0.00    +0.152 HD
BRANCH  17  21
ATOM     19  S   UNL     1     -31.621  29.312   4.471  0.00  0.00    -0.105 S 
ATOM     20  N   UNL     1     -31.917  27.656   6.426  0.00  0.00    -0.262 NA
ATOM     21  C   UNL     1     -34.705  26.057   4.511  0.00  0.00    +0.049 C 
ATOM     22  C   UNL     1     -33.808  26.274   5.560  0.00  0.00    +0.030 C 
ATOM     23  C   UNL     1     -34.679  26.864   3.379  0.00  0.00    +0.011 C 
ATOM     24  C   UNL     1     -32.866  27.322   5.469  0.00  0.00    +0.070 C 
ATOM     25  C   UNL     1     -32.859  28.121   4.321  0.00  0.00    +0.111 C 
ATOM     26  C   UNL     1     -33.758  27.908   3.264  0.00  0.00    -0.008 C 
ATOM     27  C   UNL     1     -31.213  28.681   6.007  0.00  0.00    +0.183 C 
ENDBRANCH  17  21
ENDBRANCH   7  17
TORSDOF 4
ENDMDL
