MODEL 1
REMARK VINA RESULT:      -6.6      0.000      0.000
REMARK  Name = 195280
REMARK  2 active torsions:
REMARK  status: ('A' for Active; 'I' for Inactive)
REMARK    1  A    between atoms: C_8  and  S_19
REMARK    2  A    between atoms: S_19  and  N_22
REMARK                            x       y       z     vdW  Elec       q    Type
REMARK                         _______ _______ _______ _____ _____    ______ ____
ROOT
ATOM      1  O   UNL     1     -32.746  27.726   7.100  0.00  0.00    -0.262 OA
ATOM      2  O   UNL     1     -32.460  29.037   4.821  0.00  0.00    -0.262 OA
ATOM      3  N   UNL     1     -33.651  25.903   6.010  0.00  0.00    -0.316 N 
ATOM      4  N   UNL     1     -33.357  27.273   3.631  0.00  0.00    -0.316 N 
ATOM      5  C   UNL     1     -34.619  23.971   4.816  0.00  0.00    +0.018 C 
ATOM      6  C   UNL     1     -35.008  23.409   3.572  0.00  0.00    +0.020 C 
ATOM      7  C   UNL     1     -34.061  25.279   4.817  0.00  0.00    +0.075 A 
ATOM      8  C   UNL     1     -35.564  22.120   3.521  0.00  0.00    +0.122 C 
ATOM      9  C   UNL     1     -33.906  25.986   3.622  0.00  0.00    +0.075 A 
ATOM     10  C   UNL     1     -34.840  24.143   2.387  0.00  0.00    +0.003 C 
ATOM     11  C   UNL     1     -34.813  23.181   5.975  0.00  0.00    +0.002 C 
ATOM     12  C   UNL     1     -34.293  25.423   2.410  0.00  0.00    +0.019 C 
ATOM     13  C   UNL     1     -35.741  21.370   4.681  0.00  0.00    +0.020 C 
ATOM     14  C   UNL     1     -35.367  21.901   5.908  0.00  0.00    +0.001 C 
ATOM     15  C   UNL     1     -33.107  27.166   6.072  0.00  0.00    +0.314 A 
ATOM     16  C   UNL     1     -32.945  27.913   4.776  0.00  0.00    +0.314 A 
ATOM     17  H   UNL     1     -33.760  25.405   6.853  0.00  0.00    +0.169 HD
ATOM     18  H   UNL     1     -33.261  27.746   2.773  0.00  0.00    +0.169 HD
ENDROOT
BRANCH   8  19
ATOM     19  S   UNL     1     -36.073  21.349   2.024  0.00  0.00    +0.057 S 
ATOM     20  O   UNL     1     -37.164  22.130   1.470  0.00  0.00    -0.153 OA
ATOM     21  O   UNL     1     -34.887  21.081   1.231  0.00  0.00    -0.153 OA
BRANCH  19  22
ATOM     22  N   UNL     1     -36.688  19.875   2.625  0.00  0.00    -0.203 NA
ATOM     23  H   UNL     1     -36.048  19.500   3.325  0.00  0.00    +0.144 HD
ATOM     24  H   UNL     1     -36.783  19.209   1.859  0.00  0.00    +0.144 HD
ENDBRANCH  19  22
ENDBRANCH   8  19
TORSDOF 2
ENDMDL
MODEL 2
REMARK VINA RESULT:      -6.3      3.672      7.487
REMARK  Name = 195280
REMARK  2 active torsions:
REMARK  status: ('A' for Active; 'I' for Inactive)
REMARK    1  A    between atoms: C_8  and  S_19
REMARK    2  A    between atoms: S_19  and  N_22
REMARK                            x       y       z     vdW  Elec       q    Type
REMARK                         _______ _______ _______ _____ _____    ______ ____
ROOT
ATOM      1  O   UNL     1     -39.031  18.729  -0.953  0.00  0.00    -0.262 OA
ATOM      2  O   UNL     1     -36.740  17.482  -0.513  0.00  0.00    -0.262 OA
ATOM      3  N   UNL     1     -38.454  20.432   0.496  0.00  0.00    -0.316 N 
ATOM      4  N   UNL     1     -36.064  19.128   0.958  0.00  0.00    -0.316 N 
ATOM      5  C   UNL     1     -37.810  22.236   2.053  0.00  0.00    +0.018 C 
ATOM      6  C   UNL     1     -36.831  22.754   2.940  0.00  0.00    +0.020 C 
ATOM      7  C   UNL     1     -37.533  21.009   1.391  0.00  0.00    +0.075 A 
ATOM      8  C   UNL     1     -37.060  23.964   3.618  0.00  0.00    +0.122 C 
ATOM      9  C   UNL     1     -36.329  20.336   1.614  0.00  0.00    +0.075 A 
ATOM     10  C   UNL     1     -35.630  22.057   3.146  0.00  0.00    +0.003 C 
ATOM     11  C   UNL     1     -39.000  22.986   1.888  0.00  0.00    +0.002 C 
ATOM     12  C   UNL     1     -35.378  20.856   2.488  0.00  0.00    +0.019 C 
ATOM     13  C   UNL     1     -38.242  24.676   3.433  0.00  0.00    +0.020 C 
ATOM     14  C   UNL     1     -39.212  24.187   2.569  0.00  0.00    +0.001 C 
ATOM     15  C   UNL     1     -38.241  19.247  -0.172  0.00  0.00    +0.314 A 
ATOM     16  C   UNL     1     -36.939  18.536   0.078  0.00  0.00    +0.314 A 
ATOM     17  H   UNL     1     -39.303  20.905   0.338  0.00  0.00    +0.169 HD
ATOM     18  H   UNL     1     -35.207  18.678   1.138  0.00  0.00    +0.169 HD
ENDROOT
BRANCH   8  19
ATOM     19  S   UNL     1     -35.902  24.676   4.735  0.00  0.00    +0.057 S 
ATOM     20  O   UNL     1     -35.790  23.795   5.883  0.00  0.00    -0.153 OA
ATOM     21  O   UNL     1     -34.720  25.048   3.978  0.00  0.00    -0.153 OA
BRANCH  19  22
ATOM     22  N   UNL     1     -36.739  26.090   5.193  0.00  0.00    -0.203 NA
ATOM     23  H   UNL     1     -37.702  26.038   4.862  0.00  0.00    +0.144 HD
ATOM     24  H   UNL     1     -36.282  26.903   4.783  0.00  0.00    +0.144 HD
ENDBRANCH  19  22
ENDBRANCH   8  19
TORSDOF 2
ENDMDL
MODEL 3
REMARK VINA RESULT:      -6.2      3.184      6.350
REMARK  Name = 195280
REMARK  2 active torsions:
REMARK  status: ('A' for Active; 'I' for Inactive)
REMARK    1  A    between atoms: C_8  and  S_19
REMARK    2  A    between atoms: S_19  and  N_22
REMARK                            x       y       z     vdW  Elec       q    Type
REMARK                         _______ _______ _______ _____ _____    ______ ____
ROOT
ATOM      1  O   UNL     1     -40.170  21.068   2.224  0.00  0.00    -0.262 OA
ATOM      2  O   UNL     1     -40.998  23.030   0.655  0.00  0.00    -0.262 OA
ATOM      3  N   UNL     1     -38.387  22.331   2.970  0.00  0.00    -0.316 N 
ATOM      4  N   UNL     1     -39.249  24.378   1.329  0.00  0.00    -0.316 N 
ATOM      5  C   UNL     1     -36.489  23.706   3.745  0.00  0.00    +0.018 C 
ATOM      6  C   UNL     1     -35.804  24.947   3.667  0.00  0.00    +0.020 C 
ATOM      7  C   UNL     1     -37.653  23.532   2.947  0.00  0.00    +0.075 A 
ATOM      8  C   UNL     1     -34.648  25.165   4.437  0.00  0.00    +0.122 C 
ATOM      9  C   UNL     1     -38.102  24.557   2.111  0.00  0.00    +0.075 A 
ATOM     10  C   UNL     1     -36.277  25.959   2.819  0.00  0.00    +0.003 C 
ATOM     11  C   UNL     1     -35.962  22.725   4.619  0.00  0.00    +0.002 C 
ATOM     12  C   UNL     1     -37.419  25.768   2.045  0.00  0.00    +0.019 C 
ATOM     13  C   UNL     1     -34.156  24.177   5.287  0.00  0.00    +0.020 C 
ATOM     14  C   UNL     1     -34.813  22.957   5.378  0.00  0.00    +0.001 C 
ATOM     15  C   UNL     1     -39.519  22.106   2.219  0.00  0.00    +0.314 A 
ATOM     16  C   UNL     1     -39.990  23.221   1.326  0.00  0.00    +0.314 A 
ATOM     17  H   UNL     1     -38.072  21.608   3.558  0.00  0.00    +0.169 HD
ATOM     18  H   UNL     1     -39.539  25.120   0.750  0.00  0.00    +0.169 HD
ENDROOT
BRANCH   8  19
ATOM     19  S   UNL     1     -33.738  26.670   4.402  0.00  0.00    +0.057 S 
ATOM     20  O   UNL     1     -32.576  26.468   3.555  0.00  0.00    -0.153 OA
ATOM     21  O   UNL     1     -34.668  27.750   4.125  0.00  0.00    -0.153 OA
BRANCH  19  22
ATOM     22  N   UNL     1     -33.235  26.769   6.029  0.00  0.00    -0.203 NA
ATOM     23  H   UNL     1     -33.248  27.743   6.330  0.00  0.00    +0.144 HD
ATOM     24  H   UNL     1     -32.290  26.399   6.116  0.00  0.00    +0.144 HD
ENDBRANCH  19  22
ENDBRANCH   8  19
TORSDOF 2
ENDMDL
MODEL 4
REMARK VINA RESULT:      -6.0      2.489      6.269
REMARK  Name = 195280
REMARK  2 active torsions:
REMARK  status: ('A' for Active; 'I' for Inactive)
REMARK    1  A    between atoms: C_8  and  S_19
REMARK    2  A    between atoms: S_19  and  N_22
REMARK                            x       y       z     vdW  Elec       q    Type
REMARK                         _______ _______ _______ _____ _____    ______ ____
ROOT
ATOM      1  O   UNL     1     -36.652  18.853   0.750  0.00  0.00    -0.262 OA
ATOM      2  O   UNL     1     -36.184  20.263  -1.438  0.00  0.00    -0.262 OA
ATOM      3  N   UNL     1     -36.023  20.619   2.098  0.00  0.00    -0.316 N 
ATOM      4  N   UNL     1     -35.531  22.090  -0.186  0.00  0.00    -0.316 N 
ATOM      5  C   UNL     1     -35.342  22.524   3.513  0.00  0.00    +0.018 C 
ATOM      6  C   UNL     1     -34.873  23.862   3.567  0.00  0.00    +0.020 C 
ATOM      7  C   UNL     1     -35.559  21.940   2.234  0.00  0.00    +0.075 A 
ATOM      8  C   UNL     1     -34.643  24.481   4.808  0.00  0.00    +0.122 C 
ATOM      9  C   UNL     1     -35.314  22.671   1.069  0.00  0.00    +0.075 A 
ATOM     10  C   UNL     1     -34.635  24.572   2.380  0.00  0.00    +0.003 C 
ATOM     11  C   UNL     1     -35.562  21.861   4.744  0.00  0.00    +0.002 C 
ATOM     12  C   UNL     1     -34.854  23.983   1.137  0.00  0.00    +0.019 C 
ATOM     13  C   UNL     1     -34.870  23.799   6.001  0.00  0.00    +0.020 C 
ATOM     14  C   UNL     1     -35.330  22.490   5.969  0.00  0.00    +0.001 C 
ATOM     15  C   UNL     1     -36.251  20.002   0.888  0.00  0.00    +0.314 A 
ATOM     16  C   UNL     1     -35.983  20.803  -0.357  0.00  0.00    +0.314 A 
ATOM     17  H   UNL     1     -36.196  20.103   2.919  0.00  0.00    +0.169 HD
ATOM     18  H   UNL     1     -35.348  22.631  -0.989  0.00  0.00    +0.169 HD
ENDROOT
BRANCH   8  19
ATOM     19  S   UNL     1     -34.062  26.134   4.967  0.00  0.00    +0.057 S 
ATOM     20  O   UNL     1     -33.816  26.386   6.375  0.00  0.00    -0.153 OA
ATOM     21  O   UNL     1     -33.007  26.334   3.990  0.00  0.00    -0.153 OA
BRANCH  19  22
ATOM     22  N   UNL     1     -35.448  27.000   4.477  0.00  0.00    -0.203 NA
ATOM     23  H   UNL     1     -35.594  26.871   3.476  0.00  0.00    +0.144 HD
ATOM     24  H   UNL     1     -35.318  27.991   4.676  0.00  0.00    +0.144 HD
ENDBRANCH  19  22
ENDBRANCH   8  19
TORSDOF 2
ENDMDL
MODEL 5
REMARK VINA RESULT:      -5.9      1.877      3.171
REMARK  Name = 195280
REMARK  2 active torsions:
REMARK  status: ('A' for Active; 'I' for Inactive)
REMARK    1  A    between atoms: C_8  and  S_19
REMARK    2  A    between atoms: S_19  and  N_22
REMARK                            x       y       z     vdW  Elec       q    Type
REMARK                         _______ _______ _______ _____ _____    ______ ____
ROOT
ATOM      1  O   UNL     1     -30.789  29.483   4.269  0.00  0.00    -0.262 OA
ATOM      2  O   UNL     1     -31.536  29.429   6.806  0.00  0.00    -0.262 OA
ATOM      3  N   UNL     1     -32.133  27.673   3.769  0.00  0.00    -0.316 N 
ATOM      4  N   UNL     1     -32.910  27.614   6.418  0.00  0.00    -0.316 N 
ATOM      5  C   UNL     1     -33.578  25.736   3.267  0.00  0.00    +0.018 C 
ATOM      6  C   UNL     1     -34.499  24.774   3.760  0.00  0.00    +0.020 C 
ATOM      7  C   UNL     1     -33.051  26.689   4.181  0.00  0.00    +0.075 A 
ATOM      8  C   UNL     1     -35.046  23.812   2.894  0.00  0.00    +0.122 C 
ATOM      9  C   UNL     1     -33.433  26.673   5.525  0.00  0.00    +0.075 A 
ATOM     10  C   UNL     1     -34.865  24.782   5.114  0.00  0.00    +0.003 C 
ATOM     11  C   UNL     1     -33.248  25.676   1.892  0.00  0.00    +0.002 C 
ATOM     12  C   UNL     1     -34.337  25.724   5.993  0.00  0.00    +0.019 C 
ATOM     13  C   UNL     1     -34.700  23.782   1.545  0.00  0.00    +0.020 C 
ATOM     14  C   UNL     1     -33.801  24.714   1.044  0.00  0.00    +0.001 C 
ATOM     15  C   UNL     1     -31.590  28.620   4.608  0.00  0.00    +0.314 A 
ATOM     16  C   UNL     1     -32.013  28.590   6.052  0.00  0.00    +0.314 A 
ATOM     17  H   UNL     1     -31.863  27.686   2.823  0.00  0.00    +0.169 HD
ATOM     18  H   UNL     1     -33.199  27.576   7.359  0.00  0.00    +0.169 HD
ENDROOT
BRANCH   8  19
ATOM     19  S   UNL     1     -36.193  22.586   3.419  0.00  0.00    +0.057 S 
ATOM     20  O   UNL     1     -35.529  21.745   4.399  0.00  0.00    -0.153 OA
ATOM     21  O   UNL     1     -37.441  23.250   3.749  0.00  0.00    -0.153 OA
BRANCH  19  22
ATOM     22  N   UNL     1     -36.395  21.706   1.971  0.00  0.00    -0.203 NA
ATOM     23  H   UNL     1     -37.012  20.912   2.139  0.00  0.00    +0.144 HD
ATOM     24  H   UNL     1     -35.489  21.371   1.648  0.00  0.00    +0.144 HD
ENDBRANCH  19  22
ENDBRANCH   8  19
TORSDOF 2
ENDMDL
MODEL 6
REMARK VINA RESULT:      -5.7      5.023      7.212
REMARK  Name = 195280
REMARK  2 active torsions:
REMARK  status: ('A' for Active; 'I' for Inactive)
REMARK    1  A    between atoms: C_8  and  S_19
REMARK    2  A    between atoms: S_19  and  N_22
REMARK                            x       y       z     vdW  Elec       q    Type
REMARK                         _______ _______ _______ _____ _____    ______ ____
ROOT
ATOM      1  O   UNL     1     -32.006  17.837   1.604  0.00  0.00    -0.262 OA
ATOM      2  O   UNL     1     -33.185  16.442  -0.308  0.00  0.00    -0.262 OA
ATOM      3  N   UNL     1     -33.842  19.222   1.813  0.00  0.00    -0.316 N 
ATOM      4  N   UNL     1     -35.071  17.768  -0.186  0.00  0.00    -0.316 N 
ATOM      5  C   UNL     1     -35.818  20.687   2.011  0.00  0.00    +0.018 C 
ATOM      6  C   UNL     1     -37.125  20.996   1.551  0.00  0.00    +0.020 C 
ATOM      7  C   UNL     1     -35.139  19.591   1.412  0.00  0.00    +0.075 A 
ATOM      8  C   UNL     1     -37.836  22.071   2.113  0.00  0.00    +0.122 C 
ATOM      9  C   UNL     1     -35.747  18.845   0.398  0.00  0.00    +0.075 A 
ATOM     10  C   UNL     1     -37.711  20.230   0.531  0.00  0.00    +0.003 C 
ATOM     11  C   UNL     1     -35.282  21.496   3.041  0.00  0.00    +0.002 C 
ATOM     12  C   UNL     1     -37.029  19.161  -0.042  0.00  0.00    +0.019 C 
ATOM     13  C   UNL     1     -37.278  22.847   3.125  0.00  0.00    +0.020 C 
ATOM     14  C   UNL     1     -36.001  22.561   3.589  0.00  0.00    +0.001 C 
ATOM     15  C   UNL     1     -33.136  18.172   1.270  0.00  0.00    +0.314 A 
ATOM     16  C   UNL     1     -33.805  17.379   0.180  0.00  0.00    +0.314 A 
ATOM     17  H   UNL     1     -33.412  19.746   2.527  0.00  0.00    +0.169 HD
ATOM     18  H   UNL     1     -35.527  17.263  -0.899  0.00  0.00    +0.169 HD
ENDROOT
BRANCH   8  19
ATOM     19  S   UNL     1     -39.457  22.524   1.603  0.00  0.00    +0.057 S 
ATOM     20  O   UNL     1     -39.897  23.624   2.443  0.00  0.00    -0.153 OA
ATOM     21  O   UNL     1     -39.451  22.661   0.158  0.00  0.00    -0.153 OA
BRANCH  19  22
ATOM     22  N   UNL     1     -40.323  21.116   2.026  0.00  0.00    -0.203 NA
ATOM     23  H   UNL     1     -40.339  20.475   1.233  0.00  0.00    +0.144 HD
ATOM     24  H   UNL     1     -41.277  21.367   2.281  0.00  0.00    +0.144 HD
ENDBRANCH  19  22
ENDBRANCH   8  19
TORSDOF 2
ENDMDL
MODEL 7
REMARK VINA RESULT:      -5.6      3.860      5.518
REMARK  Name = 195280
REMARK  2 active torsions:
REMARK  status: ('A' for Active; 'I' for Inactive)
REMARK    1  A    between atoms: C_8  and  S_19
REMARK    2  A    between atoms: S_19  and  N_22
REMARK                            x       y       z     vdW  Elec       q    Type
REMARK                         _______ _______ _______ _____ _____    ______ ____
ROOT
ATOM      1  O   UNL     1     -36.520  25.913   2.439  0.00  0.00    -0.262 OA
ATOM      2  O   UNL     1     -38.037  24.454   4.041  0.00  0.00    -0.262 OA
ATOM      3  N   UNL     1     -35.367  24.044   1.726  0.00  0.00    -0.316 N 
ATOM      4  N   UNL     1     -36.948  22.521   3.402  0.00  0.00    -0.316 N 
ATOM      5  C   UNL     1     -34.151  22.027   0.986  0.00  0.00    +0.018 C 
ATOM      6  C   UNL     1     -33.999  20.620   1.090  0.00  0.00    +0.020 C 
ATOM      7  C   UNL     1     -35.155  22.653   1.775  0.00  0.00    +0.075 A 
ATOM      8  C   UNL     1     -33.020  19.957   0.330  0.00  0.00    +0.122 C 
ATOM      9  C   UNL     1     -35.963  21.898   2.628  0.00  0.00    +0.075 A 
ATOM     10  C   UNL     1     -34.824  19.886   1.956  0.00  0.00    +0.003 C 
ATOM     11  C   UNL     1     -33.288  22.711   0.095  0.00  0.00    +0.002 C 
ATOM     12  C   UNL     1     -35.801  20.518   2.721  0.00  0.00    +0.019 C 
ATOM     13  C   UNL     1     -32.187  20.661  -0.536  0.00  0.00    +0.020 C 
ATOM     14  C   UNL     1     -32.321  22.037  -0.653  0.00  0.00    +0.001 C 
ATOM     15  C   UNL     1     -36.322  24.704   2.467  0.00  0.00    +0.314 A 
ATOM     16  C   UNL     1     -37.185  23.875   3.380  0.00  0.00    +0.314 A 
ATOM     17  H   UNL     1     -34.799  24.577   1.125  0.00  0.00    +0.169 HD
ATOM     18  H   UNL     1     -37.501  21.961   3.994  0.00  0.00    +0.169 HD
ENDROOT
BRANCH   8  19
ATOM     19  S   UNL     1     -32.762  18.218   0.399  0.00  0.00    +0.057 S 
ATOM     20  O   UNL     1     -32.164  17.906   1.684  0.00  0.00    -0.153 OA
ATOM     21  O   UNL     1     -33.992  17.566  -0.015  0.00  0.00    -0.153 OA
BRANCH  19  22
ATOM     22  N   UNL     1     -31.590  18.027  -0.826  0.00  0.00    -0.203 NA
ATOM     23  H   UNL     1     -31.948  18.407  -1.702  0.00  0.00    +0.144 HD
ATOM     24  H   UNL     1     -31.381  17.037  -0.945  0.00  0.00    +0.144 HD
ENDBRANCH  19  22
ENDBRANCH   8  19
TORSDOF 2
ENDMDL
MODEL 8
REMARK VINA RESULT:      -5.6      3.427      7.078
REMARK  Name = 195280
REMARK  2 active torsions:
REMARK  status: ('A' for Active; 'I' for Inactive)
REMARK    1  A    between atoms: C_8  and  S_19
REMARK    2  A    between atoms: S_19  and  N_22
REMARK                            x       y       z     vdW  Elec       q    Type
REMARK                         _______ _______ _______ _____ _____    ______ ____
ROOT
ATOM      1  O   UNL     1     -40.957  23.181   0.355  0.00  0.00    -0.262 OA
ATOM      2  O   UNL     1     -40.303  21.027   1.744  0.00  0.00    -0.262 OA
ATOM      3  N   UNL     1     -39.154  24.350   1.198  0.00  0.00    -0.316 N 
ATOM      4  N   UNL     1     -38.473  22.104   2.652  0.00  0.00    -0.316 N 
ATOM      5  C   UNL     1     -37.219  25.575   2.120  0.00  0.00    +0.018 C 
ATOM      6  C   UNL     1     -36.085  25.547   2.974  0.00  0.00    +0.020 C 
ATOM      7  C   UNL     1     -38.015  24.400   2.023  0.00  0.00    +0.075 A 
ATOM      8  C   UNL     1     -35.269  26.684   3.102  0.00  0.00    +0.122 C 
ATOM      9  C   UNL     1     -37.684  23.256   2.753  0.00  0.00    +0.075 A 
ATOM     10  C   UNL     1     -35.777  24.383   3.695  0.00  0.00    +0.003 C 
ATOM     11  C   UNL     1     -37.477  26.778   1.420  0.00  0.00    +0.002 C 
ATOM     12  C   UNL     1     -36.570  23.243   3.586  0.00  0.00    +0.019 C 
ATOM     13  C   UNL     1     -35.552  27.852   2.398  0.00  0.00    +0.020 C 
ATOM     14  C   UNL     1     -36.655  27.899   1.558  0.00  0.00    +0.001 C 
ATOM     15  C   UNL     1     -39.961  23.243   1.066  0.00  0.00    +0.314 A 
ATOM     16  C   UNL     1     -39.591  22.018   1.857  0.00  0.00    +0.314 A 
ATOM     17  H   UNL     1     -39.388  25.156   0.684  0.00  0.00    +0.169 HD
ATOM     18  H   UNL     1     -38.214  21.313   3.179  0.00  0.00    +0.169 HD
ENDROOT
BRANCH   8  19
ATOM     19  S   UNL     1     -33.847  26.736   4.137  0.00  0.00    +0.057 S 
ATOM     20  O   UNL     1     -34.287  26.554   5.508  0.00  0.00    -0.153 OA
ATOM     21  O   UNL     1     -32.844  25.855   3.565  0.00  0.00    -0.153 OA
BRANCH  19  22
ATOM     22  N   UNL     1     -33.359  28.356   3.914  0.00  0.00    -0.203 NA
ATOM     23  H   UNL     1     -32.490  28.522   4.423  0.00  0.00    +0.144 HD
ATOM     24  H   UNL     1     -34.083  28.980   4.266  0.00  0.00    +0.144 HD
ENDBRANCH  19  22
ENDBRANCH   8  19
TORSDOF 2
ENDMDL
MODEL 9
REMARK VINA RESULT:      -5.6      3.073      6.941
REMARK  Name = 195280
REMARK  2 active torsions:
REMARK  status: ('A' for Active; 'I' for Inactive)
REMARK    1  A    between atoms: C_8  and  S_19
REMARK    2  A    between atoms: S_19  and  N_22
REMARK                            x       y       z     vdW  Elec       q    Type
REMARK                         _______ _______ _______ _____ _____    ______ ____
ROOT
ATOM      1  O   UNL     1     -33.236  19.544  -1.756  0.00  0.00    -0.262 OA
ATOM      2  O   UNL     1     -34.273  17.651  -0.228  0.00  0.00    -0.262 OA
ATOM      3  N   UNL     1     -33.846  21.183  -0.248  0.00  0.00    -0.316 N 
ATOM      4  N   UNL     1     -34.931  19.206   1.346  0.00  0.00    -0.316 N 
ATOM      5  C   UNL     1     -34.513  22.911   1.383  0.00  0.00    +0.018 C 
ATOM      6  C   UNL     1     -35.140  23.204   2.623  0.00  0.00    +0.020 C 
ATOM      7  C   UNL     1     -34.451  21.553   0.968  0.00  0.00    +0.075 A 
ATOM      8  C   UNL     1     -35.225  24.533   3.075  0.00  0.00    +0.122 C 
ATOM      9  C   UNL     1     -34.996  20.541   1.762  0.00  0.00    +0.075 A 
ATOM     10  C   UNL     1     -35.678  22.168   3.400  0.00  0.00    +0.003 C 
ATOM     11  C   UNL     1     -33.989  24.000   0.646  0.00  0.00    +0.002 C 
ATOM     12  C   UNL     1     -35.608  20.844   2.975  0.00  0.00    +0.019 C 
ATOM     13  C   UNL     1     -34.699  25.580   2.324  0.00  0.00    +0.020 C 
ATOM     14  C   UNL     1     -34.082  25.315   1.109  0.00  0.00    +0.001 C 
ATOM     15  C   UNL     1     -33.757  19.886  -0.701  0.00  0.00    +0.314 A 
ATOM     16  C   UNL     1     -34.348  18.808   0.167  0.00  0.00    +0.314 A 
ATOM     17  H   UNL     1     -33.461  21.895  -0.808  0.00  0.00    +0.169 HD
ATOM     18  H   UNL     1     -35.325  18.516   1.928  0.00  0.00    +0.169 HD
ENDROOT
BRANCH   8  19
ATOM     19  S   UNL     1     -35.984  24.985   4.596  0.00  0.00    +0.057 S 
ATOM     20  O   UNL     1     -37.401  24.687   4.493  0.00  0.00    -0.153 OA
ATOM     21  O   UNL     1     -35.194  24.422   5.677  0.00  0.00    -0.153 OA
BRANCH  19  22
ATOM     22  N   UNL     1     -35.763  26.676   4.565  0.00  0.00    -0.203 NA
ATOM     23  H   UNL     1     -36.374  27.112   5.256  0.00  0.00    +0.144 HD
ATOM     24  H   UNL     1     -35.990  27.031   3.638  0.00  0.00    +0.144 HD
ENDBRANCH  19  22
ENDBRANCH   8  19
TORSDOF 2
ENDMDL
