MODEL 1
REMARK VINA RESULT:      -6.8      0.000      0.000
REMARK  Name = 5748372
REMARK  5 active torsions:
REMARK  status: ('A' for Active; 'I' for Inactive)
REMARK    1  A    between atoms: N_3  and  C_28
REMARK    2  A    between atoms: C_5  and  O_21
REMARK    3  A    between atoms: C_18  and  O_23
REMARK    4  A    between atoms: O_23  and  S_24
REMARK    5  A    between atoms: C_28  and  C_29
REMARK                            x       y       z     vdW  Elec       q    Type
REMARK                         _______ _______ _______ _____ _____    ______ ____
ROOT
ATOM      1  O   UNL     1     -36.614  22.919   2.611  0.00  0.00    -0.469 OA
ATOM      2  O   UNL     1     -35.701  22.054   5.007  0.00  0.00    -0.292 OA
ATOM      3  N   UNL     1     -35.775  28.048   2.665  0.00  0.00    +0.393 N 
ATOM      4  C   UNL     1     -36.144  25.217   3.197  0.00  0.00    +0.084 C 
ATOM      5  C   UNL     1     -35.375  26.132   4.161  0.00  0.00    +0.079 C 
ATOM      6  C   UNL     1     -34.694  27.231   3.277  0.00  0.00    -0.027 C 
ATOM      7  C   UNL     1     -36.654  23.867   3.724  0.00  0.00    +0.228 C 
ATOM      8  C   UNL     1     -37.248  26.029   2.479  0.00  0.00    -0.012 C 
ATOM      9  C   UNL     1     -35.210  24.667   2.175  0.00  0.00    +0.016 C 
ATOM     10  C   UNL     1     -34.400  25.341   5.052  0.00  0.00    +0.033 C 
ATOM     11  C   UNL     1     -33.677  26.623   2.247  0.00  0.00    +0.008 C 
ATOM     12  C   UNL     1     -36.692  27.297   1.803  0.00  0.00    -0.076 C 
ATOM     13  C   UNL     1     -34.097  25.302   1.658  0.00  0.00    -0.025 C 
ATOM     14  C   UNL     1     -35.133  24.232   5.807  0.00  0.00    +0.071 C 
ATOM     15  C   UNL     1     -35.796  23.272   4.845  0.00  0.00    +0.191 C 
ATOM     16  C   UNL     1     -35.574  23.380   1.837  0.00  0.00    +0.171 C 
ATOM     17  C   UNL     1     -33.378  24.613   0.681  0.00  0.00    -0.001 C 
ATOM     18  C   UNL     1     -34.889  22.688   0.865  0.00  0.00    +0.209 C 
ATOM     19  C   UNL     1     -33.786  23.322   0.276  0.00  0.00    +0.043 C 
ATOM     20  H   UNL     1     -36.328  28.347   3.469  0.00  0.00    -0.079 HD
ENDROOT
BRANCH   5  21
ATOM     21  O   UNL     1     -36.306  26.767   5.054  0.00  0.00    -0.388 OA
ATOM     22  H   UNL     1     -36.246  26.356   5.930  0.00  0.00    +0.210 HD
ENDBRANCH   5  21
BRANCH  18  23
ATOM     23  O   UNL     1     -35.240  21.428   0.507  0.00  0.00    -0.319 OA
BRANCH  23  24
ATOM     24  S   UNL     1     -34.454  20.152   1.190  0.00  0.00    +0.282 S 
ATOM     25  O   UNL     1     -35.107  18.853   0.449  0.00  0.00    -0.012 OA
ATOM     26  O   UNL     1     -33.050  20.214   0.826  0.00  0.00    -0.105 OA
ATOM     27  O   UNL     1     -34.836  20.090   2.589  0.00  0.00    -0.105 OA
ENDBRANCH  23  24
ENDBRANCH  18  23
BRANCH   3  28
ATOM     28  C   UNL     1     -35.292  29.258   2.008  0.00  0.00    -0.050 C 
BRANCH  28  29
ATOM     29  C   UNL     1     -35.291  30.430   2.943  0.00  0.00    -0.049 C 
ATOM     30  C   UNL     1     -34.207  31.162   3.221  0.00  0.00    -0.007 C 
ENDBRANCH  28  29
ENDBRANCH   3  28
TORSDOF 5
ENDMDL
MODEL 2
REMARK VINA RESULT:      -6.5      3.393      6.428
REMARK  Name = 5748372
REMARK  5 active torsions:
REMARK  status: ('A' for Active; 'I' for Inactive)
REMARK    1  A    between atoms: N_3  and  C_28
REMARK    2  A    between atoms: C_5  and  O_21
REMARK    3  A    between atoms: C_18  and  O_23
REMARK    4  A    between atoms: O_23  and  S_24
REMARK    5  A    between atoms: C_28  and  C_29
REMARK                            x       y       z     vdW  Elec       q    Type
REMARK                         _______ _______ _______ _____ _____    ______ ____
ROOT
ATOM      1  O   UNL     1     -36.623  24.106   3.521  0.00  0.00    -0.469 OA
ATOM      2  O   UNL     1     -39.005  24.770   2.424  0.00  0.00    -0.292 OA
ATOM      3  N   UNL     1     -35.226  19.739   1.072  0.00  0.00    +0.393 N 
ATOM      4  C   UNL     1     -36.520  22.076   2.211  0.00  0.00    +0.084 C 
ATOM      5  C   UNL     1     -37.095  21.342   0.990  0.00  0.00    +0.079 C 
ATOM      6  C   UNL     1     -35.868  20.763   0.206  0.00  0.00    -0.027 C 
ATOM      7  C   UNL     1     -37.447  23.015   2.999  0.00  0.00    +0.228 C 
ATOM      8  C   UNL     1     -35.782  21.068   3.123  0.00  0.00    -0.012 C 
ATOM      9  C   UNL     1     -35.553  23.117   1.761  0.00  0.00    +0.016 C 
ATOM     10  C   UNL     1     -38.012  22.251   0.151  0.00  0.00    +0.033 C 
ATOM     11  C   UNL     1     -34.897  21.888  -0.298  0.00  0.00    +0.008 C 
ATOM     12  C   UNL     1     -34.728  20.249   2.352  0.00  0.00    -0.076 C 
ATOM     13  C   UNL     1     -34.736  23.048   0.649  0.00  0.00    -0.025 C 
ATOM     14  C   UNL     1     -39.125  22.844   1.014  0.00  0.00    +0.071 C 
ATOM     15  C   UNL     1     -38.549  23.658   2.151  0.00  0.00    +0.191 C 
ATOM     16  C   UNL     1     -35.616  24.218   2.590  0.00  0.00    +0.171 C 
ATOM     17  C   UNL     1     -33.879  24.127   0.433  0.00  0.00    -0.001 C 
ATOM     18  C   UNL     1     -34.769  25.286   2.404  0.00  0.00    +0.209 C 
ATOM     19  C   UNL     1     -33.884  25.228   1.317  0.00  0.00    +0.043 C 
ATOM     20  H   UNL     1     -35.995  19.109   1.302  0.00  0.00    -0.079 HD
ENDROOT
BRANCH   5  21
ATOM     21  O   UNL     1     -37.916  20.250   1.438  0.00  0.00    -0.388 OA
ATOM     22  H   UNL     1     -37.373  19.450   1.519  0.00  0.00    +0.210 HD
ENDBRANCH   5  21
BRANCH  18  23
ATOM     23  O   UNL     1     -34.803  26.371   3.216  0.00  0.00    -0.319 OA
BRANCH  23  24
ATOM     24  S   UNL     1     -34.043  26.305   4.676  0.00  0.00    +0.282 S 
ATOM     25  O   UNL     1     -35.271  26.250   5.750  0.00  0.00    -0.012 OA
ATOM     26  O   UNL     1     -33.312  25.055   4.769  0.00  0.00    -0.105 OA
ATOM     27  O   UNL     1     -33.350  27.565   4.875  0.00  0.00    -0.105 OA
ENDBRANCH  23  24
ENDBRANCH  18  23
BRANCH   3  28
ATOM     28  C   UNL     1     -34.217  18.942   0.384  0.00  0.00    -0.050 C 
BRANCH  28  29
ATOM     29  C   UNL     1     -32.860  19.125   0.992  0.00  0.00    -0.049 C 
ATOM     30  C   UNL     1     -31.840  19.733   0.375  0.00  0.00    -0.007 C 
ENDBRANCH  28  29
ENDBRANCH   3  28
TORSDOF 5
ENDMDL
MODEL 3
REMARK VINA RESULT:      -6.4      2.160      3.395
REMARK  Name = 5748372
REMARK  5 active torsions:
REMARK  status: ('A' for Active; 'I' for Inactive)
REMARK    1  A    between atoms: N_3  and  C_28
REMARK    2  A    between atoms: C_5  and  O_21
REMARK    3  A    between atoms: C_18  and  O_23
REMARK    4  A    between atoms: O_23  and  S_24
REMARK    5  A    between atoms: C_28  and  C_29
REMARK                            x       y       z     vdW  Elec       q    Type
REMARK                         _______ _______ _______ _____ _____    ______ ____
ROOT
ATOM      1  O   UNL     1     -36.044  22.858   1.054  0.00  0.00    -0.469 OA
ATOM      2  O   UNL     1     -38.722  23.229   0.938  0.00  0.00    -0.292 OA
ATOM      3  N   UNL     1     -34.394  26.315   4.568  0.00  0.00    +0.393 N 
ATOM      4  C   UNL     1     -35.799  24.688   2.615  0.00  0.00    +0.084 C 
ATOM      5  C   UNL     1     -36.544  25.606   3.595  0.00  0.00    +0.079 C 
ATOM      6  C   UNL     1     -35.680  25.649   4.902  0.00  0.00    -0.027 C 
ATOM      7  C   UNL     1     -36.548  24.195   1.367  0.00  0.00    +0.228 C 
ATOM      8  C   UNL     1     -34.420  25.300   2.276  0.00  0.00    -0.012 C 
ATOM      9  C   UNL     1     -35.594  23.350   3.238  0.00  0.00    +0.016 C 
ATOM     10  C   UNL     1     -38.000  25.158   3.812  0.00  0.00    +0.033 C 
ATOM     11  C   UNL     1     -35.527  24.233   5.562  0.00  0.00    +0.008 C 
ATOM     12  C   UNL     1     -33.603  25.631   3.540  0.00  0.00    -0.076 C 
ATOM     13  C   UNL     1     -35.399  23.096   4.582  0.00  0.00    -0.025 C 
ATOM     14  C   UNL     1     -38.741  25.055   2.480  0.00  0.00    +0.071 C 
ATOM     15  C   UNL     1     -38.062  24.064   1.560  0.00  0.00    +0.191 C 
ATOM     16  C   UNL     1     -35.679  22.359   2.283  0.00  0.00    +0.171 C 
ATOM     17  C   UNL     1     -35.192  21.765   4.945  0.00  0.00    -0.001 C 
ATOM     18  C   UNL     1     -35.464  21.042   2.616  0.00  0.00    +0.209 C 
ATOM     19  C   UNL     1     -35.206  20.750   3.963  0.00  0.00    +0.043 C 
ATOM     20  H   UNL     1     -34.688  27.199   4.152  0.00  0.00    -0.079 HD
ENDROOT
BRANCH   5  21
ATOM     21  O   UNL     1     -36.613  26.932   3.042  0.00  0.00    -0.388 OA
ATOM     22  H   UNL     1     -36.862  26.879   2.107  0.00  0.00    +0.210 HD
ENDBRANCH   5  21
BRANCH  18  23
ATOM     23  O   UNL     1     -35.528  20.053   1.690  0.00  0.00    -0.319 OA
BRANCH  23  24
ATOM     24  S   UNL     1     -34.186  19.696   0.804  0.00  0.00    +0.282 S 
ATOM     25  O   UNL     1     -33.319  18.724   1.788  0.00  0.00    -0.012 OA
ATOM     26  O   UNL     1     -34.581  18.919  -0.356  0.00  0.00    -0.105 OA
ATOM     27  O   UNL     1     -33.428  20.922   0.629  0.00  0.00    -0.105 OA
ENDBRANCH  23  24
ENDBRANCH  18  23
BRANCH   3  28
ATOM     28  C   UNL     1     -33.585  26.643   5.736  0.00  0.00    -0.050 C 
BRANCH  28  29
ATOM     29  C   UNL     1     -32.567  27.697   5.424  0.00  0.00    -0.049 C 
ATOM     30  C   UNL     1     -31.868  28.360   6.352  0.00  0.00    -0.007 C 
ENDBRANCH  28  29
ENDBRANCH   3  28
TORSDOF 5
ENDMDL
MODEL 4
REMARK VINA RESULT:      -6.4      0.994      1.440
REMARK  Name = 5748372
REMARK  5 active torsions:
REMARK  status: ('A' for Active; 'I' for Inactive)
REMARK    1  A    between atoms: N_3  and  C_28
REMARK    2  A    between atoms: C_5  and  O_21
REMARK    3  A    between atoms: C_18  and  O_23
REMARK    4  A    between atoms: O_23  and  S_24
REMARK    5  A    between atoms: C_28  and  C_29
REMARK                            x       y       z     vdW  Elec       q    Type
REMARK                         _______ _______ _______ _____ _____    ______ ____
ROOT
ATOM      1  O   UNL     1     -36.593  22.484   3.207  0.00  0.00    -0.469 OA
ATOM      2  O   UNL     1     -35.357  21.961   5.557  0.00  0.00    -0.292 OA
ATOM      3  N   UNL     1     -36.148  27.629   2.611  0.00  0.00    +0.393 N 
ATOM      4  C   UNL     1     -36.239  24.860   3.483  0.00  0.00    +0.084 C 
ATOM      5  C   UNL     1     -35.440  25.927   4.247  0.00  0.00    +0.079 C 
ATOM      6  C   UNL     1     -34.947  26.959   3.175  0.00  0.00    -0.027 C 
ATOM      7  C   UNL     1     -36.583  23.550   4.209  0.00  0.00    +0.228 C 
ATOM      8  C   UNL     1     -37.474  25.512   2.819  0.00  0.00    -0.012 C 
ATOM      9  C   UNL     1     -35.384  24.256   2.423  0.00  0.00    +0.016 C 
ATOM     10  C   UNL     1     -34.315  25.307   5.095  0.00  0.00    +0.033 C 
ATOM     11  C   UNL     1     -34.007  26.302   2.103  0.00  0.00    +0.008 C 
ATOM     12  C   UNL     1     -37.095  26.726   1.950  0.00  0.00    -0.076 C 
ATOM     13  C   UNL     1     -34.387  24.897   1.712  0.00  0.00    -0.025 C 
ATOM     14  C   UNL     1     -34.872  24.249   6.046  0.00  0.00    +0.071 C 
ATOM     15  C   UNL     1     -35.562  23.144   5.277  0.00  0.00    +0.191 C 
ATOM     16  C   UNL     1     -35.684  22.919   2.271  0.00  0.00    +0.171 C 
ATOM     17  C   UNL     1     -33.730  24.147   0.737  0.00  0.00    -0.001 C 
ATOM     18  C   UNL     1     -35.059  22.164   1.304  0.00  0.00    +0.209 C 
ATOM     19  C   UNL     1     -34.080  22.796   0.524  0.00  0.00    +0.043 C 
ATOM     20  H   UNL     1     -36.630  27.982   3.438  0.00  0.00    -0.079 HD
ENDROOT
BRANCH   5  21
ATOM     21  O   UNL     1     -36.312  26.600   5.170  0.00  0.00    -0.388 OA
ATOM     22  H   UNL     1     -36.499  26.017   5.922  0.00  0.00    +0.210 HD
ENDBRANCH   5  21
BRANCH  18  23
ATOM     23  O   UNL     1     -35.350  20.852   1.127  0.00  0.00    -0.319 OA
BRANCH  23  24
ATOM     24  S   UNL     1     -36.587  20.432   0.124  0.00  0.00    +0.282 S 
ATOM     25  O   UNL     1     -36.389  18.826  -0.086  0.00  0.00    -0.012 OA
ATOM     26  O   UNL     1     -37.846  20.640   0.817  0.00  0.00    -0.105 OA
ATOM     27  O   UNL     1     -36.355  21.069  -1.160  0.00  0.00    -0.105 OA
ENDBRANCH  23  24
ENDBRANCH  18  23
BRANCH   3  28
ATOM     28  C   UNL     1     -35.835  28.783   1.776  0.00  0.00    -0.050 C 
BRANCH  28  29
ATOM     29  C   UNL     1     -35.145  29.859   2.559  0.00  0.00    -0.049 C 
ATOM     30  C   UNL     1     -35.571  31.125   2.625  0.00  0.00    -0.007 C 
ENDBRANCH  28  29
ENDBRANCH   3  28
TORSDOF 5
ENDMDL
MODEL 5
REMARK VINA RESULT:      -6.3      1.938      2.528
REMARK  Name = 5748372
REMARK  5 active torsions:
REMARK  status: ('A' for Active; 'I' for Inactive)
REMARK    1  A    between atoms: N_3  and  C_28
REMARK    2  A    between atoms: C_5  and  O_21
REMARK    3  A    between atoms: C_18  and  O_23
REMARK    4  A    between atoms: O_23  and  S_24
REMARK    5  A    between atoms: C_28  and  C_29
REMARK                            x       y       z     vdW  Elec       q    Type
REMARK                         _______ _______ _______ _____ _____    ______ ____
ROOT
ATOM      1  O   UNL     1     -37.611  23.520   3.518  0.00  0.00    -0.469 OA
ATOM      2  O   UNL     1     -36.122  22.833   5.670  0.00  0.00    -0.292 OA
ATOM      3  N   UNL     1     -35.355  27.832   1.690  0.00  0.00    +0.393 N 
ATOM      4  C   UNL     1     -36.296  25.521   3.175  0.00  0.00    +0.084 C 
ATOM      5  C   UNL     1     -34.977  26.227   3.521  0.00  0.00    +0.079 C 
ATOM      6  C   UNL     1     -34.412  26.790   2.172  0.00  0.00    -0.027 C 
ATOM      7  C   UNL     1     -36.927  24.600   4.231  0.00  0.00    +0.228 C 
ATOM      8  C   UNL     1     -37.303  26.549   2.607  0.00  0.00    -0.012 C 
ATOM      9  C   UNL     1     -36.049  24.470   2.148  0.00  0.00    +0.016 C 
ATOM     10  C   UNL     1     -34.008  25.301   4.278  0.00  0.00    +0.033 C 
ATOM     11  C   UNL     1     -34.112  25.653   1.131  0.00  0.00    +0.008 C 
ATOM     12  C   UNL     1     -36.715  27.350   1.430  0.00  0.00    -0.076 C 
ATOM     13  C   UNL     1     -35.098  24.514   1.146  0.00  0.00    -0.025 C 
ATOM     14  C   UNL     1     -34.672  24.727   5.529  0.00  0.00    +0.071 C 
ATOM     15  C   UNL     1     -35.911  23.938   5.168  0.00  0.00    +0.191 C 
ATOM     16  C   UNL     1     -36.877  23.388   2.362  0.00  0.00    +0.171 C 
ATOM     17  C   UNL     1     -35.061  23.431   0.268  0.00  0.00    -0.001 C 
ATOM     18  C   UNL     1     -36.868  22.316   1.500  0.00  0.00    +0.209 C 
ATOM     19  C   UNL     1     -35.955  22.349   0.436  0.00  0.00    +0.043 C 
ATOM     20  H   UNL     1     -35.431  28.467   2.485  0.00  0.00    -0.079 HD
ENDROOT
BRANCH   5  21
ATOM     21  O   UNL     1     -35.248  27.329   4.404  0.00  0.00    -0.388 OA
ATOM     22  H   UNL     1     -35.646  26.997   5.224  0.00  0.00    +0.210 HD
ENDBRANCH   5  21
BRANCH  18  23
ATOM     23  O   UNL     1     -37.684  21.249   1.682  0.00  0.00    -0.319 OA
BRANCH  23  24
ATOM     24  S   UNL     1     -39.215  21.297   1.077  0.00  0.00    +0.282 S 
ATOM     25  O   UNL     1     -39.263  22.707   0.257  0.00  0.00    -0.012 OA
ATOM     26  O   UNL     1     -39.377  20.218   0.120  0.00  0.00    -0.105 OA
ATOM     27  O   UNL     1     -40.133  21.415   2.195  0.00  0.00    -0.105 OA
ENDBRANCH  23  24
ENDBRANCH  18  23
BRANCH   3  28
ATOM     28  C   UNL     1     -34.840  28.614   0.571  0.00  0.00    -0.050 C 
BRANCH  28  29
ATOM     29  C   UNL     1     -35.290  30.041   0.642  0.00  0.00    -0.049 C 
ATOM     30  C   UNL     1     -35.328  30.757   1.771  0.00  0.00    -0.007 C 
ENDBRANCH  28  29
ENDBRANCH   3  28
TORSDOF 5
ENDMDL
MODEL 6
REMARK VINA RESULT:      -6.1      4.120      6.583
REMARK  Name = 5748372
REMARK  5 active torsions:
REMARK  status: ('A' for Active; 'I' for Inactive)
REMARK    1  A    between atoms: N_3  and  C_28
REMARK    2  A    between atoms: C_5  and  O_21
REMARK    3  A    between atoms: C_18  and  O_23
REMARK    4  A    between atoms: O_23  and  S_24
REMARK    5  A    between atoms: C_28  and  C_29
REMARK                            x       y       z     vdW  Elec       q    Type
REMARK                         _______ _______ _______ _____ _____    ______ ____
ROOT
ATOM      1  O   UNL     1     -33.410  27.167   2.838  0.00  0.00    -0.469 OA
ATOM      2  O   UNL     1     -35.368  28.958   2.310  0.00  0.00    -0.292 OA
ATOM      3  N   UNL     1     -29.488  30.028   4.698  0.00  0.00    +0.393 N 
ATOM      4  C   UNL     1     -31.892  28.933   3.491  0.00  0.00    +0.084 C 
ATOM      5  C   UNL     1     -31.792  30.407   3.909  0.00  0.00    +0.079 C 
ATOM      6  C   UNL     1     -30.840  30.448   5.153  0.00  0.00    -0.027 C 
ATOM      7  C   UNL     1     -32.997  28.531   2.502  0.00  0.00    +0.228 C 
ATOM      8  C   UNL     1     -30.498  28.418   3.064  0.00  0.00    -0.012 C 
ATOM      9  C   UNL     1     -32.376  28.117   4.640  0.00  0.00    +0.016 C 
ATOM     10  C   UNL     1     -33.177  31.034   4.150  0.00  0.00    +0.033 C 
ATOM     11  C   UNL     1     -31.404  29.623   6.363  0.00  0.00    +0.008 C 
ATOM     12  C   UNL     1     -29.427  28.673   4.142  0.00  0.00    -0.076 C 
ATOM     13  C   UNL     1     -32.124  28.357   5.977  0.00  0.00    -0.025 C 
ATOM     14  C   UNL     1     -34.069  30.868   2.920  0.00  0.00    +0.071 C 
ATOM     15  C   UNL     1     -34.253  29.405   2.581  0.00  0.00    +0.191 C 
ATOM     16  C   UNL     1     -33.180  27.090   4.192  0.00  0.00    +0.171 C 
ATOM     17  C   UNL     1     -32.650  27.442   6.889  0.00  0.00    -0.001 C 
ATOM     18  C   UNL     1     -33.697  26.167   5.072  0.00  0.00    +0.209 C 
ATOM     19  C   UNL     1     -33.415  26.345   6.434  0.00  0.00    +0.043 C 
ATOM     20  H   UNL     1     -29.296  30.658   3.919  0.00  0.00    -0.079 HD
ENDROOT
BRANCH   5  21
ATOM     21  O   UNL     1     -31.192  31.162   2.842  0.00  0.00    -0.388 OA
ATOM     22  H   UNL     1     -31.385  32.104   2.965  0.00  0.00    +0.210 HD
ENDBRANCH   5  21
BRANCH  18  23
ATOM     23  O   UNL     1     -34.477  25.141   4.652  0.00  0.00    -0.319 OA
BRANCH  23  24
ATOM     24  S   UNL     1     -36.114  25.315   4.677  0.00  0.00    +0.282 S 
ATOM     25  O   UNL     1     -36.475  25.815   3.166  0.00  0.00    -0.012 OA
ATOM     26  O   UNL     1     -36.723  24.011   4.873  0.00  0.00    -0.105 OA
ATOM     27  O   UNL     1     -36.433  26.404   5.582  0.00  0.00    -0.105 OA
ENDBRANCH  23  24
ENDBRANCH  18  23
BRANCH   3  28
ATOM     28  C   UNL     1     -28.443  30.247   5.691  0.00  0.00    -0.050 C 
BRANCH  28  29
ATOM     29  C   UNL     1     -27.893  28.953   6.209  0.00  0.00    -0.049 C 
ATOM     30  C   UNL     1     -28.011  28.545   7.477  0.00  0.00    -0.007 C 
ENDBRANCH  28  29
ENDBRANCH   3  28
TORSDOF 5
ENDMDL
MODEL 7
REMARK VINA RESULT:      -6.0      3.567      5.964
REMARK  Name = 5748372
REMARK  5 active torsions:
REMARK  status: ('A' for Active; 'I' for Inactive)
REMARK    1  A    between atoms: N_3  and  C_28
REMARK    2  A    between atoms: C_5  and  O_21
REMARK    3  A    between atoms: C_18  and  O_23
REMARK    4  A    between atoms: O_23  and  S_24
REMARK    5  A    between atoms: C_28  and  C_29
REMARK                            x       y       z     vdW  Elec       q    Type
REMARK                         _______ _______ _______ _____ _____    ______ ____
ROOT
ATOM      1  O   UNL     1     -33.300  25.819   2.534  0.00  0.00    -0.469 OA
ATOM      2  O   UNL     1     -32.818  26.822   5.000  0.00  0.00    -0.292 OA
ATOM      3  N   UNL     1     -37.892  23.423   2.969  0.00  0.00    +0.393 N 
ATOM      4  C   UNL     1     -35.337  24.763   3.297  0.00  0.00    +0.084 C 
ATOM      5  C   UNL     1     -36.389  24.734   4.416  0.00  0.00    +0.079 C 
ATOM      6  C   UNL     1     -37.786  24.709   3.706  0.00  0.00    -0.027 C 
ATOM      7  C   UNL     1     -33.887  25.109   3.671  0.00  0.00    +0.228 C 
ATOM      8  C   UNL     1     -35.440  23.472   2.453  0.00  0.00    -0.012 C 
ATOM      9  C   UNL     1     -35.577  25.938   2.413  0.00  0.00    +0.016 C 
ATOM     10  C   UNL     1     -36.204  25.893   5.412  0.00  0.00    +0.033 C 
ATOM     11  C   UNL     1     -38.029  25.985   2.824  0.00  0.00    +0.008 C 
ATOM     12  C   UNL     1     -36.870  23.226   1.936  0.00  0.00    -0.076 C 
ATOM     13  C   UNL     1     -36.805  26.498   2.112  0.00  0.00    -0.025 C 
ATOM     14  C   UNL     1     -34.788  25.895   5.986  0.00  0.00    +0.071 C 
ATOM     15  C   UNL     1     -33.760  26.036   4.884  0.00  0.00    +0.191 C 
ATOM     16  C   UNL     1     -34.379  26.449   1.959  0.00  0.00    +0.171 C 
ATOM     17  C   UNL     1     -36.802  27.578   1.230  0.00  0.00    -0.001 C 
ATOM     18  C   UNL     1     -34.354  27.505   1.077  0.00  0.00    +0.209 C 
ATOM     19  C   UNL     1     -35.585  28.064   0.703  0.00  0.00    +0.043 C 
ATOM     20  H   UNL     1     -37.701  22.724   3.688  0.00  0.00    -0.079 HD
ENDROOT
BRANCH   5  21
ATOM     21  O   UNL     1     -36.236  23.524   5.178  0.00  0.00    -0.388 OA
ATOM     22  H   UNL     1     -36.733  23.600   6.007  0.00  0.00    +0.210 HD
ENDBRANCH   5  21
BRANCH  18  23
ATOM     23  O   UNL     1     -33.188  28.012   0.607  0.00  0.00    -0.319 OA
BRANCH  23  24
ATOM     24  S   UNL     1     -32.309  29.023   1.565  0.00  0.00    +0.282 S 
ATOM     25  O   UNL     1     -31.836  30.208   0.548  0.00  0.00    -0.012 OA
ATOM     26  O   UNL     1     -33.187  29.611   2.559  0.00  0.00    -0.105 OA
ATOM     27  O   UNL     1     -31.115  28.312   1.986  0.00  0.00    -0.105 OA
ENDBRANCH  23  24
ENDBRANCH  18  23
BRANCH   3  28
ATOM     28  C   UNL     1     -39.231  23.151   2.457  0.00  0.00    -0.050 C 
BRANCH  28  29
ATOM     29  C   UNL     1     -39.358  21.741   1.966  0.00  0.00    -0.049 C 
ATOM     30  C   UNL     1     -39.922  21.404   0.801  0.00  0.00    -0.007 C 
ENDBRANCH  28  29
ENDBRANCH   3  28
TORSDOF 5
ENDMDL
MODEL 8
REMARK VINA RESULT:      -5.9      2.051      3.344
REMARK  Name = 5748372
REMARK  5 active torsions:
REMARK  status: ('A' for Active; 'I' for Inactive)
REMARK    1  A    between atoms: N_3  and  C_28
REMARK    2  A    between atoms: C_5  and  O_21
REMARK    3  A    between atoms: C_18  and  O_23
REMARK    4  A    between atoms: O_23  and  S_24
REMARK    5  A    between atoms: C_28  and  C_29
REMARK                            x       y       z     vdW  Elec       q    Type
REMARK                         _______ _______ _______ _____ _____    ______ ____
ROOT
ATOM      1  O   UNL     1     -37.423  22.411   0.888  0.00  0.00    -0.469 OA
ATOM      2  O   UNL     1     -40.062  22.325   1.481  0.00  0.00    -0.292 OA
ATOM      3  N   UNL     1     -35.709  26.752   3.178  0.00  0.00    +0.393 N 
ATOM      4  C   UNL     1     -37.185  24.547   1.997  0.00  0.00    +0.084 C 
ATOM      5  C   UNL     1     -37.837  25.524   2.986  0.00  0.00    +0.079 C 
ATOM      6  C   UNL     1     -36.704  25.979   3.968  0.00  0.00    -0.027 C 
ATOM      7  C   UNL     1     -38.101  23.689   1.111  0.00  0.00    +0.228 C 
ATOM      8  C   UNL     1     -36.092  25.281   1.185  0.00  0.00    -0.012 C 
ATOM      9  C   UNL     1     -36.556  23.422   2.744  0.00  0.00    +0.016 C 
ATOM     10  C   UNL     1     -39.067  24.909   3.678  0.00  0.00    +0.033 C 
ATOM     11  C   UNL     1     -36.099  24.778   4.777  0.00  0.00    +0.008 C 
ATOM     12  C   UNL     1     -35.075  25.998   2.093  0.00  0.00    -0.076 C 
ATOM     13  C   UNL     1     -35.984  23.493   4.000  0.00  0.00    -0.025 C 
ATOM     14  C   UNL     1     -40.078  24.411   2.647  0.00  0.00    +0.071 C 
ATOM     15  C   UNL     1     -39.458  23.366   1.746  0.00  0.00    +0.191 C 
ATOM     16  C   UNL     1     -36.668  22.249   2.026  0.00  0.00    +0.171 C 
ATOM     17  C   UNL     1     -35.420  22.319   4.500  0.00  0.00    -0.001 C 
ATOM     18  C   UNL     1     -36.106  21.083   2.494  0.00  0.00    +0.209 C 
ATOM     19  C   UNL     1     -35.466  21.129   3.740  0.00  0.00    +0.043 C 
ATOM     20  H   UNL     1     -36.275  27.470   2.725  0.00  0.00    -0.079 HD
ENDROOT
BRANCH   5  21
ATOM     21  O   UNL     1     -38.316  26.674   2.268  0.00  0.00    -0.388 OA
ATOM     22  H   UNL     1     -39.201  26.910   2.589  0.00  0.00    +0.210 HD
ENDBRANCH   5  21
BRANCH  18  23
ATOM     23  O   UNL     1     -36.191  19.923   1.797  0.00  0.00    -0.319 OA
BRANCH  23  24
ATOM     24  S   UNL     1     -34.980  19.523   0.754  0.00  0.00    +0.282 S 
ATOM     25  O   UNL     1     -33.724  19.173   1.735  0.00  0.00    -0.012 OA
ATOM     26  O   UNL     1     -35.349  18.310   0.049  0.00  0.00    -0.105 OA
ATOM     27  O   UNL     1     -34.625  20.715   0.005  0.00  0.00    -0.105 OA
ENDBRANCH  23  24
ENDBRANCH  18  23
BRANCH   3  28
ATOM     28  C   UNL     1     -34.722  27.444   3.998  0.00  0.00    -0.050 C 
BRANCH  28  29
ATOM     29  C   UNL     1     -33.325  27.039   3.640  0.00  0.00    -0.049 C 
ATOM     30  C   UNL     1     -32.270  27.860   3.696  0.00  0.00    -0.007 C 
ENDBRANCH  28  29
ENDBRANCH   3  28
TORSDOF 5
ENDMDL
MODEL 9
REMARK VINA RESULT:      -5.8      3.646      6.321
REMARK  Name = 5748372
REMARK  5 active torsions:
REMARK  status: ('A' for Active; 'I' for Inactive)
REMARK    1  A    between atoms: N_3  and  C_28
REMARK    2  A    between atoms: C_5  and  O_21
REMARK    3  A    between atoms: C_18  and  O_23
REMARK    4  A    between atoms: O_23  and  S_24
REMARK    5  A    between atoms: C_28  and  C_29
REMARK                            x       y       z     vdW  Elec       q    Type
REMARK                         _______ _______ _______ _____ _____    ______ ____
ROOT
ATOM      1  O   UNL     1     -35.573  27.372   3.189  0.00  0.00    -0.469 OA
ATOM      2  O   UNL     1     -33.914  27.642   1.068  0.00  0.00    -0.292 OA
ATOM      3  N   UNL     1     -38.720  23.442   1.897  0.00  0.00    +0.393 N 
ATOM      4  C   UNL     1     -36.821  25.634   2.064  0.00  0.00    +0.084 C 
ATOM      5  C   UNL     1     -36.801  24.627   0.905  0.00  0.00    +0.079 C 
ATOM      6  C   UNL     1     -37.300  23.264   1.496  0.00  0.00    -0.027 C 
ATOM      7  C   UNL     1     -36.090  26.972   1.880  0.00  0.00    +0.228 C 
ATOM      8  C   UNL     1     -38.272  25.815   2.569  0.00  0.00    -0.012 C 
ATOM      9  C   UNL     1     -35.981  25.125   3.185  0.00  0.00    +0.016 C 
ATOM     10  C   UNL     1     -35.420  24.556   0.227  0.00  0.00    +0.033 C 
ATOM     11  C   UNL     1     -36.365  22.730   2.637  0.00  0.00    +0.008 C 
ATOM     12  C   UNL     1     -38.940  24.471   2.918  0.00  0.00    -0.076 C 
ATOM     13  C   UNL     1     -35.791  23.800   3.530  0.00  0.00    -0.025 C 
ATOM     14  C   UNL     1     -34.971  25.942  -0.236  0.00  0.00    +0.071 C 
ATOM     15  C   UNL     1     -34.888  26.899   0.932  0.00  0.00    +0.191 C 
ATOM     16  C   UNL     1     -35.352  26.173   3.824  0.00  0.00    +0.171 C 
ATOM     17  C   UNL     1     -34.987  23.550   4.641  0.00  0.00    -0.001 C 
ATOM     18  C   UNL     1     -34.566  25.950   4.932  0.00  0.00    +0.209 C 
ATOM     19  C   UNL     1     -34.395  24.621   5.347  0.00  0.00    +0.043 C 
ATOM     20  H   UNL     1     -39.162  23.793   1.047  0.00  0.00    -0.079 HD
ENDROOT
BRANCH   5  21
ATOM     21  O   UNL     1     -37.723  25.056  -0.111  0.00  0.00    -0.388 OA
ATOM     22  H   UNL     1     -37.508  25.963  -0.380  0.00  0.00    +0.210 HD
ENDBRANCH   5  21
BRANCH  18  23
ATOM     23  O   UNL     1     -33.951  26.967   5.585  0.00  0.00    -0.319 OA
BRANCH  23  24
ATOM     24  S   UNL     1     -32.552  27.584   4.971  0.00  0.00    +0.282 S 
ATOM     25  O   UNL     1     -32.971  29.085   4.486  0.00  0.00    -0.012 OA
ATOM     26  O   UNL     1     -31.585  27.716   6.045  0.00  0.00    -0.105 OA
ATOM     27  O   UNL     1     -32.214  26.824   3.782  0.00  0.00    -0.105 OA
ENDBRANCH  23  24
ENDBRANCH  18  23
BRANCH   3  28
ATOM     28  C   UNL     1     -39.392  22.194   2.241  0.00  0.00    -0.050 C 
BRANCH  28  29
ATOM     29  C   UNL     1     -39.777  21.420   1.017  0.00  0.00    -0.049 C 
ATOM     30  C   UNL     1     -40.362  21.961  -0.057  0.00  0.00    -0.007 C 
ENDBRANCH  28  29
ENDBRANCH   3  28
TORSDOF 5
ENDMDL
