MODEL 1
REMARK VINA RESULT:      -6.4      0.000      0.000
REMARK  Name = 5284627
REMARK  4 active torsions:
REMARK  status: ('A' for Active; 'I' for Inactive)
REMARK    1  A    between atoms: C_8  and  C_17
REMARK    2  A    between atoms: C_17  and  O_18
REMARK    3  A    between atoms: O_18  and  S_19
REMARK    4  A    between atoms: S_19  and  N_22
REMARK                            x       y       z     vdW  Elec       q    Type
REMARK                         _______ _______ _______ _____ _____    ______ ____
ROOT
ATOM      1  O   UNL     1     -34.403  23.492   4.843  0.00  0.00    -0.329 OA
ATOM      2  O   UNL     1     -36.077  24.286   2.584  0.00  0.00    -0.328 OA
ATOM      3  O   UNL     1     -36.706  23.177   4.546  0.00  0.00    -0.310 OA
ATOM      4  O   UNL     1     -34.529  27.113   4.315  0.00  0.00    -0.332 OA
ATOM      5  O   UNL     1     -33.603  26.950   2.164  0.00  0.00    -0.332 OA
ATOM      6  C   UNL     1     -35.050  24.772   4.759  0.00  0.00    +0.201 C 
ATOM      7  C   UNL     1     -34.114  25.763   4.097  0.00  0.00    +0.179 C 
ATOM      8  C   UNL     1     -36.322  24.446   3.986  0.00  0.00    +0.247 C 
ATOM      9  C   UNL     1     -34.074  25.665   2.586  0.00  0.00    +0.177 C 
ATOM     10  C   UNL     1     -35.439  25.397   1.969  0.00  0.00    +0.177 C 
ATOM     11  C   UNL     1     -35.476  22.547   4.937  0.00  0.00    +0.190 C 
ATOM     12  C   UNL     1     -33.912  27.848   3.245  0.00  0.00    +0.187 C 
ATOM     13  C   UNL     1     -35.183  21.380   4.003  0.00  0.00    +0.061 C 
ATOM     14  C   UNL     1     -35.611  22.075   6.380  0.00  0.00    +0.061 C 
ATOM     15  C   UNL     1     -32.609  28.473   3.740  0.00  0.00    +0.061 C 
ATOM     16  C   UNL     1     -34.872  28.926   2.763  0.00  0.00    +0.061 C 
ENDROOT
BRANCH   8  17
ATOM     17  C   UNL     1     -37.463  25.426   4.233  0.00  0.00    +0.232 C 
BRANCH  17  18
ATOM     18  O   UNL     1     -38.663  24.855   3.743  0.00  0.00    -0.224 OA
BRANCH  18  19
ATOM     19  S   UNL     1     -39.620  25.713   2.727  0.00  0.00    +0.046 S 
ATOM     20  O   UNL     1     -38.794  26.673   2.018  0.00  0.00    -0.056 OA
ATOM     21  O   UNL     1     -40.428  24.762   1.985  0.00  0.00    -0.056 OA
BRANCH  19  22
ATOM     22  N   UNL     1     -40.667  26.579   3.772  0.00  0.00    -0.204 NA
ATOM     23  H   UNL     1     -41.624  26.253   3.641  0.00  0.00    +0.144 HD
ATOM     24  H   UNL     1     -40.615  27.575   3.556  0.00  0.00    +0.144 HD
ENDBRANCH  19  22
ENDBRANCH  18  19
ENDBRANCH  17  18
ENDBRANCH   8  17
TORSDOF 4
ENDMDL
MODEL 2
REMARK VINA RESULT:      -6.4      3.199      5.022
REMARK  Name = 5284627
REMARK  4 active torsions:
REMARK  status: ('A' for Active; 'I' for Inactive)
REMARK    1  A    between atoms: C_8  and  C_17
REMARK    2  A    between atoms: C_17  and  O_18
REMARK    3  A    between atoms: O_18  and  S_19
REMARK    4  A    between atoms: S_19  and  N_22
REMARK                            x       y       z     vdW  Elec       q    Type
REMARK                         _______ _______ _______ _____ _____    ______ ____
ROOT
ATOM      1  O   UNL     1     -36.661  24.506   4.977  0.00  0.00    -0.329 OA
ATOM      2  O   UNL     1     -35.548  25.507   2.468  0.00  0.00    -0.328 OA
ATOM      3  O   UNL     1     -34.824  23.700   3.766  0.00  0.00    -0.310 OA
ATOM      4  O   UNL     1     -38.988  24.299   2.158  0.00  0.00    -0.332 OA
ATOM      5  O   UNL     1     -38.974  26.623   1.824  0.00  0.00    -0.332 OA
ATOM      6  C   UNL     1     -37.104  24.054   3.688  0.00  0.00    +0.201 C 
ATOM      7  C   UNL     1     -38.266  24.911   3.229  0.00  0.00    +0.179 C 
ATOM      8  C   UNL     1     -35.836  24.158   2.850  0.00  0.00    +0.247 C 
ATOM      9  C   UNL     1     -37.859  26.245   2.640  0.00  0.00    +0.177 C 
ATOM     10  C   UNL     1     -36.606  26.160   1.780  0.00  0.00    +0.177 C 
ATOM     11  C   UNL     1     -35.301  24.063   5.071  0.00  0.00    +0.190 C 
ATOM     12  C   UNL     1     -39.658  25.396   1.514  0.00  0.00    +0.187 C 
ATOM     13  C   UNL     1     -34.454  25.201   5.625  0.00  0.00    +0.061 C 
ATOM     14  C   UNL     1     -35.229  22.836   5.972  0.00  0.00    +0.061 C 
ATOM     15  C   UNL     1     -41.090  25.497   2.036  0.00  0.00    +0.061 C 
ATOM     16  C   UNL     1     -39.654  25.167   0.009  0.00  0.00    +0.061 C 
ENDROOT
BRANCH   8  17
ATOM     17  C   UNL     1     -35.817  23.231   1.640  0.00  0.00    +0.232 C 
BRANCH  17  18
ATOM     18  O   UNL     1     -36.461  22.019   1.988  0.00  0.00    -0.224 OA
BRANCH  18  19
ATOM     19  S   UNL     1     -35.599  20.629   2.068  0.00  0.00    +0.046 S 
ATOM     20  O   UNL     1     -34.542  20.686   1.075  0.00  0.00    -0.056 OA
ATOM     21  O   UNL     1     -35.272  20.400   3.463  0.00  0.00    -0.056 OA
BRANCH  19  22
ATOM     22  N   UNL     1     -36.715  19.418   1.591  0.00  0.00    -0.204 NA
ATOM     23  H   UNL     1     -37.345  19.213   2.366  0.00  0.00    +0.144 HD
ATOM     24  H   UNL     1     -36.208  18.571   1.333  0.00  0.00    +0.144 HD
ENDBRANCH  19  22
ENDBRANCH  18  19
ENDBRANCH  17  18
ENDBRANCH   8  17
TORSDOF 4
ENDMDL
MODEL 3
REMARK VINA RESULT:      -6.0      2.677      5.085
REMARK  Name = 5284627
REMARK  4 active torsions:
REMARK  status: ('A' for Active; 'I' for Inactive)
REMARK    1  A    between atoms: C_8  and  C_17
REMARK    2  A    between atoms: C_17  and  O_18
REMARK    3  A    between atoms: O_18  and  S_19
REMARK    4  A    between atoms: S_19  and  N_22
REMARK                            x       y       z     vdW  Elec       q    Type
REMARK                         _______ _______ _______ _____ _____    ______ ____
ROOT
ATOM      1  O   UNL     1     -32.902  25.908   4.432  0.00  0.00    -0.329 OA
ATOM      2  O   UNL     1     -35.650  26.630   5.113  0.00  0.00    -0.328 OA
ATOM      3  O   UNL     1     -34.028  27.925   4.032  0.00  0.00    -0.310 OA
ATOM      4  O   UNL     1     -35.416  23.830   2.769  0.00  0.00    -0.332 OA
ATOM      5  O   UNL     1     -36.276  23.037   4.804  0.00  0.00    -0.332 OA
ATOM      6  C   UNL     1     -34.015  25.665   3.558  0.00  0.00    +0.201 C 
ATOM      7  C   UNL     1     -34.572  24.281   3.830  0.00  0.00    +0.179 C 
ATOM      8  C   UNL     1     -34.946  26.826   3.881  0.00  0.00    +0.247 C 
ATOM      9  C   UNL     1     -35.481  24.205   5.038  0.00  0.00    +0.177 C 
ATOM     10  C   UNL     1     -36.389  25.418   5.179  0.00  0.00    +0.177 C 
ATOM     11  C   UNL     1     -32.810  27.336   4.515  0.00  0.00    +0.190 C 
ATOM     12  C   UNL     1     -36.243  22.826   3.381  0.00  0.00    +0.187 C 
ATOM     13  C   UNL     1     -32.598  27.728   5.971  0.00  0.00    +0.061 C 
ATOM     14  C   UNL     1     -31.658  27.822   3.642  0.00  0.00    +0.061 C 
ATOM     15  C   UNL     1     -35.653  21.444   3.112  0.00  0.00    +0.061 C 
ATOM     16  C   UNL     1     -37.651  22.926   2.811  0.00  0.00    +0.061 C 
ENDROOT
BRANCH   8  17
ATOM     17  C   UNL     1     -35.909  27.179   2.753  0.00  0.00    +0.232 C 
BRANCH  17  18
ATOM     18  O   UNL     1     -35.218  27.964   1.798  0.00  0.00    -0.224 OA
BRANCH  18  19
ATOM     19  S   UNL     1     -35.670  29.516   1.535  0.00  0.00    +0.046 S 
ATOM     20  O   UNL     1     -34.703  30.132   0.645  0.00  0.00    -0.056 OA
ATOM     21  O   UNL     1     -37.078  29.503   1.181  0.00  0.00    -0.056 OA
BRANCH  19  22
ATOM     22  N   UNL     1     -35.528  30.259   3.073  0.00  0.00    -0.204 NA
ATOM     23  H   UNL     1     -35.200  29.572   3.753  0.00  0.00    +0.144 HD
ATOM     24  H   UNL     1     -36.438  30.616   3.363  0.00  0.00    +0.144 HD
ENDBRANCH  19  22
ENDBRANCH  18  19
ENDBRANCH  17  18
ENDBRANCH   8  17
TORSDOF 4
ENDMDL
MODEL 4
REMARK VINA RESULT:      -5.7      2.566      4.023
REMARK  Name = 5284627
REMARK  4 active torsions:
REMARK  status: ('A' for Active; 'I' for Inactive)
REMARK    1  A    between atoms: C_8  and  C_17
REMARK    2  A    between atoms: C_17  and  O_18
REMARK    3  A    between atoms: O_18  and  S_19
REMARK    4  A    between atoms: S_19  and  N_22
REMARK                            x       y       z     vdW  Elec       q    Type
REMARK                         _______ _______ _______ _____ _____    ______ ____
ROOT
ATOM      1  O   UNL     1     -34.753  23.679   3.713  0.00  0.00    -0.329 OA
ATOM      2  O   UNL     1     -36.410  21.381   3.001  0.00  0.00    -0.328 OA
ATOM      3  O   UNL     1     -36.970  23.228   4.325  0.00  0.00    -0.310 OA
ATOM      4  O   UNL     1     -35.371  23.378   0.117  0.00  0.00    -0.332 OA
ATOM      5  O   UNL     1     -34.326  21.280  -0.005  0.00  0.00    -0.332 OA
ATOM      6  C   UNL     1     -35.572  23.639   2.534  0.00  0.00    +0.201 C 
ATOM      7  C   UNL     1     -34.757  23.098   1.377  0.00  0.00    +0.179 C 
ATOM      8  C   UNL     1     -36.744  22.773   2.978  0.00  0.00    +0.247 C 
ATOM      9  C   UNL     1     -34.628  21.590   1.360  0.00  0.00    +0.177 C 
ATOM     10  C   UNL     1     -35.909  20.877   1.771  0.00  0.00    +0.177 C 
ATOM     11  C   UNL     1     -35.683  23.649   4.804  0.00  0.00    +0.190 C 
ATOM     12  C   UNL     1     -34.813  22.396  -0.772  0.00  0.00    +0.187 C 
ATOM     13  C   UNL     1     -35.180  22.662   5.848  0.00  0.00    +0.061 C 
ATOM     14  C   UNL     1     -35.821  25.048   5.392  0.00  0.00    +0.061 C 
ATOM     15  C   UNL     1     -33.639  23.005  -1.535  0.00  0.00    +0.061 C 
ATOM     16  C   UNL     1     -35.893  21.928  -1.737  0.00  0.00    +0.061 C 
ENDROOT
BRANCH   8  17
ATOM     17  C   UNL     1     -38.025  23.015   2.187  0.00  0.00    +0.232 C 
BRANCH  17  18
ATOM     18  O   UNL     1     -38.049  24.367   1.767  0.00  0.00    -0.224 OA
BRANCH  18  19
ATOM     19  S   UNL     1     -39.248  25.360   2.276  0.00  0.00    +0.046 S 
ATOM     20  O   UNL     1     -38.763  26.727   2.230  0.00  0.00    -0.056 OA
ATOM     21  O   UNL     1     -40.452  24.992   1.555  0.00  0.00    -0.056 OA
BRANCH  19  22
ATOM     22  N   UNL     1     -39.475  24.929   3.920  0.00  0.00    -0.204 NA
ATOM     23  H   UNL     1     -40.030  24.075   3.974  0.00  0.00    +0.144 HD
ATOM     24  H   UNL     1     -39.965  25.682   4.404  0.00  0.00    +0.144 HD
ENDBRANCH  19  22
ENDBRANCH  18  19
ENDBRANCH  17  18
ENDBRANCH   8  17
TORSDOF 4
ENDMDL
MODEL 5
REMARK VINA RESULT:      -5.6      3.114      5.688
REMARK  Name = 5284627
REMARK  4 active torsions:
REMARK  status: ('A' for Active; 'I' for Inactive)
REMARK    1  A    between atoms: C_8  and  C_17
REMARK    2  A    between atoms: C_17  and  O_18
REMARK    3  A    between atoms: O_18  and  S_19
REMARK    4  A    between atoms: S_19  and  N_22
REMARK                            x       y       z     vdW  Elec       q    Type
REMARK                         _______ _______ _______ _____ _____    ______ ____
ROOT
ATOM      1  O   UNL     1     -38.802  23.895   1.889  0.00  0.00    -0.329 OA
ATOM      2  O   UNL     1     -35.960  24.562   1.995  0.00  0.00    -0.328 OA
ATOM      3  O   UNL     1     -37.660  25.188   3.476  0.00  0.00    -0.310 OA
ATOM      4  O   UNL     1     -36.627  20.974   2.265  0.00  0.00    -0.332 OA
ATOM      5  O   UNL     1     -35.529  21.384   0.231  0.00  0.00    -0.332 OA
ATOM      6  C   UNL     1     -37.830  23.076   2.557  0.00  0.00    +0.201 C 
ATOM      7  C   UNL     1     -37.299  22.039   1.588  0.00  0.00    +0.179 C 
ATOM      8  C   UNL     1     -36.817  24.103   3.046  0.00  0.00    +0.247 C 
ATOM      9  C   UNL     1     -36.237  22.559   0.643  0.00  0.00    +0.177 C 
ATOM     10  C   UNL     1     -35.269  23.527   1.309  0.00  0.00    +0.177 C 
ATOM     11  C   UNL     1     -38.823  25.118   2.636  0.00  0.00    +0.190 C 
ATOM     12  C   UNL     1     -35.766  20.409   1.262  0.00  0.00    +0.187 C 
ATOM     13  C   UNL     1     -38.817  26.287   1.661  0.00  0.00    +0.061 C 
ATOM     14  C   UNL     1     -40.062  25.150   3.523  0.00  0.00    +0.061 C 
ATOM     15  C   UNL     1     -36.443  19.195   0.632  0.00  0.00    +0.061 C 
ATOM     16  C   UNL     1     -34.447  20.009   1.908  0.00  0.00    +0.061 C 
ENDROOT
BRANCH   8  17
ATOM     17  C   UNL     1     -36.004  23.643   4.252  0.00  0.00    +0.232 C 
BRANCH  17  18
ATOM     18  O   UNL     1     -35.872  24.731   5.149  0.00  0.00    -0.224 OA
BRANCH  18  19
ATOM     19  S   UNL     1     -34.608  25.761   5.002  0.00  0.00    +0.046 S 
ATOM     20  O   UNL     1     -34.304  26.307   6.312  0.00  0.00    -0.056 OA
ATOM     21  O   UNL     1     -33.576  25.078   4.243  0.00  0.00    -0.056 OA
BRANCH  19  22
ATOM     22  N   UNL     1     -35.217  27.031   4.024  0.00  0.00    -0.204 NA
ATOM     23  H   UNL     1     -35.970  26.675   3.435  0.00  0.00    +0.144 HD
ATOM     24  H   UNL     1     -34.468  27.395   3.434  0.00  0.00    +0.144 HD
ENDBRANCH  19  22
ENDBRANCH  18  19
ENDBRANCH  17  18
ENDBRANCH   8  17
TORSDOF 4
ENDMDL
MODEL 6
REMARK VINA RESULT:      -5.6      2.479      4.040
REMARK  Name = 5284627
REMARK  4 active torsions:
REMARK  status: ('A' for Active; 'I' for Inactive)
REMARK    1  A    between atoms: C_8  and  C_17
REMARK    2  A    between atoms: C_17  and  O_18
REMARK    3  A    between atoms: O_18  and  S_19
REMARK    4  A    between atoms: S_19  and  N_22
REMARK                            x       y       z     vdW  Elec       q    Type
REMARK                         _______ _______ _______ _____ _____    ______ ____
ROOT
ATOM      1  O   UNL     1     -37.963  21.918   1.597  0.00  0.00    -0.329 OA
ATOM      2  O   UNL     1     -36.380  24.321   1.097  0.00  0.00    -0.328 OA
ATOM      3  O   UNL     1     -38.612  23.902   0.532  0.00  0.00    -0.310 OA
ATOM      4  O   UNL     1     -36.822  23.581   4.652  0.00  0.00    -0.332 OA
ATOM      5  O   UNL     1     -34.558  23.296   4.101  0.00  0.00    -0.332 OA
ATOM      6  C   UNL     1     -37.877  23.007   2.529  0.00  0.00    +0.201 C 
ATOM      7  C   UNL     1     -36.734  22.752   3.491  0.00  0.00    +0.179 C 
ATOM      8  C   UNL     1     -37.711  24.212   1.612  0.00  0.00    +0.247 C 
ATOM      9  C   UNL     1     -35.367  23.095   2.937  0.00  0.00    +0.177 C 
ATOM     10  C   UNL     1     -35.367  24.362   2.093  0.00  0.00    +0.177 C 
ATOM     11  C   UNL     1     -38.633  22.468   0.455  0.00  0.00    +0.190 C 
ATOM     12  C   UNL     1     -35.478  23.618   5.160  0.00  0.00    +0.187 C 
ATOM     13  C   UNL     1     -37.905  22.015  -0.804  0.00  0.00    +0.061 C 
ATOM     14  C   UNL     1     -40.085  22.005   0.446  0.00  0.00    +0.061 C 
ATOM     15  C   UNL     1     -35.320  22.579   6.268  0.00  0.00    +0.061 C 
ATOM     16  C   UNL     1     -35.186  25.014   5.692  0.00  0.00    +0.061 C 
ENDROOT
BRANCH   8  17
ATOM     17  C   UNL     1     -38.168  25.528   2.232  0.00  0.00    +0.232 C 
BRANCH  17  18
ATOM     18  O   UNL     1     -39.416  25.319   2.866  0.00  0.00    -0.224 OA
BRANCH  18  19
ATOM     19  S   UNL     1     -40.716  26.214   2.425  0.00  0.00    +0.046 S 
ATOM     20  O   UNL     1     -40.269  27.260   1.523  0.00  0.00    -0.056 OA
ATOM     21  O   UNL     1     -41.756  25.292   2.008  0.00  0.00    -0.056 OA
BRANCH  19  22
ATOM     22  N   UNL     1     -41.229  26.951   3.884  0.00  0.00    -0.204 NA
ATOM     23  H   UNL     1     -41.809  26.297   4.410  0.00  0.00    +0.144 HD
ATOM     24  H   UNL     1     -41.772  27.788   3.670  0.00  0.00    +0.144 HD
ENDBRANCH  19  22
ENDBRANCH  18  19
ENDBRANCH  17  18
ENDBRANCH   8  17
TORSDOF 4
ENDMDL
MODEL 7
REMARK VINA RESULT:      -5.6      2.222      3.288
REMARK  Name = 5284627
REMARK  4 active torsions:
REMARK  status: ('A' for Active; 'I' for Inactive)
REMARK    1  A    between atoms: C_8  and  C_17
REMARK    2  A    between atoms: C_17  and  O_18
REMARK    3  A    between atoms: O_18  and  S_19
REMARK    4  A    between atoms: S_19  and  N_22
REMARK                            x       y       z     vdW  Elec       q    Type
REMARK                         _______ _______ _______ _____ _____    ______ ____
ROOT
ATOM      1  O   UNL     1     -37.647  24.449   4.097  0.00  0.00    -0.329 OA
ATOM      2  O   UNL     1     -35.739  24.753   1.906  0.00  0.00    -0.328 OA
ATOM      3  O   UNL     1     -38.034  25.211   1.914  0.00  0.00    -0.310 OA
ATOM      4  O   UNL     1     -34.995  26.874   4.793  0.00  0.00    -0.332 OA
ATOM      5  O   UNL     1     -33.304  25.259   4.591  0.00  0.00    -0.332 OA
ATOM      6  C   UNL     1     -36.896  25.652   3.874  0.00  0.00    +0.201 C 
ATOM      7  C   UNL     1     -35.604  25.588   4.664  0.00  0.00    +0.179 C 
ATOM      8  C   UNL     1     -36.743  25.668   2.359  0.00  0.00    +0.247 C 
ATOM      9  C   UNL     1     -34.515  24.765   4.008  0.00  0.00    +0.177 C 
ATOM     10  C   UNL     1     -34.461  24.945   2.497  0.00  0.00    +0.177 C 
ATOM     11  C   UNL     1     -38.505  24.338   2.953  0.00  0.00    +0.190 C 
ATOM     12  C   UNL     1     -33.613  26.584   5.059  0.00  0.00    +0.187 C 
ATOM     13  C   UNL     1     -38.479  22.898   2.460  0.00  0.00    +0.061 C 
ATOM     14  C   UNL     1     -39.918  24.762   3.336  0.00  0.00    +0.061 C 
ATOM     15  C   UNL     1     -33.361  26.634   6.565  0.00  0.00    +0.061 C 
ATOM     16  C   UNL     1     -32.742  27.603   4.338  0.00  0.00    +0.061 C 
ENDROOT
BRANCH   8  17
ATOM     17  C   UNL     1     -36.518  27.058   1.775  0.00  0.00    +0.232 C 
BRANCH  17  18
ATOM     18  O   UNL     1     -36.945  27.056   0.425  0.00  0.00    -0.224 OA
BRANCH  18  19
ATOM     19  S   UNL     1     -38.097  28.110  -0.069  0.00  0.00    +0.046 S 
ATOM     20  O   UNL     1     -37.791  29.418   0.482  0.00  0.00    -0.056 OA
ATOM     21  O   UNL     1     -38.252  27.945  -1.503  0.00  0.00    -0.056 OA
BRANCH  19  22
ATOM     22  N   UNL     1     -39.532  27.541   0.677  0.00  0.00    -0.204 NA
ATOM     23  H   UNL     1     -39.371  26.606   1.054  0.00  0.00    +0.144 HD
ATOM     24  H   UNL     1     -40.282  27.503  -0.013  0.00  0.00    +0.144 HD
ENDBRANCH  19  22
ENDBRANCH  18  19
ENDBRANCH  17  18
ENDBRANCH   8  17
TORSDOF 4
ENDMDL
MODEL 8
REMARK VINA RESULT:      -5.4      3.394      4.731
REMARK  Name = 5284627
REMARK  4 active torsions:
REMARK  status: ('A' for Active; 'I' for Inactive)
REMARK    1  A    between atoms: C_8  and  C_17
REMARK    2  A    between atoms: C_17  and  O_18
REMARK    3  A    between atoms: O_18  and  S_19
REMARK    4  A    between atoms: S_19  and  N_22
REMARK                            x       y       z     vdW  Elec       q    Type
REMARK                         _______ _______ _______ _____ _____    ______ ____
ROOT
ATOM      1  O   UNL     1     -38.188  24.380   0.922  0.00  0.00    -0.329 OA
ATOM      2  O   UNL     1     -37.781  24.219   3.811  0.00  0.00    -0.328 OA
ATOM      3  O   UNL     1     -38.370  22.510   2.324  0.00  0.00    -0.310 OA
ATOM      4  O   UNL     1     -34.778  25.204   1.968  0.00  0.00    -0.332 OA
ATOM      5  O   UNL     1     -35.492  27.022   3.270  0.00  0.00    -0.332 OA
ATOM      6  C   UNL     1     -36.910  24.108   1.519  0.00  0.00    +0.201 C 
ATOM      7  C   UNL     1     -36.172  25.414   1.736  0.00  0.00    +0.179 C 
ATOM      8  C   UNL     1     -37.294  23.349   2.783  0.00  0.00    +0.247 C 
ATOM      9  C   UNL     1     -36.607  26.176   2.970  0.00  0.00    +0.177 C 
ATOM     10  C   UNL     1     -36.891  25.270   4.160  0.00  0.00    +0.177 C 
ATOM     11  C   UNL     1     -38.997  23.246   1.261  0.00  0.00    +0.190 C 
ATOM     12  C   UNL     1     -34.353  26.393   2.655  0.00  0.00    +0.187 C 
ATOM     13  C   UNL     1     -40.362  23.739   1.721  0.00  0.00    +0.061 C 
ATOM     14  C   UNL     1     -39.123  22.332   0.049  0.00  0.00    +0.061 C 
ATOM     15  C   UNL     1     -33.744  27.372   1.654  0.00  0.00    +0.061 C 
ATOM     16  C   UNL     1     -33.333  26.015   3.720  0.00  0.00    +0.061 C 
ENDROOT
BRANCH   8  17
ATOM     17  C   UNL     1     -36.192  22.439   3.314  0.00  0.00    +0.232 C 
BRANCH  17  18
ATOM     18  O   UNL     1     -35.437  21.955   2.218  0.00  0.00    -0.224 OA
BRANCH  18  19
ATOM     19  S   UNL     1     -35.504  20.369   1.817  0.00  0.00    +0.046 S 
ATOM     20  O   UNL     1     -35.721  20.265   0.385  0.00  0.00    -0.056 OA
ATOM     21  O   UNL     1     -34.360  19.718   2.426  0.00  0.00    -0.056 OA
BRANCH  19  22
ATOM     22  N   UNL     1     -36.911  19.797   2.612  0.00  0.00    -0.204 NA
ATOM     23  H   UNL     1     -37.359  20.568   3.107  0.00  0.00    +0.144 HD
ATOM     24  H   UNL     1     -36.652  19.070   3.280  0.00  0.00    +0.144 HD
ENDBRANCH  19  22
ENDBRANCH  18  19
ENDBRANCH  17  18
ENDBRANCH   8  17
TORSDOF 4
ENDMDL
MODEL 9
REMARK VINA RESULT:      -5.4      2.872      4.734
REMARK  Name = 5284627
REMARK  4 active torsions:
REMARK  status: ('A' for Active; 'I' for Inactive)
REMARK    1  A    between atoms: C_8  and  C_17
REMARK    2  A    between atoms: C_17  and  O_18
REMARK    3  A    between atoms: O_18  and  S_19
REMARK    4  A    between atoms: S_19  and  N_22
REMARK                            x       y       z     vdW  Elec       q    Type
REMARK                         _______ _______ _______ _____ _____    ______ ____
ROOT
ATOM      1  O   UNL     1     -38.612  22.787   1.559  0.00  0.00    -0.329 OA
ATOM      2  O   UNL     1     -36.466  24.703   1.052  0.00  0.00    -0.328 OA
ATOM      3  O   UNL     1     -38.761  24.949   0.668  0.00  0.00    -0.310 OA
ATOM      4  O   UNL     1     -36.840  23.834   4.587  0.00  0.00    -0.332 OA
ATOM      5  O   UNL     1     -34.789  22.991   3.819  0.00  0.00    -0.332 OA
ATOM      6  C   UNL     1     -38.161  23.735   2.539  0.00  0.00    +0.201 C 
ATOM      7  C   UNL     1     -37.068  23.106   3.378  0.00  0.00    +0.179 C 
ATOM      8  C   UNL     1     -37.735  24.918   1.678  0.00  0.00    +0.247 C 
ATOM      9  C   UNL     1     -35.703  23.108   2.723  0.00  0.00    +0.177 C 
ATOM     10  C   UNL     1     -35.413  24.390   1.954  0.00  0.00    +0.177 C 
ATOM     11  C   UNL     1     -39.183  23.585   0.514  0.00  0.00    +0.190 C 
ATOM     12  C   UNL     1     -35.506  23.467   4.972  0.00  0.00    +0.187 C 
ATOM     13  C   UNL     1     -38.701  23.051  -0.828  0.00  0.00    +0.061 C 
ATOM     14  C   UNL     1     -40.703  23.535   0.611  0.00  0.00    +0.061 C 
ATOM     15  C   UNL     1     -35.563  22.340   6.002  0.00  0.00    +0.061 C 
ATOM     16  C   UNL     1     -34.802  24.685   5.553  0.00  0.00    +0.061 C 
ENDROOT
BRANCH   8  17
ATOM     17  C   UNL     1     -37.765  26.256   2.409  0.00  0.00    +0.232 C 
BRANCH  17  18
ATOM     18  O   UNL     1     -37.597  27.293   1.460  0.00  0.00    -0.224 OA
BRANCH  18  19
ATOM     19  S   UNL     1     -36.253  28.228   1.500  0.00  0.00    +0.046 S 
ATOM     20  O   UNL     1     -35.334  27.755   0.481  0.00  0.00    -0.056 OA
ATOM     21  O   UNL     1     -36.687  29.613   1.499  0.00  0.00    -0.056 OA
BRANCH  19  22
ATOM     22  N   UNL     1     -35.563  27.900   3.035  0.00  0.00    -0.204 NA
ATOM     23  H   UNL     1     -34.567  28.121   3.013  0.00  0.00    +0.144 HD
ATOM     24  H   UNL     1     -35.687  26.913   3.259  0.00  0.00    +0.144 HD
ENDBRANCH  19  22
ENDBRANCH  18  19
ENDBRANCH  17  18
ENDBRANCH   8  17
TORSDOF 4
ENDMDL
