MODEL 1
REMARK VINA RESULT:      -6.1      0.000      0.000
REMARK  Name = 53248734
REMARK  10 active torsions:
REMARK  status: ('A' for Active; 'I' for Inactive)
REMARK    1  A    between atoms: O_1  and  C_9
REMARK    2  A    between atoms: O_1  and  C_18
REMARK    3  A    between atoms: C_4  and  C_14
REMARK    4  A    between atoms: C_8  and  O_12
REMARK    5  A    between atoms: C_14  and  O_15
REMARK    6  A    between atoms: C_19  and  O_23
REMARK    7  A    between atoms: C_20  and  O_25
REMARK    8  A    between atoms: C_21  and  C_29
REMARK    9  A    between atoms: C_22  and  O_27
REMARK   10  A    between atoms: C_29  and  O_30
REMARK                            x       y       z     vdW  Elec       q    Type
REMARK                         _______ _______ _______ _____ _____    ______ ____
ROOT
ATOM      1  O   UNL     1     -36.395  25.087   2.088  0.00  0.00    -0.293 OA
ENDROOT
BRANCH   1   9
ATOM      2  O   UNL     1     -34.965  28.929   3.597  0.00  0.00    -0.351 OA
ATOM      3  O   UNL     1     -35.357  24.022   3.885  0.00  0.00    -0.450 OA
ATOM      4  C   UNL     1     -35.144  27.678   2.919  0.00  0.00    +0.153 C 
ATOM      5  C   UNL     1     -33.790  28.178   3.268  0.00  0.00    +0.170 C 
ATOM      6  C   UNL     1     -35.475  26.495   3.796  0.00  0.00    +0.107 C 
ATOM      7  C   UNL     1     -34.454  26.594   4.962  0.00  0.00    +0.063 C 
ATOM      8  C   UNL     1     -33.226  27.319   4.358  0.00  0.00    +0.149 C 
ATOM      9  C   UNL     1     -35.323  25.172   3.028  0.00  0.00    +0.292 C 
ATOM     10  C   UNL     1     -34.123  25.259   5.543  0.00  0.00    +0.016 C 
ATOM     11  C   UNL     1     -34.598  24.126   5.017  0.00  0.00    +0.171 C 
BRANCH   8  12
ATOM     12  O   UNL     1     -32.582  28.129   5.327  0.00  0.00    -0.351 OA
ATOM     13  C   UNL     1     -31.542  28.909   4.751  0.00  0.00    +0.174 C 
ENDBRANCH   8  12
BRANCH   4  14
ATOM     14  C   UNL     1     -35.706  27.834   1.560  0.00  0.00    +0.167 C 
BRANCH  14  15
ATOM     15  O   UNL     1     -37.135  27.888   1.616  0.00  0.00    -0.379 OA
ATOM     16  H   UNL     1     -37.453  28.629   1.076  0.00  0.00    +0.211 HD
ENDBRANCH  14  15
ENDBRANCH   4  14
ENDBRANCH   1   9
BRANCH   1  18
ATOM     17  O   UNL     1     -36.994  22.852   1.790  0.00  0.00    -0.326 OA
ATOM     18  C   UNL     1     -37.327  24.069   2.454  0.00  0.00    +0.268 C 
ATOM     19  C   UNL     1     -38.722  24.539   2.044  0.00  0.00    +0.197 C 
ATOM     20  C   UNL     1     -39.765  23.443   2.261  0.00  0.00    +0.172 C 
ATOM     21  C   UNL     1     -37.877  21.782   2.133  0.00  0.00    +0.176 C 
ATOM     22  C   UNL     1     -39.299  22.111   1.674  0.00  0.00    +0.169 C 
BRANCH  19  23
ATOM     23  O   UNL     1     -39.060  25.679   2.833  0.00  0.00    -0.378 OA
ATOM     24  H   UNL     1     -38.478  25.720   3.607  0.00  0.00    +0.211 HD
ENDBRANCH  19  23
BRANCH  20  25
ATOM     25  O   UNL     1     -40.984  23.810   1.614  0.00  0.00    -0.379 OA
ATOM     26  H   UNL     1     -41.467  23.010   1.357  0.00  0.00    +0.211 HD
ENDBRANCH  20  25
BRANCH  22  27
ATOM     27  O   UNL     1     -40.182  21.074   2.095  0.00  0.00    -0.379 OA
ATOM     28  H   UNL     1     -39.817  20.214   1.837  0.00  0.00    +0.211 HD
ENDBRANCH  22  27
BRANCH  21  29
ATOM     29  C   UNL     1     -37.347  20.517   1.466  0.00  0.00    +0.169 C 
BRANCH  29  30
ATOM     30  O   UNL     1     -36.824  19.664   2.469  0.00  0.00    -0.379 OA
ATOM     31  H   UNL     1     -35.864  19.784   2.527  0.00  0.00    +0.211 HD
ENDBRANCH  29  30
ENDBRANCH  21  29
ENDBRANCH   1  18
TORSDOF 10
ENDMDL
MODEL 2
REMARK VINA RESULT:      -6.0      2.769      4.465
REMARK  Name = 53248734
REMARK  10 active torsions:
REMARK  status: ('A' for Active; 'I' for Inactive)
REMARK    1  A    between atoms: O_1  and  C_9
REMARK    2  A    between atoms: O_1  and  C_18
REMARK    3  A    between atoms: C_4  and  C_14
REMARK    4  A    between atoms: C_8  and  O_12
REMARK    5  A    between atoms: C_14  and  O_15
REMARK    6  A    between atoms: C_19  and  O_23
REMARK    7  A    between atoms: C_20  and  O_25
REMARK    8  A    between atoms: C_21  and  C_29
REMARK    9  A    between atoms: C_22  and  O_27
REMARK   10  A    between atoms: C_29  and  O_30
REMARK                            x       y       z     vdW  Elec       q    Type
REMARK                         _______ _______ _______ _____ _____    ______ ____
ROOT
ATOM      1  O   UNL     1     -35.975  21.738   2.131  0.00  0.00    -0.293 OA
ENDROOT
BRANCH   1   9
ATOM      2  O   UNL     1     -36.215  25.861   3.555  0.00  0.00    -0.351 OA
ATOM      3  O   UNL     1     -35.405  21.052   4.285  0.00  0.00    -0.450 OA
ATOM      4  C   UNL     1     -35.813  24.596   3.013  0.00  0.00    +0.153 C 
ATOM      5  C   UNL     1     -34.849  25.467   3.731  0.00  0.00    +0.170 C 
ATOM      6  C   UNL     1     -36.116  23.387   3.865  0.00  0.00    +0.107 C 
ATOM      7  C   UNL     1     -35.638  23.798   5.283  0.00  0.00    +0.063 C 
ATOM      8  C   UNL     1     -34.507  24.828   5.042  0.00  0.00    +0.149 C 
ATOM      9  C   UNL     1     -35.367  22.144   3.357  0.00  0.00    +0.292 C 
ATOM     10  C   UNL     1     -35.202  22.624   6.098  0.00  0.00    +0.016 C 
ATOM     11  C   UNL     1     -35.150  21.392   5.584  0.00  0.00    +0.171 C 
BRANCH   8  12
ATOM     12  O   UNL     1     -34.480  25.808   6.065  0.00  0.00    -0.351 OA
ATOM     13  C   UNL     1     -33.382  26.698   5.910  0.00  0.00    +0.174 C 
ENDBRANCH   8  12
BRANCH   4  14
ATOM     14  C   UNL     1     -35.877  24.555   1.535  0.00  0.00    +0.167 C 
BRANCH  14  15
ATOM     15  O   UNL     1     -37.195  24.203   1.104  0.00  0.00    -0.379 OA
ATOM     16  H   UNL     1     -37.503  24.845   0.444  0.00  0.00    +0.211 HD
ENDBRANCH  14  15
ENDBRANCH   4  14
ENDBRANCH   1   9
BRANCH   1  18
ATOM     17  O   UNL     1     -34.265  20.279   1.508  0.00  0.00    -0.326 OA
ATOM     18  C   UNL     1     -35.653  20.384   1.815  0.00  0.00    +0.268 C 
ATOM     19  C   UNL     1     -36.501  19.966   0.614  0.00  0.00    +0.197 C 
ATOM     20  C   UNL     1     -36.110  18.576   0.113  0.00  0.00    +0.172 C 
ATOM     21  C   UNL     1     -33.871  18.939   1.205  0.00  0.00    +0.176 C 
ATOM     22  C   UNL     1     -34.595  18.453  -0.052  0.00  0.00    +0.169 C 
BRANCH  19  23
ATOM     23  O   UNL     1     -37.871  19.957   1.014  0.00  0.00    -0.378 OA
ATOM     24  H   UNL     1     -37.925  19.957   1.982  0.00  0.00    +0.211 HD
ENDBRANCH  19  23
BRANCH  20  25
ATOM     25  O   UNL     1     -36.713  18.340  -1.160  0.00  0.00    -0.379 OA
ATOM     26  H   UNL     1     -37.609  17.991  -1.033  0.00  0.00    +0.211 HD
ENDBRANCH  20  25
BRANCH  22  27
ATOM     27  O   UNL     1     -34.256  17.089  -0.293  0.00  0.00    -0.379 OA
ATOM     28  H   UNL     1     -34.928  16.514   0.104  0.00  0.00    +0.211 HD
ENDBRANCH  22  27
BRANCH  21  29
ATOM     29  C   UNL     1     -32.356  18.936   1.021  0.00  0.00    +0.169 C 
BRANCH  29  30
ATOM     30  O   UNL     1     -31.842  17.720   1.535  0.00  0.00    -0.379 OA
ATOM     31  H   UNL     1     -32.468  17.003   1.354  0.00  0.00    +0.211 HD
ENDBRANCH  29  30
ENDBRANCH  21  29
ENDBRANCH   1  18
TORSDOF 10
ENDMDL
MODEL 3
REMARK VINA RESULT:      -5.9      3.304      6.588
REMARK  Name = 53248734
REMARK  10 active torsions:
REMARK  status: ('A' for Active; 'I' for Inactive)
REMARK    1  A    between atoms: O_1  and  C_9
REMARK    2  A    between atoms: O_1  and  C_18
REMARK    3  A    between atoms: C_4  and  C_14
REMARK    4  A    between atoms: C_8  and  O_12
REMARK    5  A    between atoms: C_14  and  O_15
REMARK    6  A    between atoms: C_19  and  O_23
REMARK    7  A    between atoms: C_20  and  O_25
REMARK    8  A    between atoms: C_21  and  C_29
REMARK    9  A    between atoms: C_22  and  O_27
REMARK   10  A    between atoms: C_29  and  O_30
REMARK                            x       y       z     vdW  Elec       q    Type
REMARK                         _______ _______ _______ _____ _____    ______ ____
ROOT
ATOM      1  O   UNL     1     -35.664  22.978   1.227  0.00  0.00    -0.293 OA
ENDROOT
BRANCH   1   9
ATOM      2  O   UNL     1     -34.822  18.749   0.520  0.00  0.00    -0.351 OA
ATOM      3  O   UNL     1     -33.674  23.530   0.145  0.00  0.00    -0.450 OA
ATOM      4  C   UNL     1     -34.938  20.077   1.051  0.00  0.00    +0.153 C 
ATOM      5  C   UNL     1     -33.771  19.219   1.373  0.00  0.00    +0.170 C 
ATOM      6  C   UNL     1     -34.493  21.193   0.136  0.00  0.00    +0.107 C 
ATOM      7  C   UNL     1     -33.125  20.705  -0.412  0.00  0.00    +0.063 C 
ATOM      8  C   UNL     1     -32.561  19.775   0.689  0.00  0.00    +0.149 C 
ATOM      9  C   UNL     1     -34.351  22.518   0.902  0.00  0.00    +0.292 C 
ATOM     10  C   UNL     1     -32.213  21.838  -0.752  0.00  0.00    +0.016 C 
ATOM     11  C   UNL     1     -32.544  23.108  -0.497  0.00  0.00    +0.171 C 
BRANCH   8  12
ATOM     12  O   UNL     1     -31.796  18.722   0.126  0.00  0.00    -0.351 OA
ATOM     13  C   UNL     1     -31.377  17.792   1.118  0.00  0.00    +0.174 C 
ENDBRANCH   8  12
BRANCH   4  14
ATOM     14  C   UNL     1     -36.078  20.228   1.982  0.00  0.00    +0.167 C 
BRANCH  14  15
ATOM     15  O   UNL     1     -35.609  20.570   3.290  0.00  0.00    -0.379 OA
ATOM     16  H   UNL     1     -36.360  20.843   3.841  0.00  0.00    +0.211 HD
ENDBRANCH  14  15
ENDBRANCH   4  14
ENDBRANCH   1   9
BRANCH   1  18
ATOM     17  O   UNL     1     -35.601  23.360   3.528  0.00  0.00    -0.326 OA
ATOM     18  C   UNL     1     -35.627  23.979   2.243  0.00  0.00    +0.268 C 
ATOM     19  C   UNL     1     -36.874  24.849   2.092  0.00  0.00    +0.197 C 
ATOM     20  C   UNL     1     -36.992  25.856   3.236  0.00  0.00    +0.172 C 
ATOM     21  C   UNL     1     -35.539  24.311   4.593  0.00  0.00    +0.176 C 
ATOM     22  C   UNL     1     -36.799  25.179   4.593  0.00  0.00    +0.169 C 
BRANCH  19  23
ATOM     23  O   UNL     1     -36.784  25.549   0.852  0.00  0.00    -0.378 OA
ATOM     24  H   UNL     1     -37.640  25.958   0.649  0.00  0.00    +0.211 HD
ENDBRANCH  19  23
BRANCH  20  25
ATOM     25  O   UNL     1     -38.292  26.448   3.218  0.00  0.00    -0.379 OA
ATOM     26  H   UNL     1     -38.516  26.763   4.107  0.00  0.00    +0.211 HD
ENDBRANCH  20  25
BRANCH  22  27
ATOM     27  O   UNL     1     -36.685  26.175   5.606  0.00  0.00    -0.379 OA
ATOM     28  H   UNL     1     -35.797  26.563   5.578  0.00  0.00    +0.211 HD
ENDBRANCH  22  27
BRANCH  21  29
ATOM     29  C   UNL     1     -35.389  23.533   5.896  0.00  0.00    +0.169 C 
BRANCH  29  30
ATOM     30  O   UNL     1     -36.135  22.333   5.794  0.00  0.00    -0.379 OA
ATOM     31  H   UNL     1     -36.179  21.905   6.662  0.00  0.00    +0.211 HD
ENDBRANCH  29  30
ENDBRANCH  21  29
ENDBRANCH   1  18
TORSDOF 10
ENDMDL
MODEL 4
REMARK VINA RESULT:      -5.9      1.464      1.826
REMARK  Name = 53248734
REMARK  10 active torsions:
REMARK  status: ('A' for Active; 'I' for Inactive)
REMARK    1  A    between atoms: O_1  and  C_9
REMARK    2  A    between atoms: O_1  and  C_18
REMARK    3  A    between atoms: C_4  and  C_14
REMARK    4  A    between atoms: C_8  and  O_12
REMARK    5  A    between atoms: C_14  and  O_15
REMARK    6  A    between atoms: C_19  and  O_23
REMARK    7  A    between atoms: C_20  and  O_25
REMARK    8  A    between atoms: C_21  and  C_29
REMARK    9  A    between atoms: C_22  and  O_27
REMARK   10  A    between atoms: C_29  and  O_30
REMARK                            x       y       z     vdW  Elec       q    Type
REMARK                         _______ _______ _______ _____ _____    ______ ____
ROOT
ATOM      1  O   UNL     1     -37.554  23.991   2.740  0.00  0.00    -0.293 OA
ENDROOT
BRANCH   1   9
ATOM      2  O   UNL     1     -35.471  27.650   3.907  0.00  0.00    -0.351 OA
ATOM      3  O   UNL     1     -36.495  22.861   4.484  0.00  0.00    -0.450 OA
ATOM      4  C   UNL     1     -35.885  26.411   3.314  0.00  0.00    +0.153 C 
ATOM      5  C   UNL     1     -34.448  26.729   3.509  0.00  0.00    +0.170 C 
ATOM      6  C   UNL     1     -36.284  25.321   4.279  0.00  0.00    +0.107 C 
ATOM      7  C   UNL     1     -35.148  25.321   5.337  0.00  0.00    +0.063 C 
ATOM      8  C   UNL     1     -33.900  25.842   4.584  0.00  0.00    +0.149 C 
ATOM      9  C   UNL     1     -36.391  23.961   3.570  0.00  0.00    +0.292 C 
ATOM     10  C   UNL     1     -34.945  23.975   5.953  0.00  0.00    +0.016 C 
ATOM     11  C   UNL     1     -35.620  22.901   5.533  0.00  0.00    +0.171 C 
BRANCH   8  12
ATOM     12  O   UNL     1     -33.058  26.590   5.446  0.00  0.00    -0.351 OA
ATOM     13  C   UNL     1     -32.461  27.690   4.770  0.00  0.00    +0.174 C 
ENDBRANCH   8  12
BRANCH   4  14
ATOM     14  C   UNL     1     -36.554  26.593   2.008  0.00  0.00    +0.167 C 
BRANCH  14  15
ATOM     15  O   UNL     1     -37.926  26.953   2.197  0.00  0.00    -0.379 OA
ATOM     16  H   UNL     1     -38.436  26.167   2.447  0.00  0.00    +0.211 HD
ENDBRANCH  14  15
ENDBRANCH   4  14
ENDBRANCH   1   9
BRANCH   1  18
ATOM     17  O   UNL     1     -36.970  22.083   1.531  0.00  0.00    -0.326 OA
ATOM     18  C   UNL     1     -37.961  22.675   2.369  0.00  0.00    +0.268 C 
ATOM     19  C   UNL     1     -39.293  22.787   1.627  0.00  0.00    +0.197 C 
ATOM     20  C   UNL     1     -39.729  21.435   1.060  0.00  0.00    +0.172 C 
ATOM     21  C   UNL     1     -37.307  20.751   1.141  0.00  0.00    +0.176 C 
ATOM     22  C   UNL     1     -38.586  20.759   0.302  0.00  0.00    +0.169 C 
BRANCH  19  23
ATOM     23  O   UNL     1     -40.279  23.254   2.546  0.00  0.00    -0.378 OA
ATOM     24  H   UNL     1     -40.394  22.604   3.257  0.00  0.00    +0.211 HD
ENDBRANCH  19  23
BRANCH  20  25
ATOM     25  O   UNL     1     -40.811  21.628   0.148  0.00  0.00    -0.379 OA
ATOM     26  H   UNL     1     -41.486  22.189   0.561  0.00  0.00    +0.211 HD
ENDBRANCH  20  25
BRANCH  22  27
ATOM     27  O   UNL     1     -38.955  19.417  -0.008  0.00  0.00    -0.379 OA
ATOM     28  H   UNL     1     -38.193  18.953  -0.388  0.00  0.00    +0.211 HD
ENDBRANCH  22  27
BRANCH  21  29
ATOM     29  C   UNL     1     -36.124  20.187   0.362  0.00  0.00    +0.169 C 
BRANCH  29  30
ATOM     30  O   UNL     1     -36.004  18.806   0.658  0.00  0.00    -0.379 OA
ATOM     31  H   UNL     1     -35.195  18.655   1.170  0.00  0.00    +0.211 HD
ENDBRANCH  29  30
ENDBRANCH  21  29
ENDBRANCH   1  18
TORSDOF 10
ENDMDL
MODEL 5
REMARK VINA RESULT:      -5.9      2.422      6.891
REMARK  Name = 53248734
REMARK  10 active torsions:
REMARK  status: ('A' for Active; 'I' for Inactive)
REMARK    1  A    between atoms: O_1  and  C_9
REMARK    2  A    between atoms: O_1  and  C_18
REMARK    3  A    between atoms: C_4  and  C_14
REMARK    4  A    between atoms: C_8  and  O_12
REMARK    5  A    between atoms: C_14  and  O_15
REMARK    6  A    between atoms: C_19  and  O_23
REMARK    7  A    between atoms: C_20  and  O_25
REMARK    8  A    between atoms: C_21  and  C_29
REMARK    9  A    between atoms: C_22  and  O_27
REMARK   10  A    between atoms: C_29  and  O_30
REMARK                            x       y       z     vdW  Elec       q    Type
REMARK                         _______ _______ _______ _____ _____    ______ ____
ROOT
ATOM      1  O   UNL     1     -39.053  24.328   3.403  0.00  0.00    -0.293 OA
ENDROOT
BRANCH   1   9
ATOM      2  O   UNL     1     -42.026  26.426   0.984  0.00  0.00    -0.351 OA
ATOM      3  O   UNL     1     -38.568  22.962   1.576  0.00  0.00    -0.450 OA
ATOM      4  C   UNL     1     -41.320  25.546   1.870  0.00  0.00    +0.153 C 
ATOM      5  C   UNL     1     -42.492  25.076   1.089  0.00  0.00    +0.170 C 
ATOM      6  C   UNL     1     -40.068  24.914   1.311  0.00  0.00    +0.107 C 
ATOM      7  C   UNL     1     -40.498  24.405  -0.091  0.00  0.00    +0.063 C 
ATOM      8  C   UNL     1     -42.016  24.127   0.032  0.00  0.00    +0.149 C 
ATOM      9  C   UNL     1     -39.580  23.760   2.202  0.00  0.00    +0.292 C 
ATOM     10  C   UNL     1     -39.713  23.212  -0.527  0.00  0.00    +0.016 C 
ATOM     11  C   UNL     1     -38.824  22.622   0.277  0.00  0.00    +0.171 C 
BRANCH   8  12
ATOM     12  O   UNL     1     -42.685  24.389  -1.190  0.00  0.00    -0.351 OA
ATOM     13  C   UNL     1     -44.014  23.882  -1.179  0.00  0.00    +0.174 C 
ENDBRANCH   8  12
BRANCH   4  14
ATOM     14  C   UNL     1     -41.437  25.942   3.290  0.00  0.00    +0.167 C 
BRANCH  14  15
ATOM     15  O   UNL     1     -40.427  26.897   3.626  0.00  0.00    -0.379 OA
ATOM     16  H   UNL     1     -40.037  26.669   4.485  0.00  0.00    +0.211 HD
ENDBRANCH  14  15
ENDBRANCH   4  14
ENDBRANCH   1   9
BRANCH   1  18
ATOM     17  O   UNL     1     -37.099  23.388   4.263  0.00  0.00    -0.326 OA
ATOM     18  C   UNL     1     -37.627  24.370   3.374  0.00  0.00    +0.268 C 
ATOM     19  C   UNL     1     -37.189  25.770   3.802  0.00  0.00    +0.197 C 
ATOM     20  C   UNL     1     -35.670  25.859   3.946  0.00  0.00    +0.172 C 
ATOM     21  C   UNL     1     -35.671  23.361   4.264  0.00  0.00    +0.176 C 
ATOM     22  C   UNL     1     -35.123  24.696   4.774  0.00  0.00    +0.169 C 
BRANCH  19  23
ATOM     23  O   UNL     1     -37.626  26.699   2.810  0.00  0.00    -0.378 OA
ATOM     24  H   UNL     1     -36.895  26.888   2.200  0.00  0.00    +0.211 HD
ENDBRANCH  19  23
BRANCH  20  25
ATOM     25  O   UNL     1     -35.324  27.075   4.609  0.00  0.00    -0.379 OA
ATOM     26  H   UNL     1     -36.076  27.686   4.578  0.00  0.00    +0.211 HD
ENDBRANCH  20  25
BRANCH  22  27
ATOM     27  O   UNL     1     -33.700  24.684   4.691  0.00  0.00    -0.379 OA
ATOM     28  H   UNL     1     -33.380  23.773   4.775  0.00  0.00    +0.211 HD
ENDBRANCH  22  27
BRANCH  21  29
ATOM     29  C   UNL     1     -35.233  22.197   5.147  0.00  0.00    +0.169 C 
BRANCH  29  30
ATOM     30  O   UNL     1     -36.131  22.096   6.238  0.00  0.00    -0.379 OA
ATOM     31  H   UNL     1     -36.972  22.517   6.005  0.00  0.00    +0.211 HD
ENDBRANCH  29  30
ENDBRANCH  21  29
ENDBRANCH   1  18
TORSDOF 10
ENDMDL
MODEL 6
REMARK VINA RESULT:      -5.7      2.544      4.005
REMARK  Name = 53248734
REMARK  10 active torsions:
REMARK  status: ('A' for Active; 'I' for Inactive)
REMARK    1  A    between atoms: O_1  and  C_9
REMARK    2  A    between atoms: O_1  and  C_18
REMARK    3  A    between atoms: C_4  and  C_14
REMARK    4  A    between atoms: C_8  and  O_12
REMARK    5  A    between atoms: C_14  and  O_15
REMARK    6  A    between atoms: C_19  and  O_23
REMARK    7  A    between atoms: C_20  and  O_25
REMARK    8  A    between atoms: C_21  and  C_29
REMARK    9  A    between atoms: C_22  and  O_27
REMARK   10  A    between atoms: C_29  and  O_30
REMARK                            x       y       z     vdW  Elec       q    Type
REMARK                         _______ _______ _______ _____ _____    ______ ____
ROOT
ATOM      1  O   UNL     1     -36.176  22.440   2.199  0.00  0.00    -0.293 OA
ENDROOT
BRANCH   1   9
ATOM      2  O   UNL     1     -36.027  26.538   3.706  0.00  0.00    -0.351 OA
ATOM      3  O   UNL     1     -35.567  21.667   4.314  0.00  0.00    -0.450 OA
ATOM      4  C   UNL     1     -35.750  25.258   3.124  0.00  0.00    +0.153 C 
ATOM      5  C   UNL     1     -34.690  26.036   3.813  0.00  0.00    +0.170 C 
ATOM      6  C   UNL     1     -36.110  24.059   3.967  0.00  0.00    +0.107 C 
ATOM      7  C   UNL     1     -35.539  24.401   5.370  0.00  0.00    +0.063 C 
ATOM      8  C   UNL     1     -34.342  25.344   5.095  0.00  0.00    +0.149 C 
ATOM      9  C   UNL     1     -35.484  22.772   3.404  0.00  0.00    +0.292 C 
ATOM     10  C   UNL     1     -35.162  23.180   6.143  0.00  0.00    +0.016 C 
ATOM     11  C   UNL     1     -35.230  21.958   5.605  0.00  0.00    +0.171 C 
BRANCH   8  12
ATOM     12  O   UNL     1     -34.194  26.297   6.134  0.00  0.00    -0.351 OA
ATOM     13  C   UNL     1     -32.998  27.053   5.985  0.00  0.00    +0.174 C 
ENDBRANCH   8  12
BRANCH   4  14
ATOM     14  C   UNL     1     -35.882  25.254   1.650  0.00  0.00    +0.167 C 
BRANCH  14  15
ATOM     15  O   UNL     1     -37.239  25.004   1.273  0.00  0.00    -0.379 OA
ATOM     16  H   UNL     1     -37.263  24.323   0.582  0.00  0.00    +0.211 HD
ENDBRANCH  14  15
ENDBRANCH   4  14
ENDBRANCH   1   9
BRANCH   1  18
ATOM     17  O   UNL     1     -35.131  21.732   0.237  0.00  0.00    -0.326 OA
ATOM     18  C   UNL     1     -35.563  21.335   1.537  0.00  0.00    +0.268 C 
ATOM     19  C   UNL     1     -36.597  20.214   1.439  0.00  0.00    +0.197 C 
ATOM     20  C   UNL     1     -36.072  19.043   0.606  0.00  0.00    +0.172 C 
ATOM     21  C   UNL     1     -34.486  20.674  -0.473  0.00  0.00    +0.176 C 
ATOM     22  C   UNL     1     -35.471  19.528  -0.713  0.00  0.00    +0.169 C 
BRANCH  19  23
ATOM     23  O   UNL     1     -36.893  19.761   2.759  0.00  0.00    -0.378 OA
ATOM     24  H   UNL     1     -36.188  19.167   3.063  0.00  0.00    +0.211 HD
ENDBRANCH  19  23
BRANCH  20  25
ATOM     25  O   UNL     1     -37.147  18.154   0.303  0.00  0.00    -0.379 OA
ATOM     26  H   UNL     1     -37.035  17.329   0.800  0.00  0.00    +0.211 HD
ENDBRANCH  20  25
BRANCH  22  27
ATOM     27  O   UNL     1     -34.791  18.447  -1.347  0.00  0.00    -0.379 OA
ATOM     28  H   UNL     1     -33.946  18.762  -1.702  0.00  0.00    +0.211 HD
ENDBRANCH  22  27
BRANCH  21  29
ATOM     29  C   UNL     1     -33.962  21.252  -1.784  0.00  0.00    +0.169 C 
BRANCH  29  30
ATOM     30  O   UNL     1     -32.951  20.395  -2.284  0.00  0.00    -0.379 OA
ATOM     31  H   UNL     1     -33.355  19.577  -2.613  0.00  0.00    +0.211 HD
ENDBRANCH  29  30
ENDBRANCH  21  29
ENDBRANCH   1  18
TORSDOF 10
ENDMDL
MODEL 7
REMARK VINA RESULT:      -5.6      2.265      3.372
REMARK  Name = 53248734
REMARK  10 active torsions:
REMARK  status: ('A' for Active; 'I' for Inactive)
REMARK    1  A    between atoms: O_1  and  C_9
REMARK    2  A    between atoms: O_1  and  C_18
REMARK    3  A    between atoms: C_4  and  C_14
REMARK    4  A    between atoms: C_8  and  O_12
REMARK    5  A    between atoms: C_14  and  O_15
REMARK    6  A    between atoms: C_19  and  O_23
REMARK    7  A    between atoms: C_20  and  O_25
REMARK    8  A    between atoms: C_21  and  C_29
REMARK    9  A    between atoms: C_22  and  O_27
REMARK   10  A    between atoms: C_29  and  O_30
REMARK                            x       y       z     vdW  Elec       q    Type
REMARK                         _______ _______ _______ _____ _____    ______ ____
ROOT
ATOM      1  O   UNL     1     -34.160  26.760   3.554  0.00  0.00    -0.293 OA
ENDROOT
BRANCH   1   9
ATOM      2  O   UNL     1     -31.433  30.152   3.176  0.00  0.00    -0.351 OA
ATOM      3  O   UNL     1     -33.587  26.582   5.808  0.00  0.00    -0.450 OA
ATOM      4  C   UNL     1     -32.053  28.859   3.199  0.00  0.00    +0.153 C 
ATOM      5  C   UNL     1     -30.612  29.028   3.512  0.00  0.00    +0.170 C 
ATOM      6  C   UNL     1     -32.795  28.508   4.466  0.00  0.00    +0.107 C 
ATOM      7  C   UNL     1     -31.812  28.906   5.600  0.00  0.00    +0.063 C 
ATOM      8  C   UNL     1     -30.403  28.773   4.973  0.00  0.00    +0.149 C 
ATOM      9  C   UNL     1     -33.134  27.009   4.516  0.00  0.00    +0.292 C 
ATOM     10  C   UNL     1     -31.993  28.073   6.826  0.00  0.00    +0.016 C 
ATOM     11  C   UNL     1     -32.846  27.045   6.859  0.00  0.00    +0.171 C 
BRANCH   8  12
ATOM     12  O   UNL     1     -29.512  29.736   5.509  0.00  0.00    -0.351 OA
ATOM     13  C   UNL     1     -28.268  29.740   4.819  0.00  0.00    +0.174 C 
ENDBRANCH   8  12
BRANCH   4  14
ATOM     14  C   UNL     1     -32.516  28.417   1.865  0.00  0.00    +0.167 C 
BRANCH  14  15
ATOM     15  O   UNL     1     -33.818  28.943   1.591  0.00  0.00    -0.379 OA
ATOM     16  H   UNL     1     -34.248  29.196   2.423  0.00  0.00    +0.211 HD
ENDBRANCH  14  15
ENDBRANCH   4  14
ENDBRANCH   1   9
BRANCH   1  18
ATOM     17  O   UNL     1     -34.681  24.645   2.717  0.00  0.00    -0.326 OA
ATOM     18  C   UNL     1     -34.836  25.533   3.823  0.00  0.00    +0.268 C 
ATOM     19  C   UNL     1     -36.314  25.850   4.051  0.00  0.00    +0.197 C 
ATOM     20  C   UNL     1     -37.142  24.572   4.196  0.00  0.00    +0.172 C 
ATOM     21  C   UNL     1     -35.317  23.385   2.933  0.00  0.00    +0.176 C 
ATOM     22  C   UNL     1     -36.827  23.579   3.078  0.00  0.00    +0.169 C 
BRANCH  19  23
ATOM     23  O   UNL     1     -36.426  26.625   5.244  0.00  0.00    -0.378 OA
ATOM     24  H   UNL     1     -37.268  27.106   5.239  0.00  0.00    +0.211 HD
ENDBRANCH  19  23
BRANCH  20  25
ATOM     25  O   UNL     1     -38.531  24.894   4.125  0.00  0.00    -0.379 OA
ATOM     26  H   UNL     1     -38.704  25.696   4.642  0.00  0.00    +0.211 HD
ENDBRANCH  20  25
BRANCH  22  27
ATOM     27  O   UNL     1     -37.437  22.325   3.375  0.00  0.00    -0.379 OA
ATOM     28  H   UNL     1     -37.603  22.265   4.329  0.00  0.00    +0.211 HD
ENDBRANCH  22  27
BRANCH  21  29
ATOM     29  C   UNL     1     -34.974  22.488   1.747  0.00  0.00    +0.169 C 
BRANCH  29  30
ATOM     30  O   UNL     1     -35.143  21.137   2.138  0.00  0.00    -0.379 OA
ATOM     31  H   UNL     1     -35.159  20.573   1.350  0.00  0.00    +0.211 HD
ENDBRANCH  29  30
ENDBRANCH  21  29
ENDBRANCH   1  18
TORSDOF 10
ENDMDL
MODEL 8
REMARK VINA RESULT:      -5.6      2.473      7.357
REMARK  Name = 53248734
REMARK  10 active torsions:
REMARK  status: ('A' for Active; 'I' for Inactive)
REMARK    1  A    between atoms: O_1  and  C_9
REMARK    2  A    between atoms: O_1  and  C_18
REMARK    3  A    between atoms: C_4  and  C_14
REMARK    4  A    between atoms: C_8  and  O_12
REMARK    5  A    between atoms: C_14  and  O_15
REMARK    6  A    between atoms: C_19  and  O_23
REMARK    7  A    between atoms: C_20  and  O_25
REMARK    8  A    between atoms: C_21  and  C_29
REMARK    9  A    between atoms: C_22  and  O_27
REMARK   10  A    between atoms: C_29  and  O_30
REMARK                            x       y       z     vdW  Elec       q    Type
REMARK                         _______ _______ _______ _____ _____    ______ ____
ROOT
ATOM      1  O   UNL     1     -34.896  27.134   3.230  0.00  0.00    -0.293 OA
ENDROOT
BRANCH   1   9
ATOM      2  O   UNL     1     -36.970  23.491   4.461  0.00  0.00    -0.351 OA
ATOM      3  O   UNL     1     -34.530  26.187   1.130  0.00  0.00    -0.450 OA
ATOM      4  C   UNL     1     -36.016  24.528   4.194  0.00  0.00    +0.153 C 
ATOM      5  C   UNL     1     -35.619  23.098   4.193  0.00  0.00    +0.170 C 
ATOM      6  C   UNL     1     -35.989  25.049   2.777  0.00  0.00    +0.107 C 
ATOM      7  C   UNL     1     -35.987  23.765   1.905  0.00  0.00    +0.063 C 
ATOM      8  C   UNL     1     -35.315  22.684   2.786  0.00  0.00    +0.149 C 
ATOM      9  C   UNL     1     -34.737  25.904   2.521  0.00  0.00    +0.292 C 
ATOM     10  C   UNL     1     -35.299  23.969   0.595  0.00  0.00    +0.016 C 
ATOM     11  C   UNL     1     -34.680  25.115   0.297  0.00  0.00    +0.171 C 
BRANCH   8  12
ATOM     12  O   UNL     1     -35.865  21.402   2.531  0.00  0.00    -0.351 OA
ATOM     13  C   UNL     1     -34.877  20.493   2.060  0.00  0.00    +0.174 C 
ENDBRANCH   8  12
BRANCH   4  14
ATOM     14  C   UNL     1     -35.776  25.405   5.361  0.00  0.00    +0.167 C 
BRANCH  14  15
ATOM     15  O   UNL     1     -36.634  26.548   5.310  0.00  0.00    -0.379 OA
ATOM     16  H   UNL     1     -36.892  26.719   4.390  0.00  0.00    +0.211 HD
ENDBRANCH  14  15
ENDBRANCH   4  14
ENDBRANCH   1   9
BRANCH   1  18
ATOM     17  O   UNL     1     -33.296  27.727   4.822  0.00  0.00    -0.326 OA
ATOM     18  C   UNL     1     -33.640  27.778   3.438  0.00  0.00    +0.268 C 
ATOM     19  C   UNL     1     -33.771  29.228   2.972  0.00  0.00    +0.197 C 
ATOM     20  C   UNL     1     -32.514  30.034   3.300  0.00  0.00    +0.172 C 
ATOM     21  C   UNL     1     -32.033  28.336   5.095  0.00  0.00    +0.176 C 
ATOM     22  C   UNL     1     -32.086  29.826   4.752  0.00  0.00    +0.169 C 
BRANCH  19  23
ATOM     23  O   UNL     1     -33.979  29.227   1.560  0.00  0.00    -0.378 OA
ATOM     24  H   UNL     1     -34.221  30.120   1.268  0.00  0.00    +0.211 HD
ENDBRANCH  19  23
BRANCH  20  25
ATOM     25  O   UNL     1     -32.778  31.425   3.111  0.00  0.00    -0.379 OA
ATOM     26  H   UNL     1     -33.681  31.625   3.402  0.00  0.00    +0.211 HD
ENDBRANCH  20  25
BRANCH  22  27
ATOM     27  O   UNL     1     -30.797  30.402   4.951  0.00  0.00    -0.379 OA
ATOM     28  H   UNL     1     -30.891  31.256   5.400  0.00  0.00    +0.211 HD
ENDBRANCH  22  27
BRANCH  21  29
ATOM     29  C   UNL     1     -31.721  28.106   6.570  0.00  0.00    +0.169 C 
BRANCH  29  30
ATOM     30  O   UNL     1     -30.357  27.747   6.693  0.00  0.00    -0.379 OA
ATOM     31  H   UNL     1     -30.152  27.038   6.065  0.00  0.00    +0.211 HD
ENDBRANCH  29  30
ENDBRANCH  21  29
ENDBRANCH   1  18
TORSDOF 10
ENDMDL
MODEL 9
REMARK VINA RESULT:      -5.6      2.797      4.705
REMARK  Name = 53248734
REMARK  10 active torsions:
REMARK  status: ('A' for Active; 'I' for Inactive)
REMARK    1  A    between atoms: O_1  and  C_9
REMARK    2  A    between atoms: O_1  and  C_18
REMARK    3  A    between atoms: C_4  and  C_14
REMARK    4  A    between atoms: C_8  and  O_12
REMARK    5  A    between atoms: C_14  and  O_15
REMARK    6  A    between atoms: C_19  and  O_23
REMARK    7  A    between atoms: C_20  and  O_25
REMARK    8  A    between atoms: C_21  and  C_29
REMARK    9  A    between atoms: C_22  and  O_27
REMARK   10  A    between atoms: C_29  and  O_30
REMARK                            x       y       z     vdW  Elec       q    Type
REMARK                         _______ _______ _______ _____ _____    ______ ____
ROOT
ATOM      1  O   UNL     1     -32.766  27.196   3.546  0.00  0.00    -0.293 OA
ENDROOT
BRANCH   1   9
ATOM      2  O   UNL     1     -31.096  31.153   2.747  0.00  0.00    -0.351 OA
ATOM      3  O   UNL     1     -32.450  27.551   5.829  0.00  0.00    -0.450 OA
ATOM      4  C   UNL     1     -31.319  29.753   2.963  0.00  0.00    +0.153 C 
ATOM      5  C   UNL     1     -30.036  30.396   3.343  0.00  0.00    +0.170 C 
ATOM      6  C   UNL     1     -32.081  29.394   4.216  0.00  0.00    +0.107 C 
ATOM      7  C   UNL     1     -31.400  30.240   5.325  0.00  0.00    +0.063 C 
ATOM      8  C   UNL     1     -29.945  30.445   4.837  0.00  0.00    +0.149 C 
ATOM      9  C   UNL     1     -31.981  27.889   4.517  0.00  0.00    +0.292 C 
ATOM     10  C   UNL     1     -31.486  29.592   6.668  0.00  0.00    +0.016 C 
ATOM     11  C   UNL     1     -32.008  28.372   6.828  0.00  0.00    +0.171 C 
BRANCH   8  12
ATOM     12  O   UNL     1     -29.439  31.703   5.250  0.00  0.00    -0.351 OA
ATOM     13  C   UNL     1     -28.052  31.635   5.557  0.00  0.00    +0.174 C 
ENDBRANCH   8  12
BRANCH   4  14
ATOM     14  C   UNL     1     -31.468  28.991   1.704  0.00  0.00    +0.167 C 
BRANCH  14  15
ATOM     15  O   UNL     1     -32.831  29.006   1.271  0.00  0.00    -0.379 OA
ATOM     16  H   UNL     1     -32.913  29.557   0.476  0.00  0.00    +0.211 HD
ENDBRANCH  14  15
ENDBRANCH   4  14
ENDBRANCH   1   9
BRANCH   1  18
ATOM     17  O   UNL     1     -33.982  25.311   4.188  0.00  0.00    -0.326 OA
ATOM     18  C   UNL     1     -33.995  26.735   4.106  0.00  0.00    +0.268 C 
ATOM     19  C   UNL     1     -35.132  27.209   3.200  0.00  0.00    +0.197 C 
ATOM     20  C   UNL     1     -36.476  26.630   3.644  0.00  0.00    +0.172 C 
ATOM     21  C   UNL     1     -35.179  24.785   4.764  0.00  0.00    +0.176 C 
ATOM     22  C   UNL     1     -36.379  25.123   3.876  0.00  0.00    +0.169 C 
BRANCH  19  23
ATOM     23  O   UNL     1     -35.187  28.634   3.261  0.00  0.00    -0.378 OA
ATOM     24  H   UNL     1     -36.026  28.941   2.884  0.00  0.00    +0.211 HD
ENDBRANCH  19  23
BRANCH  20  25
ATOM     25  O   UNL     1     -37.452  26.860   2.628  0.00  0.00    -0.379 OA
ATOM     26  H   UNL     1     -38.336  26.877   3.027  0.00  0.00    +0.211 HD
ENDBRANCH  20  25
BRANCH  22  27
ATOM     27  O   UNL     1     -37.574  24.664   4.504  0.00  0.00    -0.379 OA
ATOM     28  H   UNL     1     -37.867  23.843   4.079  0.00  0.00    +0.211 HD
ENDBRANCH  22  27
BRANCH  21  29
ATOM     29  C   UNL     1     -34.993  23.278   4.913  0.00  0.00    +0.169 C 
BRANCH  29  30
ATOM     30  O   UNL     1     -35.937  22.798   5.855  0.00  0.00    -0.379 OA
ATOM     31  H   UNL     1     -36.832  23.027   5.560  0.00  0.00    +0.211 HD
ENDBRANCH  29  30
ENDBRANCH  21  29
ENDBRANCH   1  18
TORSDOF 10
ENDMDL
