MODEL 1
REMARK VINA RESULT:      -6.2      0.000      0.000
REMARK  Name = 5271785
REMARK  4 active torsions:
REMARK  status: ('A' for Active; 'I' for Inactive)
REMARK    1  A    between atoms: N_1  and  C_15
REMARK    2  A    between atoms: C_17  and  O_19
REMARK    3  A    between atoms: C_18  and  C_21
REMARK    4  A    between atoms: C_21  and  O_22
REMARK                            x       y       z     vdW  Elec       q    Type
REMARK                         _______ _______ _______ _____ _____    ______ ____
ROOT
ATOM      1  N   UNL     1     -37.104  25.159   2.938  0.00  0.00    -0.239 N 
ATOM      2  N   UNL     1     -37.272  22.774   2.625  0.00  0.00    -0.317 NA
ATOM      3  N   UNL     1     -39.422  22.074   1.721  0.00  0.00    -0.317 NA
ATOM      4  N   UNL     1     -37.741  20.520   2.208  0.00  0.00    -0.283 N 
ATOM      5  C   UNL     1     -37.773  24.019   2.561  0.00  0.00    +0.191 C 
ATOM      6  C   UNL     1     -37.925  26.245   2.734  0.00  0.00    +0.066 C 
ATOM      7  C   UNL     1     -39.036  24.384   2.110  0.00  0.00    +0.158 C 
ATOM      8  C   UNL     1     -39.124  25.794   2.223  0.00  0.00    +0.007 C 
ATOM      9  C   UNL     1     -39.868  23.351   1.681  0.00  0.00    +0.179 C 
ATOM     10  C   UNL     1     -38.169  21.868   2.184  0.00  0.00    +0.198 C 
ATOM     11  H   UNL     1     -36.839  20.296   2.534  0.00  0.00    +0.156 HD
ATOM     12  H   UNL     1     -38.345  19.806   1.900  0.00  0.00    +0.156 HD
ATOM     13  N   UNL     1     -41.165  23.622   1.208  0.00  0.00    -0.335 N 
ATOM     14  H   UNL     1     -41.744  22.885   0.907  0.00  0.00    +0.144 HD
ATOM     15  H   UNL     1     -41.493  24.550   1.177  0.00  0.00    +0.144 HD
ENDROOT
BRANCH   1  18
ATOM     16  F   UNL     1     -36.675  25.735   5.582  0.00  0.00    -0.230 F 
ATOM     17  O   UNL     1     -35.238  23.897   3.700  0.00  0.00    -0.332 OA
ATOM     18  C   UNL     1     -35.748  25.222   3.469  0.00  0.00    +0.234 C 
ATOM     19  C   UNL     1     -35.609  25.983   4.778  0.00  0.00    +0.237 C 
ATOM     20  C   UNL     1     -34.387  25.347   5.396  0.00  0.00    +0.177 C 
ATOM     21  C   UNL     1     -34.453  23.902   4.909  0.00  0.00    +0.176 C 
BRANCH  20  22
ATOM     22  O   UNL     1     -33.211  25.982   4.903  0.00  0.00    -0.379 OA
ATOM     23  H   UNL     1     -32.551  25.310   4.674  0.00  0.00    +0.211 HD
ENDBRANCH  20  22
BRANCH  21  24
ATOM     24  C   UNL     1     -35.126  22.971   5.907  0.00  0.00    +0.169 C 
BRANCH  24  25
ATOM     25  O   UNL     1     -36.237  22.358   5.278  0.00  0.00    -0.379 OA
ATOM     26  H   UNL     1     -37.048  22.834   5.516  0.00  0.00    +0.211 HD
ENDBRANCH  24  25
ENDBRANCH  21  24
ENDBRANCH   1  18
TORSDOF 4
ENDMDL
MODEL 2
REMARK VINA RESULT:      -6.2      3.381      5.664
REMARK  Name = 5271785
REMARK  4 active torsions:
REMARK  status: ('A' for Active; 'I' for Inactive)
REMARK    1  A    between atoms: N_1  and  C_15
REMARK    2  A    between atoms: C_17  and  O_19
REMARK    3  A    between atoms: C_18  and  C_21
REMARK    4  A    between atoms: C_21  and  O_22
REMARK                            x       y       z     vdW  Elec       q    Type
REMARK                         _______ _______ _______ _____ _____    ______ ____
ROOT
ATOM      1  N   UNL     1     -37.824  23.746   2.089  0.00  0.00    -0.239 N 
ATOM      2  N   UNL     1     -36.650  22.598   3.855  0.00  0.00    -0.317 NA
ATOM      3  N   UNL     1     -35.858  24.091   5.608  0.00  0.00    -0.317 NA
ATOM      4  N   UNL     1     -35.474  21.784   5.707  0.00  0.00    -0.283 N 
ATOM      5  C   UNL     1     -37.137  23.710   3.279  0.00  0.00    +0.191 C 
ATOM      6  C   UNL     1     -38.168  25.050   1.812  0.00  0.00    +0.066 C 
ATOM      7  C   UNL     1     -37.043  25.008   3.767  0.00  0.00    +0.158 C 
ATOM      8  C   UNL     1     -37.697  25.850   2.833  0.00  0.00    +0.007 C 
ATOM      9  C   UNL     1     -36.372  25.172   4.978  0.00  0.00    +0.179 C 
ATOM     10  C   UNL     1     -36.026  22.888   5.016  0.00  0.00    +0.198 C 
ATOM     11  H   UNL     1     -35.559  20.877   5.333  0.00  0.00    +0.156 HD
ATOM     12  H   UNL     1     -35.006  21.923   6.561  0.00  0.00    +0.156 HD
ATOM     13  N   UNL     1     -36.225  26.449   5.551  0.00  0.00    -0.335 N 
ATOM     14  H   UNL     1     -35.750  26.553   6.407  0.00  0.00    +0.144 HD
ATOM     15  H   UNL     1     -36.599  27.238   5.096  0.00  0.00    +0.144 HD
ENDROOT
BRANCH   1  18
ATOM     16  F   UNL     1     -40.193  22.406   2.408  0.00  0.00    -0.230 F 
ATOM     17  O   UNL     1     -38.593  23.037  -0.047  0.00  0.00    -0.332 OA
ATOM     18  C   UNL     1     -38.143  22.600   1.247  0.00  0.00    +0.234 C 
ATOM     19  C   UNL     1     -39.218  21.679   1.800  0.00  0.00    +0.237 C 
ATOM     20  C   UNL     1     -39.794  21.061   0.549  0.00  0.00    +0.177 C 
ATOM     21  C   UNL     1     -39.654  22.169  -0.492  0.00  0.00    +0.176 C 
BRANCH  20  22
ATOM     22  O   UNL     1     -39.020  19.926   0.172  0.00  0.00    -0.379 OA
ATOM     23  H   UNL     1     -38.724  20.027  -0.747  0.00  0.00    +0.211 HD
ENDBRANCH  20  22
BRANCH  21  24
ATOM     24  C   UNL     1     -40.915  23.009  -0.635  0.00  0.00    +0.169 C 
BRANCH  24  25
ATOM     25  O   UNL     1     -42.032  22.216  -0.273  0.00  0.00    -0.379 OA
ATOM     26  H   UNL     1     -41.726  21.368   0.082  0.00  0.00    +0.211 HD
ENDBRANCH  24  25
ENDBRANCH  21  24
ENDBRANCH   1  18
TORSDOF 4
ENDMDL
MODEL 3
REMARK VINA RESULT:      -6.1      3.492      5.981
REMARK  Name = 5271785
REMARK  4 active torsions:
REMARK  status: ('A' for Active; 'I' for Inactive)
REMARK    1  A    between atoms: N_1  and  C_15
REMARK    2  A    between atoms: C_17  and  O_19
REMARK    3  A    between atoms: C_18  and  C_21
REMARK    4  A    between atoms: C_21  and  O_22
REMARK                            x       y       z     vdW  Elec       q    Type
REMARK                         _______ _______ _______ _____ _____    ______ ____
ROOT
ATOM      1  N   UNL     1     -34.270  25.641   3.718  0.00  0.00    -0.239 N 
ATOM      2  N   UNL     1     -32.973  26.655   5.481  0.00  0.00    -0.317 NA
ATOM      3  N   UNL     1     -32.415  28.984   5.044  0.00  0.00    -0.317 NA
ATOM      4  N   UNL     1     -31.721  27.913   7.006  0.00  0.00    -0.283 N 
ATOM      5  C   UNL     1     -33.600  26.695   4.294  0.00  0.00    +0.191 C 
ATOM      6  C   UNL     1     -34.784  26.048   2.508  0.00  0.00    +0.066 C 
ATOM      7  C   UNL     1     -33.690  27.787   3.439  0.00  0.00    +0.158 C 
ATOM      8  C   UNL     1     -34.441  27.369   2.311  0.00  0.00    +0.007 C 
ATOM      9  C   UNL     1     -33.064  28.961   3.857  0.00  0.00    +0.179 C 
ATOM     10  C   UNL     1     -32.410  27.845   5.773  0.00  0.00    +0.198 C 
ATOM     11  H   UNL     1     -31.677  27.120   7.589  0.00  0.00    +0.156 HD
ATOM     12  H   UNL     1     -31.287  28.752   7.282  0.00  0.00    +0.156 HD
ATOM     13  N   UNL     1     -33.101  30.119   3.059  0.00  0.00    -0.335 N 
ATOM     14  H   UNL     1     -32.656  30.942   3.365  0.00  0.00    +0.144 HD
ATOM     15  H   UNL     1     -33.573  30.106   2.195  0.00  0.00    +0.144 HD
ENDROOT
BRANCH   1  18
ATOM     16  F   UNL     1     -36.521  24.975   5.130  0.00  0.00    -0.230 F 
ATOM     17  O   UNL     1     -34.808  23.369   3.266  0.00  0.00    -0.332 OA
ATOM     18  C   UNL     1     -34.417  24.307   4.285  0.00  0.00    +0.234 C 
ATOM     19  C   UNL     1     -35.442  24.196   5.403  0.00  0.00    +0.237 C 
ATOM     20  C   UNL     1     -35.863  22.749   5.317  0.00  0.00    +0.177 C 
ATOM     21  C   UNL     1     -35.749  22.432   3.828  0.00  0.00    +0.176 C 
BRANCH  20  22
ATOM     22  O   UNL     1     -34.962  21.939   6.066  0.00  0.00    -0.379 OA
ATOM     23  H   UNL     1     -34.550  22.473   6.764  0.00  0.00    +0.211 HD
ENDBRANCH  20  22
BRANCH  21  24
ATOM     24  C   UNL     1     -37.067  22.593   3.086  0.00  0.00    +0.169 C 
BRANCH  24  25
ATOM     25  O   UNL     1     -37.528  21.312   2.696  0.00  0.00    -0.379 OA
ATOM     26  H   UNL     1     -37.145  20.638   3.279  0.00  0.00    +0.211 HD
ENDBRANCH  24  25
ENDBRANCH  21  24
ENDBRANCH   1  18
TORSDOF 4
ENDMDL
MODEL 4
REMARK VINA RESULT:      -6.1      3.019      5.006
REMARK  Name = 5271785
REMARK  4 active torsions:
REMARK  status: ('A' for Active; 'I' for Inactive)
REMARK    1  A    between atoms: N_1  and  C_15
REMARK    2  A    between atoms: C_17  and  O_19
REMARK    3  A    between atoms: C_18  and  C_21
REMARK    4  A    between atoms: C_21  and  O_22
REMARK                            x       y       z     vdW  Elec       q    Type
REMARK                         _______ _______ _______ _____ _____    ______ ____
ROOT
ATOM      1  N   UNL     1     -38.135  23.914   1.941  0.00  0.00    -0.239 N 
ATOM      2  N   UNL     1     -36.823  22.657   3.527  0.00  0.00    -0.317 NA
ATOM      3  N   UNL     1     -35.961  24.019   5.352  0.00  0.00    -0.317 NA
ATOM      4  N   UNL     1     -35.513  21.725   5.226  0.00  0.00    -0.283 N 
ATOM      5  C   UNL     1     -37.374  23.798   3.080  0.00  0.00    +0.191 C 
ATOM      6  C   UNL     1     -38.528  25.226   1.799  0.00  0.00    +0.066 C 
ATOM      7  C   UNL     1     -37.282  25.052   3.672  0.00  0.00    +0.158 C 
ATOM      8  C   UNL     1     -38.015  25.950   2.855  0.00  0.00    +0.007 C 
ATOM      9  C   UNL     1     -36.541  25.133   4.850  0.00  0.00    +0.179 C 
ATOM     10  C   UNL     1     -36.135  22.866   4.668  0.00  0.00    +0.198 C 
ATOM     11  H   UNL     1     -35.598  20.851   4.781  0.00  0.00    +0.156 HD
ATOM     12  H   UNL     1     -34.995  21.805   6.060  0.00  0.00    +0.156 HD
ATOM     13  N   UNL     1     -36.391  26.360   5.522  0.00  0.00    -0.335 N 
ATOM     14  H   UNL     1     -35.867  26.406   6.354  0.00  0.00    +0.144 HD
ATOM     15  H   UNL     1     -36.813  27.174   5.160  0.00  0.00    +0.144 HD
ENDROOT
BRANCH   1  18
ATOM     16  F   UNL     1     -36.298  23.007   0.121  0.00  0.00    -0.230 F 
ATOM     17  O   UNL     1     -38.402  21.564   1.695  0.00  0.00    -0.332 OA
ATOM     18  C   UNL     1     -38.476  22.834   1.023  0.00  0.00    +0.234 C 
ATOM     19  C   UNL     1     -37.589  22.735  -0.207  0.00  0.00    +0.237 C 
ATOM     20  C   UNL     1     -37.691  21.272  -0.566  0.00  0.00    +0.177 C 
ATOM     21  C   UNL     1     -37.861  20.584   0.786  0.00  0.00    +0.176 C 
BRANCH  20  22
ATOM     22  O   UNL     1     -38.840  21.055  -1.380  0.00  0.00    -0.379 OA
ATOM     23  H   UNL     1     -38.905  20.114  -1.605  0.00  0.00    +0.211 HD
ENDBRANCH  20  22
BRANCH  21  24
ATOM     24  C   UNL     1     -36.545  20.086   1.365  0.00  0.00    +0.169 C 
BRANCH  24  25
ATOM     25  O   UNL     1     -36.711  19.881   2.757  0.00  0.00    -0.379 OA
ATOM     26  H   UNL     1     -37.456  19.279   2.909  0.00  0.00    +0.211 HD
ENDBRANCH  24  25
ENDBRANCH  21  24
ENDBRANCH   1  18
TORSDOF 4
ENDMDL
MODEL 5
REMARK VINA RESULT:      -6.1      3.093      5.698
REMARK  Name = 5271785
REMARK  4 active torsions:
REMARK  status: ('A' for Active; 'I' for Inactive)
REMARK    1  A    between atoms: N_1  and  C_15
REMARK    2  A    between atoms: C_17  and  O_19
REMARK    3  A    between atoms: C_18  and  C_21
REMARK    4  A    between atoms: C_21  and  O_22
REMARK                            x       y       z     vdW  Elec       q    Type
REMARK                         _______ _______ _______ _____ _____    ______ ____
ROOT
ATOM      1  N   UNL     1     -36.256  23.760   3.432  0.00  0.00    -0.239 N 
ATOM      2  N   UNL     1     -35.994  26.093   2.877  0.00  0.00    -0.317 NA
ATOM      3  N   UNL     1     -34.630  27.313   4.482  0.00  0.00    -0.317 NA
ATOM      4  N   UNL     1     -35.557  28.375   2.613  0.00  0.00    -0.283 N 
ATOM      5  C   UNL     1     -35.770  25.025   3.662  0.00  0.00    +0.191 C 
ATOM      6  C   UNL     1     -35.825  22.927   4.440  0.00  0.00    +0.066 C 
ATOM      7  C   UNL     1     -35.019  24.998   4.831  0.00  0.00    +0.158 C 
ATOM      8  C   UNL     1     -35.059  23.667   5.317  0.00  0.00    +0.007 C 
ATOM      9  C   UNL     1     -34.441  26.202   5.230  0.00  0.00    +0.179 C 
ATOM     10  C   UNL     1     -35.385  27.191   3.366  0.00  0.00    +0.198 C 
ATOM     11  H   UNL     1     -36.095  28.360   1.788  0.00  0.00    +0.156 HD
ATOM     12  H   UNL     1     -35.139  29.215   2.913  0.00  0.00    +0.156 HD
ATOM     13  N   UNL     1     -33.664  26.274   6.400  0.00  0.00    -0.335 N 
ATOM     14  H   UNL     1     -33.259  27.129   6.672  0.00  0.00    +0.144 HD
ATOM     15  H   UNL     1     -33.523  25.467   6.948  0.00  0.00    +0.144 HD
ENDROOT
BRANCH   1  18
ATOM     16  F   UNL     1     -35.117  22.857   1.109  0.00  0.00    -0.230 F 
ATOM     17  O   UNL     1     -37.624  22.035   2.532  0.00  0.00    -0.332 OA
ATOM     18  C   UNL     1     -37.092  23.353   2.309  0.00  0.00    +0.234 C 
ATOM     19  C   UNL     1     -36.385  23.322   0.964  0.00  0.00    +0.237 C 
ATOM     20  C   UNL     1     -37.185  22.295   0.199  0.00  0.00    +0.177 C 
ATOM     21  C   UNL     1     -37.639  21.318   1.281  0.00  0.00    +0.176 C 
BRANCH  20  22
ATOM     22  O   UNL     1     -38.313  22.918  -0.409  0.00  0.00    -0.379 OA
ATOM     23  H   UNL     1     -38.012  23.535  -1.094  0.00  0.00    +0.211 HD
ENDBRANCH  20  22
BRANCH  21  24
ATOM     24  C   UNL     1     -36.713  20.118   1.420  0.00  0.00    +0.169 C 
BRANCH  24  25
ATOM     25  O   UNL     1     -36.658  19.743   2.785  0.00  0.00    -0.379 OA
ATOM     26  H   UNL     1     -35.956  20.241   3.230  0.00  0.00    +0.211 HD
ENDBRANCH  24  25
ENDBRANCH  21  24
ENDBRANCH   1  18
TORSDOF 4
ENDMDL
MODEL 6
REMARK VINA RESULT:      -6.0      2.933      5.628
REMARK  Name = 5271785
REMARK  4 active torsions:
REMARK  status: ('A' for Active; 'I' for Inactive)
REMARK    1  A    between atoms: N_1  and  C_15
REMARK    2  A    between atoms: C_17  and  O_19
REMARK    3  A    between atoms: C_18  and  C_21
REMARK    4  A    between atoms: C_21  and  O_22
REMARK                            x       y       z     vdW  Elec       q    Type
REMARK                         _______ _______ _______ _____ _____    ______ ____
ROOT
ATOM      1  N   UNL     1     -37.142  22.725   2.226  0.00  0.00    -0.239 N 
ATOM      2  N   UNL     1     -36.887  24.525   3.811  0.00  0.00    -0.317 NA
ATOM      3  N   UNL     1     -35.506  23.929   5.726  0.00  0.00    -0.317 NA
ATOM      4  N   UNL     1     -36.454  26.059   5.523  0.00  0.00    -0.283 N 
ATOM      5  C   UNL     1     -36.654  23.271   3.390  0.00  0.00    +0.191 C 
ATOM      6  C   UNL     1     -36.700  21.426   2.123  0.00  0.00    +0.066 C 
ATOM      7  C   UNL     1     -35.891  22.306   4.036  0.00  0.00    +0.158 C 
ATOM      8  C   UNL     1     -35.925  21.142   3.228  0.00  0.00    +0.007 C 
ATOM      9  C   UNL     1     -35.308  22.679   5.247  0.00  0.00    +0.179 C 
ATOM     10  C   UNL     1     -36.273  24.763   4.988  0.00  0.00    +0.198 C 
ATOM     11  H   UNL     1     -37.001  26.720   5.039  0.00  0.00    +0.156 HD
ATOM     12  H   UNL     1     -36.032  26.301   6.380  0.00  0.00    +0.156 HD
ATOM     13  N   UNL     1     -34.518  21.770   5.974  0.00  0.00    -0.335 N 
ATOM     14  H   UNL     1     -34.111  22.044   6.828  0.00  0.00    +0.144 HD
ATOM     15  H   UNL     1     -34.372  20.859   5.629  0.00  0.00    +0.144 HD
ENDROOT
BRANCH   1  18
ATOM     16  F   UNL     1     -39.869  22.658   2.478  0.00  0.00    -0.230 F 
ATOM     17  O   UNL     1     -38.025  24.815   1.513  0.00  0.00    -0.332 OA
ATOM     18  C   UNL     1     -37.990  23.401   1.252  0.00  0.00    +0.234 C 
ATOM     19  C   UNL     1     -39.432  22.923   1.219  0.00  0.00    +0.237 C 
ATOM     20  C   UNL     1     -40.167  24.137   0.704  0.00  0.00    +0.177 C 
ATOM     21  C   UNL     1     -39.357  25.306   1.260  0.00  0.00    +0.176 C 
BRANCH  20  22
ATOM     22  O   UNL     1     -40.141  24.149  -0.720  0.00  0.00    -0.379 OA
ATOM     23  H   UNL     1     -39.451  24.758  -1.026  0.00  0.00    +0.211 HD
ENDBRANCH  20  22
BRANCH  21  24
ATOM     24  C   UNL     1     -39.914  25.842   2.570  0.00  0.00    +0.169 C 
BRANCH  24  25
ATOM     25  O   UNL     1     -38.861  26.450   3.296  0.00  0.00    -0.379 OA
ATOM     26  H   UNL     1     -38.170  25.794   3.475  0.00  0.00    +0.211 HD
ENDBRANCH  24  25
ENDBRANCH  21  24
ENDBRANCH   1  18
TORSDOF 4
ENDMDL
MODEL 7
REMARK VINA RESULT:      -6.0      2.964      5.123
REMARK  Name = 5271785
REMARK  4 active torsions:
REMARK  status: ('A' for Active; 'I' for Inactive)
REMARK    1  A    between atoms: N_1  and  C_15
REMARK    2  A    between atoms: C_17  and  O_19
REMARK    3  A    between atoms: C_18  and  C_21
REMARK    4  A    between atoms: C_21  and  O_22
REMARK                            x       y       z     vdW  Elec       q    Type
REMARK                         _______ _______ _______ _____ _____    ______ ____
ROOT
ATOM      1  N   UNL     1     -37.170  24.081   2.974  0.00  0.00    -0.239 N 
ATOM      2  N   UNL     1     -36.546  21.873   2.231  0.00  0.00    -0.317 NA
ATOM      3  N   UNL     1     -35.221  20.650   3.867  0.00  0.00    -0.317 NA
ATOM      4  N   UNL     1     -35.787  19.702   1.803  0.00  0.00    -0.283 N 
ATOM      5  C   UNL     1     -36.551  22.865   3.138  0.00  0.00    +0.191 C 
ATOM      6  C   UNL     1     -36.966  24.841   4.104  0.00  0.00    +0.066 C 
ATOM      7  C   UNL     1     -35.947  22.849   4.389  0.00  0.00    +0.158 C 
ATOM      8  C   UNL     1     -36.214  24.103   4.994  0.00  0.00    +0.007 C 
ATOM      9  C   UNL     1     -35.263  21.685   4.738  0.00  0.00    +0.179 C 
ATOM     10  C   UNL     1     -35.856  20.806   2.684  0.00  0.00    +0.198 C 
ATOM     11  H   UNL     1     -36.227  19.746   0.923  0.00  0.00    +0.156 HD
ATOM     12  H   UNL     1     -35.300  18.889   2.070  0.00  0.00    +0.156 HD
ATOM     13  N   UNL     1     -34.619  21.575   5.983  0.00  0.00    -0.335 N 
ATOM     14  H   UNL     1     -34.140  20.748   6.220  0.00  0.00    +0.144 HD
ATOM     15  H   UNL     1     -34.648  22.326   6.620  0.00  0.00    +0.144 HD
ENDROOT
BRANCH   1  18
ATOM     16  F   UNL     1     -39.751  23.245   2.596  0.00  0.00    -0.230 F 
ATOM     17  O   UNL     1     -38.407  25.852   1.979  0.00  0.00    -0.332 OA
ATOM     18  C   UNL     1     -37.921  24.510   1.800  0.00  0.00    +0.234 C 
ATOM     19  C   UNL     1     -39.124  23.646   1.459  0.00  0.00    +0.237 C 
ATOM     20  C   UNL     1     -40.026  24.615   0.733  0.00  0.00    +0.177 C 
ATOM     21  C   UNL     1     -39.726  25.953   1.404  0.00  0.00    +0.176 C 
BRANCH  20  22
ATOM     22  O   UNL     1     -39.672  24.662  -0.646  0.00  0.00    -0.379 OA
ATOM     23  H   UNL     1     -40.359  24.225  -1.173  0.00  0.00    +0.211 HD
ENDBRANCH  20  22
BRANCH  21  24
ATOM     24  C   UNL     1     -40.700  26.284   2.524  0.00  0.00    +0.169 C 
BRANCH  24  25
ATOM     25  O   UNL     1     -39.961  26.662   3.672  0.00  0.00    -0.379 OA
ATOM     26  H   UNL     1     -39.062  26.304   3.610  0.00  0.00    +0.211 HD
ENDBRANCH  24  25
ENDBRANCH  21  24
ENDBRANCH   1  18
TORSDOF 4
ENDMDL
MODEL 8
REMARK VINA RESULT:      -6.0      3.058      5.571
REMARK  Name = 5271785
REMARK  4 active torsions:
REMARK  status: ('A' for Active; 'I' for Inactive)
REMARK    1  A    between atoms: N_1  and  C_15
REMARK    2  A    between atoms: C_17  and  O_19
REMARK    3  A    between atoms: C_18  and  C_21
REMARK    4  A    between atoms: C_21  and  O_22
REMARK                            x       y       z     vdW  Elec       q    Type
REMARK                         _______ _______ _______ _____ _____    ______ ____
ROOT
ATOM      1  N   UNL     1     -37.193  25.152   2.759  0.00  0.00    -0.239 N 
ATOM      2  N   UNL     1     -36.657  23.463   4.395  0.00  0.00    -0.317 NA
ATOM      3  N   UNL     1     -34.944  24.167   5.976  0.00  0.00    -0.317 NA
ATOM      4  N   UNL     1     -35.921  22.044   6.104  0.00  0.00    -0.283 N 
ATOM      5  C   UNL     1     -36.501  24.681   3.850  0.00  0.00    +0.191 C 
ATOM      6  C   UNL     1     -36.772  26.434   2.484  0.00  0.00    +0.066 C 
ATOM      7  C   UNL     1     -35.628  25.676   4.275  0.00  0.00    +0.158 C 
ATOM      8  C   UNL     1     -35.806  26.782   3.406  0.00  0.00    +0.007 C 
ATOM      9  C   UNL     1     -34.834  25.377   5.381  0.00  0.00    +0.179 C 
ATOM     10  C   UNL     1     -35.837  23.297   5.453  0.00  0.00    +0.198 C 
ATOM     11  H   UNL     1     -36.551  21.361   5.776  0.00  0.00    +0.156 HD
ATOM     12  H   UNL     1     -35.351  21.856   6.884  0.00  0.00    +0.156 HD
ATOM     13  N   UNL     1     -33.920  26.321   5.885  0.00  0.00    -0.335 N 
ATOM     14  H   UNL     1     -33.364  26.101   6.667  0.00  0.00    +0.144 HD
ATOM     15  H   UNL     1     -33.837  27.204   5.455  0.00  0.00    +0.144 HD
ENDROOT
BRANCH   1  18
ATOM     16  F   UNL     1     -39.809  25.181   3.573  0.00  0.00    -0.230 F 
ATOM     17  O   UNL     1     -38.590  25.165   0.835  0.00  0.00    -0.332 OA
ATOM     18  C   UNL     1     -38.208  24.425   2.008  0.00  0.00    +0.234 C 
ATOM     19  C   UNL     1     -39.485  24.129   2.778  0.00  0.00    +0.237 C 
ATOM     20  C   UNL     1     -40.513  24.027   1.677  0.00  0.00    +0.177 C 
ATOM     21  C   UNL     1     -40.008  25.012   0.626  0.00  0.00    +0.176 C 
BRANCH  20  22
ATOM     22  O   UNL     1     -40.526  22.703   1.150  0.00  0.00    -0.379 OA
ATOM     23  H   UNL     1     -41.098  22.143   1.697  0.00  0.00    +0.211 HD
ENDBRANCH  20  22
BRANCH  21  24
ATOM     24  C   UNL     1     -40.649  26.387   0.747  0.00  0.00    +0.169 C 
BRANCH  24  25
ATOM     25  O   UNL     1     -39.624  27.364   0.778  0.00  0.00    -0.379 OA
ATOM     26  H   UNL     1     -39.079  27.236   1.570  0.00  0.00    +0.211 HD
ENDBRANCH  24  25
ENDBRANCH  21  24
ENDBRANCH   1  18
TORSDOF 4
ENDMDL
MODEL 9
REMARK VINA RESULT:      -5.8      3.533      5.582
REMARK  Name = 5271785
REMARK  4 active torsions:
REMARK  status: ('A' for Active; 'I' for Inactive)
REMARK    1  A    between atoms: N_1  and  C_15
REMARK    2  A    between atoms: C_17  and  O_19
REMARK    3  A    between atoms: C_18  and  C_21
REMARK    4  A    between atoms: C_21  and  O_22
REMARK                            x       y       z     vdW  Elec       q    Type
REMARK                         _______ _______ _______ _____ _____    ______ ____
ROOT
ATOM      1  N   UNL     1     -35.038  25.977   4.084  0.00  0.00    -0.239 N 
ATOM      2  N   UNL     1     -36.004  27.371   2.368  0.00  0.00    -0.317 NA
ATOM      3  N   UNL     1     -34.751  29.423   1.983  0.00  0.00    -0.317 NA
ATOM      4  N   UNL     1     -36.688  28.930   0.764  0.00  0.00    -0.283 N 
ATOM      5  C   UNL     1     -35.070  27.104   3.297  0.00  0.00    +0.191 C 
ATOM      6  C   UNL     1     -33.943  26.045   4.915  0.00  0.00    +0.066 C 
ATOM      7  C   UNL     1     -33.980  27.899   3.631  0.00  0.00    +0.158 C 
ATOM      8  C   UNL     1     -33.272  27.222   4.656  0.00  0.00    +0.007 C 
ATOM      9  C   UNL     1     -33.843  29.097   2.931  0.00  0.00    +0.179 C 
ATOM     10  C   UNL     1     -35.762  28.552   1.763  0.00  0.00    +0.198 C 
ATOM     11  H   UNL     1     -37.450  28.343   0.552  0.00  0.00    +0.156 HD
ATOM     12  H   UNL     1     -36.572  29.780   0.282  0.00  0.00    +0.156 HD
ATOM     13  N   UNL     1     -32.772  29.968   3.199  0.00  0.00    -0.335 N 
ATOM     14  H   UNL     1     -32.684  30.811   2.698  0.00  0.00    +0.144 HD
ATOM     15  H   UNL     1     -32.108  29.734   3.888  0.00  0.00    +0.144 HD
ENDROOT
BRANCH   1  18
ATOM     16  F   UNL     1     -34.394  23.594   2.896  0.00  0.00    -0.230 F 
ATOM     17  O   UNL     1     -36.037  24.212   5.326  0.00  0.00    -0.332 OA
ATOM     18  C   UNL     1     -36.001  24.883   4.054  0.00  0.00    +0.234 C 
ATOM     19  C   UNL     1     -35.729  23.821   3.002  0.00  0.00    +0.237 C 
ATOM     20  C   UNL     1     -36.375  22.595   3.601  0.00  0.00    +0.177 C 
ATOM     21  C   UNL     1     -36.195  22.796   5.104  0.00  0.00    +0.176 C 
BRANCH  20  22
ATOM     22  O   UNL     1     -37.760  22.568   3.268  0.00  0.00    -0.379 OA
ATOM     23  H   UNL     1     -37.930  21.843   2.646  0.00  0.00    +0.211 HD
ENDBRANCH  20  22
BRANCH  21  24
ATOM     24  C   UNL     1     -34.959  22.096   5.650  0.00  0.00    +0.169 C 
BRANCH  24  25
ATOM     25  O   UNL     1     -35.242  20.715   5.787  0.00  0.00    -0.379 OA
ATOM     26  H   UNL     1     -34.654  20.205   5.210  0.00  0.00    +0.211 HD
ENDBRANCH  24  25
ENDBRANCH  21  24
ENDBRANCH   1  18
TORSDOF 4
ENDMDL
