MODEL 1
REMARK VINA RESULT:      -5.1      0.000      0.000
REMARK  Name = 194159
REMARK  8 active torsions:
REMARK  status: ('A' for Active; 'I' for Inactive)
REMARK    1  A    between atoms: C_2  and  O_6
REMARK    2  A    between atoms: C_3  and  C_12
REMARK    3  A    between atoms: C_4  and  O_8
REMARK    4  A    between atoms: C_5  and  C_11
REMARK    5  A    between atoms: C_12  and  O_13
REMARK    6  A    between atoms: O_13  and  P_14
REMARK    7  A    between atoms: P_14  and  O_16
REMARK    8  A    between atoms: P_14  and  O_18
REMARK                            x       y       z     vdW  Elec       q    Type
REMARK                         _______ _______ _______ _____ _____    ______ ____
ROOT
ATOM      1  O   UNL     1     -34.352  25.342   3.004  0.00  0.00    -0.343 OA
ATOM      2  C   UNL     1     -36.081  24.429   4.311  0.00  0.00    +0.170 C 
ATOM      3  C   UNL     1     -34.920  24.082   3.398  0.00  0.00    +0.175 C 
ATOM      4  C   UNL     1     -35.532  25.629   5.052  0.00  0.00    +0.174 C 
ATOM      5  C   UNL     1     -34.718  26.329   3.977  0.00  0.00    +0.209 C 
ENDROOT
BRANCH   2   6
ATOM      6  O   UNL     1     -36.388  23.377   5.205  0.00  0.00    -0.379 OA
ATOM      7  H   UNL     1     -35.885  22.586   4.958  0.00  0.00    +0.211 HD
ENDBRANCH   2   6
BRANCH   4   8
ATOM      8  O   UNL     1     -36.572  26.471   5.519  0.00  0.00    -0.379 OA
ATOM      9  H   UNL     1     -37.430  26.101   5.258  0.00  0.00    +0.211 HD
ENDBRANCH   4   8
BRANCH   5  11
ATOM     10  O   UNL     1     -33.312  27.277   5.673  0.00  0.00    -0.286 OA
ATOM     11  C   UNL     1     -33.438  26.871   4.523  0.00  0.00    +0.239 C 
ENDBRANCH   5  11
BRANCH   3  12
ATOM     12  C   UNL     1     -35.334  23.304   2.162  0.00  0.00    +0.186 C 
BRANCH  12  13
ATOM     13  O   UNL     1     -36.214  22.261   2.550  0.00  0.00    -0.271 OA
BRANCH  13  14
ATOM     14  P   UNL     1     -35.614  20.766   2.712  0.00  0.00    +0.473 P 
ATOM     15  O   UNL     1     -34.463  20.444   1.805  0.00  0.00    -0.227 OA
BRANCH  14  16
ATOM     16  O   UNL     1     -36.910  19.813   2.548  0.00  0.00    -0.303 OA
ATOM     17  H   UNL     1     -36.677  19.040   2.012  0.00  0.00    +0.222 HD
ENDBRANCH  14  16
BRANCH  14  18
ATOM     18  O   UNL     1     -35.285  20.679   4.291  0.00  0.00    -0.303 OA
ATOM     19  H   UNL     1     -34.357  20.918   4.443  0.00  0.00    +0.222 HD
ENDBRANCH  14  18
ENDBRANCH  13  14
ENDBRANCH  12  13
ENDBRANCH   3  12
TORSDOF 8
ENDMDL
MODEL 2
REMARK VINA RESULT:      -4.9      1.597      1.733
REMARK  Name = 194159
REMARK  8 active torsions:
REMARK  status: ('A' for Active; 'I' for Inactive)
REMARK    1  A    between atoms: C_2  and  O_6
REMARK    2  A    between atoms: C_3  and  C_12
REMARK    3  A    between atoms: C_4  and  O_8
REMARK    4  A    between atoms: C_5  and  C_11
REMARK    5  A    between atoms: C_12  and  O_13
REMARK    6  A    between atoms: O_13  and  P_14
REMARK    7  A    between atoms: P_14  and  O_16
REMARK    8  A    between atoms: P_14  and  O_18
REMARK                            x       y       z     vdW  Elec       q    Type
REMARK                         _______ _______ _______ _____ _____    ______ ____
ROOT
ATOM      1  O   UNL     1     -34.323  24.335   5.058  0.00  0.00    -0.343 OA
ATOM      2  C   UNL     1     -36.403  25.003   4.185  0.00  0.00    +0.170 C 
ATOM      3  C   UNL     1     -35.681  23.886   4.916  0.00  0.00    +0.175 C 
ATOM      4  C   UNL     1     -35.741  26.226   4.779  0.00  0.00    +0.174 C 
ATOM      5  C   UNL     1     -34.305  25.765   4.958  0.00  0.00    +0.209 C 
ENDROOT
BRANCH   2   6
ATOM      6  O   UNL     1     -37.793  24.999   4.447  0.00  0.00    -0.379 OA
ATOM      7  H   UNL     1     -38.218  24.299   3.929  0.00  0.00    +0.211 HD
ENDBRANCH   2   6
BRANCH   4   8
ATOM      8  O   UNL     1     -35.803  27.332   3.894  0.00  0.00    -0.379 OA
ATOM      9  H   UNL     1     -35.423  27.082   3.037  0.00  0.00    +0.211 HD
ENDBRANCH   4   8
BRANCH   5  11
ATOM     10  O   UNL     1     -32.665  26.882   6.306  0.00  0.00    -0.286 OA
ATOM     11  C   UNL     1     -33.723  26.263   6.240  0.00  0.00    +0.239 C 
ENDBRANCH   5  11
BRANCH   3  12
ATOM     12  C   UNL     1     -35.703  22.562   4.172  0.00  0.00    +0.186 C 
BRANCH  12  13
ATOM     13  O   UNL     1     -36.809  22.555   3.284  0.00  0.00    -0.271 OA
BRANCH  13  14
ATOM     14  P   UNL     1     -36.907  21.370   2.185  0.00  0.00    +0.473 P 
ATOM     15  O   UNL     1     -36.356  21.714   0.832  0.00  0.00    -0.227 OA
BRANCH  14  16
ATOM     16  O   UNL     1     -38.469  20.953   2.209  0.00  0.00    -0.303 OA
ATOM     17  H   UNL     1     -39.011  21.713   1.947  0.00  0.00    +0.222 HD
ENDBRANCH  14  16
BRANCH  14  18
ATOM     18  O   UNL     1     -36.179  20.132   2.925  0.00  0.00    -0.303 OA
ATOM     19  H   UNL     1     -35.528  19.734   2.326  0.00  0.00    +0.222 HD
ENDBRANCH  14  18
ENDBRANCH  13  14
ENDBRANCH  12  13
ENDBRANCH   3  12
TORSDOF 8
ENDMDL
MODEL 3
REMARK VINA RESULT:      -4.9      2.310      3.555
REMARK  Name = 194159
REMARK  8 active torsions:
REMARK  status: ('A' for Active; 'I' for Inactive)
REMARK    1  A    between atoms: C_2  and  O_6
REMARK    2  A    between atoms: C_3  and  C_12
REMARK    3  A    between atoms: C_4  and  O_8
REMARK    4  A    between atoms: C_5  and  C_11
REMARK    5  A    between atoms: C_12  and  O_13
REMARK    6  A    between atoms: O_13  and  P_14
REMARK    7  A    between atoms: P_14  and  O_16
REMARK    8  A    between atoms: P_14  and  O_18
REMARK                            x       y       z     vdW  Elec       q    Type
REMARK                         _______ _______ _______ _____ _____    ______ ____
ROOT
ATOM      1  O   UNL     1     -36.398  22.821   4.113  0.00  0.00    -0.343 OA
ATOM      2  C   UNL     1     -36.120  25.157   4.143  0.00  0.00    +0.170 C 
ATOM      3  C   UNL     1     -37.149  24.045   4.056  0.00  0.00    +0.175 C 
ATOM      4  C   UNL     1     -35.120  24.564   5.111  0.00  0.00    +0.174 C 
ATOM      5  C   UNL     1     -35.134  23.093   4.733  0.00  0.00    +0.209 C 
ENDROOT
BRANCH   2   6
ATOM      6  O   UNL     1     -36.673  26.354   4.653  0.00  0.00    -0.379 OA
ATOM      7  H   UNL     1     -36.092  26.711   5.343  0.00  0.00    +0.211 HD
ENDBRANCH   2   6
BRANCH   4   8
ATOM      8  O   UNL     1     -33.827  25.115   4.925  0.00  0.00    -0.379 OA
ATOM      9  H   UNL     1     -33.227  24.767   5.603  0.00  0.00    +0.211 HD
ENDBRANCH   4   8
BRANCH   5  11
ATOM     10  O   UNL     1     -36.026  21.993   6.670  0.00  0.00    -0.286 OA
ATOM     11  C   UNL     1     -35.065  22.215   5.939  0.00  0.00    +0.239 C 
ENDBRANCH   5  11
BRANCH   3  12
ATOM     12  C   UNL     1     -37.969  24.078   2.778  0.00  0.00    +0.186 C 
BRANCH  12  13
ATOM     13  O   UNL     1     -38.994  23.101   2.866  0.00  0.00    -0.271 OA
BRANCH  13  14
ATOM     14  P   UNL     1     -38.981  21.872   1.814  0.00  0.00    +0.473 P 
ATOM     15  O   UNL     1     -38.843  22.272   0.374  0.00  0.00    -0.227 OA
BRANCH  14  16
ATOM     16  O   UNL     1     -40.321  21.042   2.175  0.00  0.00    -0.303 OA
ATOM     17  H   UNL     1     -40.107  20.099   2.248  0.00  0.00    +0.222 HD
ENDBRANCH  14  16
BRANCH  14  18
ATOM     18  O   UNL     1     -37.796  20.929   2.378  0.00  0.00    -0.303 OA
ATOM     19  H   UNL     1     -37.025  20.992   1.793  0.00  0.00    +0.222 HD
ENDBRANCH  14  18
ENDBRANCH  13  14
ENDBRANCH  12  13
ENDBRANCH   3  12
TORSDOF 8
ENDMDL
MODEL 4
REMARK VINA RESULT:      -4.7      3.031      6.094
REMARK  Name = 194159
REMARK  8 active torsions:
REMARK  status: ('A' for Active; 'I' for Inactive)
REMARK    1  A    between atoms: C_2  and  O_6
REMARK    2  A    between atoms: C_3  and  C_12
REMARK    3  A    between atoms: C_4  and  O_8
REMARK    4  A    between atoms: C_5  and  C_11
REMARK    5  A    between atoms: C_12  and  O_13
REMARK    6  A    between atoms: O_13  and  P_14
REMARK    7  A    between atoms: P_14  and  O_16
REMARK    8  A    between atoms: P_14  and  O_18
REMARK                            x       y       z     vdW  Elec       q    Type
REMARK                         _______ _______ _______ _____ _____    ______ ____
ROOT
ATOM      1  O   UNL     1     -34.685  24.158   5.531  0.00  0.00    -0.343 OA
ATOM      2  C   UNL     1     -35.857  25.995   4.644  0.00  0.00    +0.170 C 
ATOM      3  C   UNL     1     -34.473  25.465   4.972  0.00  0.00    +0.175 C 
ATOM      4  C   UNL     1     -36.556  24.737   4.177  0.00  0.00    +0.174 C 
ATOM      5  C   UNL     1     -35.962  23.678   5.089  0.00  0.00    +0.209 C 
ENDROOT
BRANCH   2   6
ATOM      6  O   UNL     1     -35.824  26.968   3.618  0.00  0.00    -0.379 OA
ATOM      7  H   UNL     1     -35.853  27.854   4.011  0.00  0.00    +0.211 HD
ENDBRANCH   2   6
BRANCH   4   8
ATOM      8  O   UNL     1     -37.959  24.824   4.361  0.00  0.00    -0.379 OA
ATOM      9  H   UNL     1     -38.267  25.702   4.085  0.00  0.00    +0.211 HD
ENDBRANCH   4   8
BRANCH   5  11
ATOM     10  O   UNL     1     -35.276  21.387   4.895  0.00  0.00    -0.286 OA
ATOM     11  C   UNL     1     -35.696  22.405   4.354  0.00  0.00    +0.239 C 
ENDBRANCH   5  11
BRANCH   3  12
ATOM     12  C   UNL     1     -33.716  26.326   5.968  0.00  0.00    +0.186 C 
BRANCH  12  13
ATOM     13  O   UNL     1     -33.305  27.520   5.322  0.00  0.00    -0.271 OA
BRANCH  13  14
ATOM     14  P   UNL     1     -32.029  28.319   5.916  0.00  0.00    +0.473 P 
ATOM     15  O   UNL     1     -30.701  27.890   5.366  0.00  0.00    -0.227 OA
BRANCH  14  16
ATOM     16  O   UNL     1     -32.195  28.169   7.518  0.00  0.00    -0.303 OA
ATOM     17  H   UNL     1     -32.208  27.229   7.755  0.00  0.00    +0.222 HD
ENDBRANCH  14  16
BRANCH  14  18
ATOM     18  O   UNL     1     -32.414  29.865   5.645  0.00  0.00    -0.303 OA
ATOM     19  H   UNL     1     -32.000  30.425   6.320  0.00  0.00    +0.222 HD
ENDBRANCH  14  18
ENDBRANCH  13  14
ENDBRANCH  12  13
ENDBRANCH   3  12
TORSDOF 8
ENDMDL
MODEL 5
REMARK VINA RESULT:      -4.7      3.437      6.037
REMARK  Name = 194159
REMARK  8 active torsions:
REMARK  status: ('A' for Active; 'I' for Inactive)
REMARK    1  A    between atoms: C_2  and  O_6
REMARK    2  A    between atoms: C_3  and  C_12
REMARK    3  A    between atoms: C_4  and  O_8
REMARK    4  A    between atoms: C_5  and  C_11
REMARK    5  A    between atoms: C_12  and  O_13
REMARK    6  A    between atoms: O_13  and  P_14
REMARK    7  A    between atoms: P_14  and  O_16
REMARK    8  A    between atoms: P_14  and  O_18
REMARK                            x       y       z     vdW  Elec       q    Type
REMARK                         _______ _______ _______ _____ _____    ______ ____
ROOT
ATOM      1  O   UNL     1     -33.588  25.541   5.018  0.00  0.00    -0.343 OA
ATOM      2  C   UNL     1     -35.043  26.913   3.779  0.00  0.00    +0.170 C 
ATOM      3  C   UNL     1     -33.639  26.339   3.823  0.00  0.00    +0.175 C 
ATOM      4  C   UNL     1     -35.855  25.760   4.328  0.00  0.00    +0.174 C 
ATOM      5  C   UNL     1     -34.927  25.180   5.380  0.00  0.00    +0.209 C 
ENDROOT
BRANCH   2   6
ATOM      6  O   UNL     1     -35.445  27.236   2.463  0.00  0.00    -0.379 OA
ATOM      7  H   UNL     1     -35.389  28.196   2.333  0.00  0.00    +0.211 HD
ENDBRANCH   2   6
BRANCH   4   8
ATOM      8  O   UNL     1     -37.062  26.211   4.920  0.00  0.00    -0.379 OA
ATOM      9  H   UNL     1     -37.235  27.125   4.647  0.00  0.00    +0.211 HD
ENDBRANCH   4   8
BRANCH   5  11
ATOM     10  O   UNL     1     -35.928  23.039   5.789  0.00  0.00    -0.286 OA
ATOM     11  C   UNL     1     -34.967  23.687   5.387  0.00  0.00    +0.239 C 
ENDBRANCH   5  11
BRANCH   3  12
ATOM     12  C   UNL     1     -32.553  27.398   3.873  0.00  0.00    +0.186 C 
BRANCH  12  13
ATOM     13  O   UNL     1     -32.825  28.283   4.948  0.00  0.00    -0.271 OA
BRANCH  13  14
ATOM     14  P   UNL     1     -31.751  28.385   6.154  0.00  0.00    +0.473 P 
ATOM     15  O   UNL     1     -31.744  29.694   6.888  0.00  0.00    -0.227 OA
BRANCH  14  16
ATOM     16  O   UNL     1     -30.351  27.976   5.456  0.00  0.00    -0.303 OA
ATOM     17  H   UNL     1     -29.838  27.420   6.062  0.00  0.00    +0.222 HD
ENDBRANCH  14  16
BRANCH  14  18
ATOM     18  O   UNL     1     -32.105  27.095   7.061  0.00  0.00    -0.303 OA
ATOM     19  H   UNL     1     -31.789  26.291   6.618  0.00  0.00    +0.222 HD
ENDBRANCH  14  18
ENDBRANCH  13  14
ENDBRANCH  12  13
ENDBRANCH   3  12
TORSDOF 8
ENDMDL
MODEL 6
REMARK VINA RESULT:      -4.7      1.436      1.861
REMARK  Name = 194159
REMARK  8 active torsions:
REMARK  status: ('A' for Active; 'I' for Inactive)
REMARK    1  A    between atoms: C_2  and  O_6
REMARK    2  A    between atoms: C_3  and  C_12
REMARK    3  A    between atoms: C_4  and  O_8
REMARK    4  A    between atoms: C_5  and  C_11
REMARK    5  A    between atoms: C_12  and  O_13
REMARK    6  A    between atoms: O_13  and  P_14
REMARK    7  A    between atoms: P_14  and  O_16
REMARK    8  A    between atoms: P_14  and  O_18
REMARK                            x       y       z     vdW  Elec       q    Type
REMARK                         _______ _______ _______ _____ _____    ______ ____
ROOT
ATOM      1  O   UNL     1     -35.130  24.915   2.363  0.00  0.00    -0.343 OA
ATOM      2  C   UNL     1     -36.536  23.369   3.445  0.00  0.00    +0.170 C 
ATOM      3  C   UNL     1     -35.186  23.539   2.771  0.00  0.00    +0.175 C 
ATOM      4  C   UNL     1     -36.686  24.698   4.152  0.00  0.00    +0.174 C 
ATOM      5  C   UNL     1     -36.051  25.664   3.168  0.00  0.00    +0.209 C 
ENDROOT
BRANCH   2   6
ATOM      6  O   UNL     1     -36.539  22.299   4.369  0.00  0.00    -0.379 OA
ATOM      7  H   UNL     1     -35.950  21.596   4.052  0.00  0.00    +0.211 HD
ENDBRANCH   2   6
BRANCH   4   8
ATOM      8  O   UNL     1     -38.050  25.023   4.363  0.00  0.00    -0.379 OA
ATOM      9  H   UNL     1     -38.115  25.915   4.740  0.00  0.00    +0.211 HD
ENDBRANCH   4   8
BRANCH   5  11
ATOM     10  O   UNL     1     -35.038  26.709   5.075  0.00  0.00    -0.286 OA
ATOM     11  C   UNL     1     -35.241  26.707   3.865  0.00  0.00    +0.239 C 
ENDBRANCH   5  11
BRANCH   3  12
ATOM     12  C   UNL     1     -34.997  22.642   1.561  0.00  0.00    +0.186 C 
BRANCH  12  13
ATOM     13  O   UNL     1     -34.906  21.295   1.998  0.00  0.00    -0.271 OA
BRANCH  13  14
ATOM     14  P   UNL     1     -35.949  20.216   1.392  0.00  0.00    +0.473 P 
ATOM     15  O   UNL     1     -36.748  20.698   0.216  0.00  0.00    -0.227 OA
BRANCH  14  16
ATOM     16  O   UNL     1     -36.818  19.759   2.676  0.00  0.00    -0.303 OA
ATOM     17  H   UNL     1     -36.572  18.855   2.928  0.00  0.00    +0.222 HD
ENDBRANCH  14  16
BRANCH  14  18
ATOM     18  O   UNL     1     -35.011  18.933   1.101  0.00  0.00    -0.303 OA
ATOM     19  H   UNL     1     -34.853  18.453   1.928  0.00  0.00    +0.222 HD
ENDBRANCH  14  18
ENDBRANCH  13  14
ENDBRANCH  12  13
ENDBRANCH   3  12
TORSDOF 8
ENDMDL
MODEL 7
REMARK VINA RESULT:      -4.7      1.718      2.190
REMARK  Name = 194159
REMARK  8 active torsions:
REMARK  status: ('A' for Active; 'I' for Inactive)
REMARK    1  A    between atoms: C_2  and  O_6
REMARK    2  A    between atoms: C_3  and  C_12
REMARK    3  A    between atoms: C_4  and  O_8
REMARK    4  A    between atoms: C_5  and  C_11
REMARK    5  A    between atoms: C_12  and  O_13
REMARK    6  A    between atoms: O_13  and  P_14
REMARK    7  A    between atoms: P_14  and  O_16
REMARK    8  A    between atoms: P_14  and  O_18
REMARK                            x       y       z     vdW  Elec       q    Type
REMARK                         _______ _______ _______ _____ _____    ______ ____
ROOT
ATOM      1  O   UNL     1     -33.557  25.207   4.276  0.00  0.00    -0.343 OA
ATOM      2  C   UNL     1     -35.762  25.957   4.608  0.00  0.00    +0.170 C 
ATOM      3  C   UNL     1     -34.625  25.173   5.237  0.00  0.00    +0.175 C 
ATOM      4  C   UNL     1     -35.009  27.055   3.890  0.00  0.00    +0.174 C 
ATOM      5  C   UNL     1     -33.761  26.333   3.411  0.00  0.00    +0.209 C 
ENDROOT
BRANCH   2   6
ATOM      6  O   UNL     1     -36.640  26.494   5.578  0.00  0.00    -0.379 OA
ATOM      7  H   UNL     1     -36.847  25.814   6.238  0.00  0.00    +0.211 HD
ENDBRANCH   2   6
BRANCH   4   8
ATOM      8  O   UNL     1     -35.747  27.558   2.789  0.00  0.00    -0.379 OA
ATOM      9  H   UNL     1     -35.277  27.357   1.965  0.00  0.00    +0.211 HD
ENDBRANCH   4   8
BRANCH   5  11
ATOM     10  O   UNL     1     -32.004  27.427   4.624  0.00  0.00    -0.286 OA
ATOM     11  C   UNL     1     -32.544  27.188   3.548  0.00  0.00    +0.239 C 
ENDBRANCH   5  11
BRANCH   3  12
ATOM     12  C   UNL     1     -34.983  23.731   5.548  0.00  0.00    +0.186 C 
BRANCH  12  13
ATOM     13  O   UNL     1     -36.134  23.373   4.800  0.00  0.00    -0.271 OA
BRANCH  13  14
ATOM     14  P   UNL     1     -35.959  22.351   3.557  0.00  0.00    +0.473 P 
ATOM     15  O   UNL     1     -35.005  22.807   2.491  0.00  0.00    -0.227 OA
BRANCH  14  16
ATOM     16  O   UNL     1     -37.475  22.087   3.061  0.00  0.00    -0.303 OA
ATOM     17  H   UNL     1     -37.460  21.619   2.212  0.00  0.00    +0.222 HD
ENDBRANCH  14  16
BRANCH  14  18
ATOM     18  O   UNL     1     -35.558  20.965   4.285  0.00  0.00    -0.303 OA
ATOM     19  H   UNL     1     -36.325  20.619   4.768  0.00  0.00    +0.222 HD
ENDBRANCH  14  18
ENDBRANCH  13  14
ENDBRANCH  12  13
ENDBRANCH   3  12
TORSDOF 8
ENDMDL
MODEL 8
REMARK VINA RESULT:      -4.6      2.138      2.899
REMARK  Name = 194159
REMARK  8 active torsions:
REMARK  status: ('A' for Active; 'I' for Inactive)
REMARK    1  A    between atoms: C_2  and  O_6
REMARK    2  A    between atoms: C_3  and  C_12
REMARK    3  A    between atoms: C_4  and  O_8
REMARK    4  A    between atoms: C_5  and  C_11
REMARK    5  A    between atoms: C_12  and  O_13
REMARK    6  A    between atoms: O_13  and  P_14
REMARK    7  A    between atoms: P_14  and  O_16
REMARK    8  A    between atoms: P_14  and  O_18
REMARK                            x       y       z     vdW  Elec       q    Type
REMARK                         _______ _______ _______ _____ _____    ______ ____
ROOT
ATOM      1  O   UNL     1     -36.628  25.140   4.250  0.00  0.00    -0.343 OA
ATOM      2  C   UNL     1     -36.163  22.839   4.109  0.00  0.00    +0.170 C 
ATOM      3  C   UNL     1     -36.510  24.072   3.295  0.00  0.00    +0.175 C 
ATOM      4  C   UNL     1     -35.259  23.425   5.170  0.00  0.00    +0.174 C 
ATOM      5  C   UNL     1     -35.895  24.780   5.428  0.00  0.00    +0.209 C 
ENDROOT
BRANCH   2   6
ATOM      6  O   UNL     1     -35.481  21.869   3.339  0.00  0.00    -0.379 OA
ATOM      7  H   UNL     1     -36.125  21.307   2.880  0.00  0.00    +0.211 HD
ENDBRANCH   2   6
BRANCH   4   8
ATOM      8  O   UNL     1     -35.266  22.638   6.350  0.00  0.00    -0.379 OA
ATOM      9  H   UNL     1     -34.363  22.342   6.546  0.00  0.00    +0.211 HD
ENDBRANCH   4   8
BRANCH   5  11
ATOM     10  O   UNL     1     -34.818  26.868   4.944  0.00  0.00    -0.286 OA
ATOM     11  C   UNL     1     -34.864  25.844   5.618  0.00  0.00    +0.239 C 
ENDBRANCH   5  11
BRANCH   3  12
ATOM     12  C   UNL     1     -37.808  23.940   2.518  0.00  0.00    +0.186 C 
BRANCH  12  13
ATOM     13  O   UNL     1     -38.447  22.732   2.896  0.00  0.00    -0.271 OA
BRANCH  13  14
ATOM     14  P   UNL     1     -38.824  21.665   1.739  0.00  0.00    +0.473 P 
ATOM     15  O   UNL     1     -38.807  22.212   0.342  0.00  0.00    -0.227 OA
BRANCH  14  16
ATOM     16  O   UNL     1     -40.242  21.057   2.226  0.00  0.00    -0.303 OA
ATOM     17  H   UNL     1     -40.139  20.112   2.419  0.00  0.00    +0.222 HD
ENDBRANCH  14  16
BRANCH  14  18
ATOM     18  O   UNL     1     -37.788  20.456   2.013  0.00  0.00    -0.303 OA
ATOM     19  H   UNL     1     -37.048  20.779   2.551  0.00  0.00    +0.222 HD
ENDBRANCH  14  18
ENDBRANCH  13  14
ENDBRANCH  12  13
ENDBRANCH   3  12
TORSDOF 8
ENDMDL
MODEL 9
REMARK VINA RESULT:      -4.5      3.266      5.048
REMARK  Name = 194159
REMARK  8 active torsions:
REMARK  status: ('A' for Active; 'I' for Inactive)
REMARK    1  A    between atoms: C_2  and  O_6
REMARK    2  A    between atoms: C_3  and  C_12
REMARK    3  A    between atoms: C_4  and  O_8
REMARK    4  A    between atoms: C_5  and  C_11
REMARK    5  A    between atoms: C_12  and  O_13
REMARK    6  A    between atoms: O_13  and  P_14
REMARK    7  A    between atoms: P_14  and  O_16
REMARK    8  A    between atoms: P_14  and  O_18
REMARK                            x       y       z     vdW  Elec       q    Type
REMARK                         _______ _______ _______ _____ _____    ______ ____
ROOT
ATOM      1  O   UNL     1     -36.395  23.244   4.158  0.00  0.00    -0.343 OA
ATOM      2  C   UNL     1     -35.991  25.535   4.510  0.00  0.00    +0.170 C 
ATOM      3  C   UNL     1     -37.075  24.508   4.239  0.00  0.00    +0.175 C 
ATOM      4  C   UNL     1     -35.067  24.760   5.425  0.00  0.00    +0.174 C 
ATOM      5  C   UNL     1     -35.146  23.356   4.853  0.00  0.00    +0.209 C 
ENDROOT
BRANCH   2   6
ATOM      6  O   UNL     1     -36.498  26.686   5.157  0.00  0.00    -0.379 OA
ATOM      7  H   UNL     1     -35.761  27.251   5.436  0.00  0.00    +0.211 HD
ENDBRANCH   2   6
BRANCH   4   8
ATOM      8  O   UNL     1     -33.739  25.252   5.359  0.00  0.00    -0.379 OA
ATOM      9  H   UNL     1     -33.483  25.609   6.224  0.00  0.00    +0.211 HD
ENDBRANCH   4   8
BRANCH   5  11
ATOM     10  O   UNL     1     -35.221  21.117   5.712  0.00  0.00    -0.286 OA
ATOM     11  C   UNL     1     -35.177  22.323   5.932  0.00  0.00    +0.239 C 
ENDBRANCH   5  11
BRANCH   3  12
ATOM     12  C   UNL     1     -37.837  24.758   2.950  0.00  0.00    +0.186 C 
BRANCH  12  13
ATOM     13  O   UNL     1     -38.530  25.991   3.059  0.00  0.00    -0.271 OA
BRANCH  13  14
ATOM     14  P   UNL     1     -40.083  26.044   2.606  0.00  0.00    +0.473 P 
ATOM     15  O   UNL     1     -40.675  24.722   2.213  0.00  0.00    -0.227 OA
BRANCH  14  16
ATOM     16  O   UNL     1     -40.108  27.181   1.456  0.00  0.00    -0.303 OA
ATOM     17  H   UNL     1     -40.550  27.974   1.795  0.00  0.00    +0.222 HD
ENDBRANCH  14  16
BRANCH  14  18
ATOM     18  O   UNL     1     -40.800  26.768   3.860  0.00  0.00    -0.303 OA
ATOM     19  H   UNL     1     -40.296  26.587   4.670  0.00  0.00    +0.222 HD
ENDBRANCH  14  18
ENDBRANCH  13  14
ENDBRANCH  12  13
ENDBRANCH   3  12
TORSDOF 8
ENDMDL
