MODEL 1
REMARK VINA RESULT:      -4.8      0.000      0.000
REMARK  Name = 196306
REMARK  10 active torsions:
REMARK  status: ('A' for Active; 'I' for Inactive)
REMARK    1  A    between atoms: C_1  and  N_3
REMARK    2  A    between atoms: C_1  and  C_10
REMARK    3  A    between atoms: C_1  and  C_19
REMARK    4  A    between atoms: C_4  and  C_6
REMARK    5  A    between atoms: C_6  and  O_8
REMARK    6  A    between atoms: C_10  and  O_12
REMARK    7  A    between atoms: C_10  and  C_14
REMARK    8  A    between atoms: C_14  and  O_15
REMARK    9  A    between atoms: C_14  and  C_18
REMARK   10  A    between atoms: C_19  and  O_21
REMARK                            x       y       z     vdW  Elec       q    Type
REMARK                         _______ _______ _______ _____ _____    ______ ____
ROOT
ATOM      1  C   UNL     1     -36.787  24.872   3.379  0.00  0.00    +0.126 C 
ENDROOT
BRANCH   1   3
ATOM      2  O   UNL     1     -35.937  25.904   5.924  0.00  0.00    -0.272 OA
ATOM      3  N   UNL     1     -35.503  25.484   3.685  0.00  0.00    -0.300 N 
ATOM      4  C   UNL     1     -35.193  25.950   4.947  0.00  0.00    +0.250 C 
ATOM      5  H   UNL     1     -34.833  25.567   2.968  0.00  0.00    +0.150 HD
BRANCH   4   6
ATOM      6  C   UNL     1     -33.784  26.523   5.017  0.00  0.00    +0.191 C 
ATOM      7  C   UNL     1     -33.323  26.670   6.457  0.00  0.00    +0.042 C 
BRANCH   6   8
ATOM      8  O   UNL     1     -33.773  27.806   4.413  0.00  0.00    -0.344 OA
ATOM      9  C   UNL     1     -32.457  28.341   4.343  0.00  0.00    +0.175 C 
ENDBRANCH   6   8
ENDBRANCH   4   6
ENDBRANCH   1   3
BRANCH   1  10
ATOM     10  C   UNL     1     -36.613  23.413   2.843  0.00  0.00    +0.139 C 
ATOM     11  C   UNL     1     -37.943  22.674   2.595  0.00  0.00    +0.034 C 
BRANCH  10  12
ATOM     12  O   UNL     1     -35.975  23.514   1.551  0.00  0.00    -0.382 OA
ATOM     13  H   UNL     1     -35.802  24.446   1.348  0.00  0.00    +0.210 HD
ENDBRANCH  10  12
BRANCH  10  14
ATOM     14  C   UNL     1     -35.678  22.542   3.718  0.00  0.00    +0.205 C 
BRANCH  14  15
ATOM     15  O   UNL     1     -36.138  22.535   5.066  0.00  0.00    -0.343 OA
ATOM     16  C   UNL     1     -35.116  22.123   5.961  0.00  0.00    +0.175 C 
ENDBRANCH  14  15
BRANCH  14  18
ATOM     17  O   UNL     1     -35.027  20.718   2.250  0.00  0.00    -0.286 OA
ATOM     18  C   UNL     1     -35.620  21.097   3.256  0.00  0.00    +0.239 C 
ENDBRANCH  14  18
ENDBRANCH  10  14
ENDBRANCH   1  10
BRANCH   1  19
ATOM     19  C   UNL     1     -37.652  25.840   2.538  0.00  0.00    +0.131 C 
ATOM     20  C   UNL     1     -36.909  26.980   1.855  0.00  0.00    +0.034 C 
BRANCH  19  21
ATOM     21  O   UNL     1     -38.638  26.435   3.392  0.00  0.00    -0.383 OA
ATOM     22  H   UNL     1     -39.250  25.751   3.704  0.00  0.00    +0.210 HD
ENDBRANCH  19  21
ENDBRANCH   1  19
TORSDOF 10
ENDMDL
MODEL 2
REMARK VINA RESULT:      -4.8      2.339      4.606
REMARK  Name = 196306
REMARK  10 active torsions:
REMARK  status: ('A' for Active; 'I' for Inactive)
REMARK    1  A    between atoms: C_1  and  N_3
REMARK    2  A    between atoms: C_1  and  C_10
REMARK    3  A    between atoms: C_1  and  C_19
REMARK    4  A    between atoms: C_4  and  C_6
REMARK    5  A    between atoms: C_6  and  O_8
REMARK    6  A    between atoms: C_10  and  O_12
REMARK    7  A    between atoms: C_10  and  C_14
REMARK    8  A    between atoms: C_14  and  O_15
REMARK    9  A    between atoms: C_14  and  C_18
REMARK   10  A    between atoms: C_19  and  O_21
REMARK                            x       y       z     vdW  Elec       q    Type
REMARK                         _______ _______ _______ _____ _____    ______ ____
ROOT
ATOM      1  C   UNL     1     -37.423  22.540   2.718  0.00  0.00    +0.126 C 
ENDROOT
BRANCH   1   3
ATOM      2  O   UNL     1     -39.637  24.261   3.349  0.00  0.00    -0.272 OA
ATOM      3  N   UNL     1     -37.725  23.827   2.110  0.00  0.00    -0.300 N 
ATOM      4  C   UNL     1     -38.820  24.579   2.488  0.00  0.00    +0.250 C 
ATOM      5  H   UNL     1     -37.128  24.173   1.408  0.00  0.00    +0.150 HD
BRANCH   4   6
ATOM      6  C   UNL     1     -38.904  25.893   1.724  0.00  0.00    +0.191 C 
ATOM      7  C   UNL     1     -37.609  26.680   1.842  0.00  0.00    +0.042 C 
BRANCH   6   8
ATOM      8  O   UNL     1     -39.952  26.679   2.265  0.00  0.00    -0.344 OA
ATOM      9  C   UNL     1     -41.040  26.801   1.356  0.00  0.00    +0.175 C 
ENDBRANCH   6   8
ENDBRANCH   4   6
ENDBRANCH   1   3
BRANCH   1  10
ATOM     10  C   UNL     1     -35.907  22.421   3.083  0.00  0.00    +0.139 C 
ATOM     11  C   UNL     1     -35.356  20.984   3.009  0.00  0.00    +0.034 C 
BRANCH  10  12
ATOM     12  O   UNL     1     -35.175  23.173   2.091  0.00  0.00    -0.382 OA
ATOM     13  H   UNL     1     -35.779  23.448   1.384  0.00  0.00    +0.210 HD
ENDBRANCH  10  12
BRANCH  10  14
ATOM     14  C   UNL     1     -35.552  23.054   4.452  0.00  0.00    +0.205 C 
BRANCH  14  15
ATOM     15  O   UNL     1     -36.610  23.902   4.886  0.00  0.00    -0.343 OA
ATOM     16  C   UNL     1     -36.162  25.237   5.071  0.00  0.00    +0.175 C 
ENDBRANCH  14  15
BRANCH  14  18
ATOM     17  O   UNL     1     -35.958  21.982   6.596  0.00  0.00    -0.286 OA
ATOM     18  C   UNL     1     -35.334  22.017   5.539  0.00  0.00    +0.239 C 
ENDBRANCH  14  18
ENDBRANCH  10  14
ENDBRANCH   1  10
BRANCH   1  19
ATOM     19  C   UNL     1     -38.044  21.397   1.880  0.00  0.00    +0.131 C 
ATOM     20  C   UNL     1     -38.147  21.644   0.381  0.00  0.00    +0.034 C 
BRANCH  19  21
ATOM     21  O   UNL     1     -39.373  21.148   2.356  0.00  0.00    -0.383 OA
ATOM     22  H   UNL     1     -39.333  20.591   3.148  0.00  0.00    +0.210 HD
ENDBRANCH  19  21
ENDBRANCH   1  19
TORSDOF 10
ENDMDL
MODEL 3
REMARK VINA RESULT:      -4.7      1.843      3.861
REMARK  Name = 196306
REMARK  10 active torsions:
REMARK  status: ('A' for Active; 'I' for Inactive)
REMARK    1  A    between atoms: C_1  and  N_3
REMARK    2  A    between atoms: C_1  and  C_10
REMARK    3  A    between atoms: C_1  and  C_19
REMARK    4  A    between atoms: C_4  and  C_6
REMARK    5  A    between atoms: C_6  and  O_8
REMARK    6  A    between atoms: C_10  and  O_12
REMARK    7  A    between atoms: C_10  and  C_14
REMARK    8  A    between atoms: C_14  and  O_15
REMARK    9  A    between atoms: C_14  and  C_18
REMARK   10  A    between atoms: C_19  and  O_21
REMARK                            x       y       z     vdW  Elec       q    Type
REMARK                         _______ _______ _______ _____ _____    ______ ____
ROOT
ATOM      1  C   UNL     1     -35.823  22.867   3.601  0.00  0.00    +0.126 C 
ENDROOT
BRANCH   1   3
ATOM      2  O   UNL     1     -33.927  24.872   2.798  0.00  0.00    -0.272 OA
ATOM      3  N   UNL     1     -35.838  24.274   3.968  0.00  0.00    -0.300 N 
ATOM      4  C   UNL     1     -34.874  25.159   3.526  0.00  0.00    +0.250 C 
ATOM      5  H   UNL     1     -36.560  24.607   4.550  0.00  0.00    +0.150 HD
BRANCH   4   6
ATOM      6  C   UNL     1     -35.123  26.575   4.026  0.00  0.00    +0.191 C 
ATOM      7  C   UNL     1     -35.319  27.539   2.867  0.00  0.00    +0.042 C 
BRANCH   6   8
ATOM      8  O   UNL     1     -34.002  27.007   4.778  0.00  0.00    -0.344 OA
ATOM      9  C   UNL     1     -33.891  26.300   6.007  0.00  0.00    +0.175 C 
ENDBRANCH   6   8
ENDBRANCH   4   6
ENDBRANCH   1   3
BRANCH   1  10
ATOM     10  C   UNL     1     -36.884  22.551   2.497  0.00  0.00    +0.139 C 
ATOM     11  C   UNL     1     -36.369  22.749   1.058  0.00  0.00    +0.034 C 
BRANCH  10  12
ATOM     12  O   UNL     1     -37.203  21.147   2.609  0.00  0.00    -0.382 OA
ATOM     13  H   UNL     1     -37.010  20.843   3.510  0.00  0.00    +0.210 HD
ENDBRANCH  10  12
BRANCH  10  14
ATOM     14  C   UNL     1     -38.219  23.313   2.690  0.00  0.00    +0.205 C 
BRANCH  14  15
ATOM     15  O   UNL     1     -38.082  24.659   2.247  0.00  0.00    -0.343 OA
ATOM     16  C   UNL     1     -39.002  25.518   2.903  0.00  0.00    +0.175 C 
ENDBRANCH  14  15
BRANCH  14  18
ATOM     17  O   UNL     1     -40.017  21.728   2.287  0.00  0.00    -0.286 OA
ATOM     18  C   UNL     1     -39.365  22.697   1.908  0.00  0.00    +0.239 C 
ENDBRANCH  14  18
ENDBRANCH  10  14
ENDBRANCH   1  10
BRANCH   1  19
ATOM     19  C   UNL     1     -35.836  21.985   4.872  0.00  0.00    +0.131 C 
ATOM     20  C   UNL     1     -35.082  22.533   6.076  0.00  0.00    +0.034 C 
BRANCH  19  21
ATOM     21  O   UNL     1     -35.254  20.714   4.556  0.00  0.00    -0.383 OA
ATOM     22  H   UNL     1     -34.836  20.758   3.683  0.00  0.00    +0.210 HD
ENDBRANCH  19  21
ENDBRANCH   1  19
TORSDOF 10
ENDMDL
MODEL 4
REMARK VINA RESULT:      -4.7      2.295      4.674
REMARK  Name = 196306
REMARK  10 active torsions:
REMARK  status: ('A' for Active; 'I' for Inactive)
REMARK    1  A    between atoms: C_1  and  N_3
REMARK    2  A    between atoms: C_1  and  C_10
REMARK    3  A    between atoms: C_1  and  C_19
REMARK    4  A    between atoms: C_4  and  C_6
REMARK    5  A    between atoms: C_6  and  O_8
REMARK    6  A    between atoms: C_10  and  O_12
REMARK    7  A    between atoms: C_10  and  C_14
REMARK    8  A    between atoms: C_14  and  O_15
REMARK    9  A    between atoms: C_14  and  C_18
REMARK   10  A    between atoms: C_19  and  O_21
REMARK                            x       y       z     vdW  Elec       q    Type
REMARK                         _______ _______ _______ _____ _____    ______ ____
ROOT
ATOM      1  C   UNL     1     -36.445  21.830   2.150  0.00  0.00    +0.126 C 
ENDROOT
BRANCH   1   3
ATOM      2  O   UNL     1     -34.527  23.774   3.046  0.00  0.00    -0.272 OA
ATOM      3  N   UNL     1     -36.256  22.300   3.513  0.00  0.00    -0.300 N 
ATOM      4  C   UNL     1     -35.300  23.242   3.839  0.00  0.00    +0.250 C 
ATOM      5  H   UNL     1     -36.829  21.935   4.227  0.00  0.00    +0.150 HD
BRANCH   4   6
ATOM      6  C   UNL     1     -35.316  23.585   5.323  0.00  0.00    +0.191 C 
ATOM      7  C   UNL     1     -35.507  22.339   6.172  0.00  0.00    +0.042 C 
BRANCH   6   8
ATOM      8  O   UNL     1     -36.392  24.470   5.585  0.00  0.00    -0.344 OA
ATOM      9  C   UNL     1     -35.976  25.830   5.537  0.00  0.00    +0.175 C 
ENDBRANCH   6   8
ENDBRANCH   4   6
ENDBRANCH   1   3
BRANCH   1  10
ATOM     10  C   UNL     1     -37.906  22.088   1.653  0.00  0.00    +0.139 C 
ATOM     11  C   UNL     1     -38.119  21.793   0.156  0.00  0.00    +0.034 C 
BRANCH  10  12
ATOM     12  O   UNL     1     -38.760  21.164   2.360  0.00  0.00    -0.382 OA
ATOM     13  H   UNL     1     -38.255  20.732   3.067  0.00  0.00    +0.210 HD
ENDBRANCH  10  12
BRANCH  10  14
ATOM     14  C   UNL     1     -38.430  23.506   1.992  0.00  0.00    +0.205 C 
BRANCH  14  15
ATOM     15  O   UNL     1     -37.489  24.488   1.572  0.00  0.00    -0.343 OA
ATOM     16  C   UNL     1     -37.704  25.728   2.230  0.00  0.00    +0.175 C 
ENDBRANCH  14  15
BRANCH  14  18
ATOM     17  O   UNL     1     -40.822  23.311   1.607  0.00  0.00    -0.286 OA
ATOM     18  C   UNL     1     -39.747  23.824   1.307  0.00  0.00    +0.239 C 
ENDBRANCH  14  18
ENDBRANCH  10  14
ENDBRANCH   1  10
BRANCH   1  19
ATOM     19  C   UNL     1     -35.887  20.396   1.999  0.00  0.00    +0.131 C 
ATOM     20  C   UNL     1     -35.558  19.950   0.580  0.00  0.00    +0.034 C 
BRANCH  19  21
ATOM     21  O   UNL     1     -36.852  19.470   2.516  0.00  0.00    -0.383 OA
ATOM     22  H   UNL     1     -36.393  18.713   2.912  0.00  0.00    +0.210 HD
ENDBRANCH  19  21
ENDBRANCH   1  19
TORSDOF 10
ENDMDL
MODEL 5
REMARK VINA RESULT:      -4.6      2.537      5.756
REMARK  Name = 196306
REMARK  10 active torsions:
REMARK  status: ('A' for Active; 'I' for Inactive)
REMARK    1  A    between atoms: C_1  and  N_3
REMARK    2  A    between atoms: C_1  and  C_10
REMARK    3  A    between atoms: C_1  and  C_19
REMARK    4  A    between atoms: C_4  and  C_6
REMARK    5  A    between atoms: C_6  and  O_8
REMARK    6  A    between atoms: C_10  and  O_12
REMARK    7  A    between atoms: C_10  and  C_14
REMARK    8  A    between atoms: C_14  and  O_15
REMARK    9  A    between atoms: C_14  and  C_18
REMARK   10  A    between atoms: C_19  and  O_21
REMARK                            x       y       z     vdW  Elec       q    Type
REMARK                         _______ _______ _______ _____ _____    ______ ____
ROOT
ATOM      1  C   UNL     1     -37.849  24.137   2.805  0.00  0.00    +0.126 C 
ENDROOT
BRANCH   1   3
ATOM      2  O   UNL     1     -38.124  23.086   0.143  0.00  0.00    -0.272 OA
ATOM      3  N   UNL     1     -38.386  22.836   2.435  0.00  0.00    -0.300 N 
ATOM      4  C   UNL     1     -38.475  22.426   1.119  0.00  0.00    +0.250 C 
ATOM      5  H   UNL     1     -38.695  22.229   3.146  0.00  0.00    +0.150 HD
BRANCH   4   6
ATOM      6  C   UNL     1     -39.047  21.021   0.995  0.00  0.00    +0.191 C 
ATOM      7  C   UNL     1     -38.566  20.344  -0.278  0.00  0.00    +0.042 C 
BRANCH   6   8
ATOM      8  O   UNL     1     -40.462  21.096   0.950  0.00  0.00    -0.344 OA
ATOM      9  C   UNL     1     -40.951  20.999  -0.382  0.00  0.00    +0.175 C 
ENDBRANCH   6   8
ENDBRANCH   4   6
ENDBRANCH   1   3
BRANCH   1  10
ATOM     10  C   UNL     1     -36.540  23.997   3.649  0.00  0.00    +0.139 C 
ATOM     11  C   UNL     1     -35.334  24.758   3.066  0.00  0.00    +0.034 C 
BRANCH  10  12
ATOM     12  O   UNL     1     -36.801  24.602   4.933  0.00  0.00    -0.382 OA
ATOM     13  H   UNL     1     -37.748  24.801   5.011  0.00  0.00    +0.210 HD
ENDBRANCH  10  12
BRANCH  10  14
ATOM     14  C   UNL     1     -36.148  22.526   3.938  0.00  0.00    +0.205 C 
BRANCH  14  15
ATOM     15  O   UNL     1     -35.283  22.042   2.916  0.00  0.00    -0.343 OA
ATOM     16  C   UNL     1     -35.508  20.664   2.655  0.00  0.00    +0.175 C 
ENDBRANCH  14  15
BRANCH  14  18
ATOM     17  O   UNL     1     -35.976  22.222   6.343  0.00  0.00    -0.286 OA
ATOM     18  C   UNL     1     -35.418  22.362   5.259  0.00  0.00    +0.239 C 
ENDBRANCH  14  18
ENDBRANCH  10  14
ENDBRANCH   1  10
BRANCH   1  19
ATOM     19  C   UNL     1     -38.972  25.033   3.378  0.00  0.00    +0.131 C 
ATOM     20  C   UNL     1     -40.295  25.014   2.625  0.00  0.00    +0.034 C 
BRANCH  19  21
ATOM     21  O   UNL     1     -38.515  26.392   3.389  0.00  0.00    -0.383 OA
ATOM     22  H   UNL     1     -38.348  26.669   4.303  0.00  0.00    +0.210 HD
ENDBRANCH  19  21
ENDBRANCH   1  19
TORSDOF 10
ENDMDL
MODEL 6
REMARK VINA RESULT:      -4.6      2.805      6.001
REMARK  Name = 196306
REMARK  10 active torsions:
REMARK  status: ('A' for Active; 'I' for Inactive)
REMARK    1  A    between atoms: C_1  and  N_3
REMARK    2  A    between atoms: C_1  and  C_10
REMARK    3  A    between atoms: C_1  and  C_19
REMARK    4  A    between atoms: C_4  and  C_6
REMARK    5  A    between atoms: C_6  and  O_8
REMARK    6  A    between atoms: C_10  and  O_12
REMARK    7  A    between atoms: C_10  and  C_14
REMARK    8  A    between atoms: C_14  and  O_15
REMARK    9  A    between atoms: C_14  and  C_18
REMARK   10  A    between atoms: C_19  and  O_21
REMARK                            x       y       z     vdW  Elec       q    Type
REMARK                         _______ _______ _______ _____ _____    ______ ____
ROOT
ATOM      1  C   UNL     1     -37.274  22.159   2.585  0.00  0.00    +0.126 C 
ENDROOT
BRANCH   1   3
ATOM      2  O   UNL     1     -40.032  21.394   2.319  0.00  0.00    -0.272 OA
ATOM      3  N   UNL     1     -38.139  22.408   1.442  0.00  0.00    -0.300 N 
ATOM      4  C   UNL     1     -39.457  21.996   1.415  0.00  0.00    +0.250 C 
ATOM      5  H   UNL     1     -37.773  22.886   0.663  0.00  0.00    +0.150 HD
BRANCH   4   6
ATOM      6  C   UNL     1     -40.156  22.395   0.123  0.00  0.00    +0.191 C 
ATOM      7  C   UNL     1     -39.319  23.384  -0.671  0.00  0.00    +0.042 C 
BRANCH   6   8
ATOM      8  O   UNL     1     -41.394  23.011   0.434  0.00  0.00    -0.344 OA
ATOM      9  C   UNL     1     -41.226  24.381   0.781  0.00  0.00    +0.175 C 
ENDBRANCH   6   8
ENDBRANCH   4   6
ENDBRANCH   1   3
BRANCH   1  10
ATOM     10  C   UNL     1     -36.673  23.489   3.147  0.00  0.00    +0.139 C 
ATOM     11  C   UNL     1     -36.480  24.588   2.085  0.00  0.00    +0.034 C 
BRANCH  10  12
ATOM     12  O   UNL     1     -37.631  24.018   4.089  0.00  0.00    -0.382 OA
ATOM     13  H   UNL     1     -37.848  23.338   4.746  0.00  0.00    +0.210 HD
ENDBRANCH  10  12
BRANCH  10  14
ATOM     14  C   UNL     1     -35.359  23.283   3.940  0.00  0.00    +0.205 C 
BRANCH  14  15
ATOM     15  O   UNL     1     -34.427  24.310   3.617  0.00  0.00    -0.343 OA
ATOM     16  C   UNL     1     -34.065  25.063   4.765  0.00  0.00    +0.175 C 
ENDBRANCH  14  15
BRANCH  14  18
ATOM     17  O   UNL     1     -36.049  22.404   6.099  0.00  0.00    -0.286 OA
ATOM     18  C   UNL     1     -35.568  23.324   5.444  0.00  0.00    +0.239 C 
ENDBRANCH  14  18
ENDBRANCH  10  14
ENDBRANCH   1  10
BRANCH   1  19
ATOM     19  C   UNL     1     -36.287  21.012   2.265  0.00  0.00    +0.131 C 
ATOM     20  C   UNL     1     -35.862  20.878   0.809  0.00  0.00    +0.034 C 
BRANCH  19  21
ATOM     21  O   UNL     1     -36.891  19.767   2.642  0.00  0.00    -0.383 OA
ATOM     22  H   UNL     1     -37.855  19.869   2.659  0.00  0.00    +0.210 HD
ENDBRANCH  19  21
ENDBRANCH   1  19
TORSDOF 10
ENDMDL
MODEL 7
REMARK VINA RESULT:      -4.6      1.988      5.235
REMARK  Name = 196306
REMARK  10 active torsions:
REMARK  status: ('A' for Active; 'I' for Inactive)
REMARK    1  A    between atoms: C_1  and  N_3
REMARK    2  A    between atoms: C_1  and  C_10
REMARK    3  A    between atoms: C_1  and  C_19
REMARK    4  A    between atoms: C_4  and  C_6
REMARK    5  A    between atoms: C_6  and  O_8
REMARK    6  A    between atoms: C_10  and  O_12
REMARK    7  A    between atoms: C_10  and  C_14
REMARK    8  A    between atoms: C_14  and  O_15
REMARK    9  A    between atoms: C_14  and  C_18
REMARK   10  A    between atoms: C_19  and  O_21
REMARK                            x       y       z     vdW  Elec       q    Type
REMARK                         _______ _______ _______ _____ _____    ______ ____
ROOT
ATOM      1  C   UNL     1     -37.442  24.513   2.823  0.00  0.00    +0.126 C 
ENDROOT
BRANCH   1   3
ATOM      2  O   UNL     1     -36.925  22.922   0.485  0.00  0.00    -0.272 OA
ATOM      3  N   UNL     1     -37.383  23.061   2.754  0.00  0.00    -0.300 N 
ATOM      4  C   UNL     1     -37.126  22.391   1.575  0.00  0.00    +0.250 C 
ATOM      5  H   UNL     1     -37.530  22.540   3.577  0.00  0.00    +0.150 HD
BRANCH   4   6
ATOM      6  C   UNL     1     -37.093  20.881   1.768  0.00  0.00    +0.191 C 
ATOM      7  C   UNL     1     -35.739  20.425   2.287  0.00  0.00    +0.042 C 
BRANCH   6   8
ATOM      8  O   UNL     1     -37.328  20.247   0.522  0.00  0.00    -0.344 OA
ATOM      9  C   UNL     1     -36.332  19.272   0.233  0.00  0.00    +0.175 C 
ENDBRANCH   6   8
ENDBRANCH   4   6
ENDBRANCH   1   3
BRANCH   1  10
ATOM     10  C   UNL     1     -36.167  25.106   3.507  0.00  0.00    +0.139 C 
ATOM     11  C   UNL     1     -34.843  24.676   2.844  0.00  0.00    +0.034 C 
BRANCH  10  12
ATOM     12  O   UNL     1     -36.235  26.540   3.350  0.00  0.00    -0.382 OA
ATOM     13  H   UNL     1     -37.004  26.882   3.831  0.00  0.00    +0.210 HD
ENDBRANCH  10  12
BRANCH  10  14
ATOM     14  C   UNL     1     -36.106  24.842   5.032  0.00  0.00    +0.205 C 
BRANCH  14  15
ATOM     15  O   UNL     1     -36.269  23.452   5.292  0.00  0.00    -0.343 OA
ATOM     16  C   UNL     1     -35.174  22.930   6.031  0.00  0.00    +0.175 C 
ENDBRANCH  14  15
BRANCH  14  18
ATOM     17  O   UNL     1     -34.436  26.430   5.804  0.00  0.00    -0.286 OA
ATOM     18  C   UNL     1     -34.784  25.262   5.648  0.00  0.00    +0.239 C 
ENDBRANCH  14  18
ENDBRANCH  10  14
ENDBRANCH   1  10
BRANCH   1  19
ATOM     19  C   UNL     1     -38.817  24.965   3.369  0.00  0.00    +0.131 C 
ATOM     20  C   UNL     1     -40.039  24.395   2.663  0.00  0.00    +0.034 C 
BRANCH  19  21
ATOM     21  O   UNL     1     -38.904  26.393   3.270  0.00  0.00    -0.383 OA
ATOM     22  H   UNL     1     -38.060  26.787   3.538  0.00  0.00    +0.210 HD
ENDBRANCH  19  21
ENDBRANCH   1  19
TORSDOF 10
ENDMDL
MODEL 8
REMARK VINA RESULT:      -4.5      2.599      4.448
REMARK  Name = 196306
REMARK  10 active torsions:
REMARK  status: ('A' for Active; 'I' for Inactive)
REMARK    1  A    between atoms: C_1  and  N_3
REMARK    2  A    between atoms: C_1  and  C_10
REMARK    3  A    between atoms: C_1  and  C_19
REMARK    4  A    between atoms: C_4  and  C_6
REMARK    5  A    between atoms: C_6  and  O_8
REMARK    6  A    between atoms: C_10  and  O_12
REMARK    7  A    between atoms: C_10  and  C_14
REMARK    8  A    between atoms: C_14  and  O_15
REMARK    9  A    between atoms: C_14  and  C_18
REMARK   10  A    between atoms: C_19  and  O_21
REMARK                            x       y       z     vdW  Elec       q    Type
REMARK                         _______ _______ _______ _____ _____    ______ ____
ROOT
ATOM      1  C   UNL     1     -36.026  21.916   1.826  0.00  0.00    +0.126 C 
ENDROOT
BRANCH   1   3
ATOM      2  O   UNL     1     -37.242  23.358   3.994  0.00  0.00    -0.272 OA
ATOM      3  N   UNL     1     -35.393  22.299   3.078  0.00  0.00    -0.300 N 
ATOM      4  C   UNL     1     -36.070  22.995   4.060  0.00  0.00    +0.250 C 
ATOM      5  H   UNL     1     -34.452  22.053   3.231  0.00  0.00    +0.150 HD
BRANCH   4   6
ATOM      6  C   UNL     1     -35.200  23.255   5.282  0.00  0.00    +0.191 C 
ATOM      7  C   UNL     1     -35.374  22.161   6.322  0.00  0.00    +0.042 C 
BRANCH   6   8
ATOM      8  O   UNL     1     -35.577  24.489   5.868  0.00  0.00    -0.344 OA
ATOM      9  C   UNL     1     -34.745  25.556   5.428  0.00  0.00    +0.175 C 
ENDBRANCH   6   8
ENDBRANCH   4   6
ENDBRANCH   1   3
BRANCH   1  10
ATOM     10  C   UNL     1     -35.938  20.372   1.588  0.00  0.00    +0.139 C 
ATOM     11  C   UNL     1     -34.523  19.790   1.773  0.00  0.00    +0.034 C 
BRANCH  10  12
ATOM     12  O   UNL     1     -36.755  19.744   2.600  0.00  0.00    -0.382 OA
ATOM     13  H   UNL     1     -36.240  19.644   3.415  0.00  0.00    +0.210 HD
ENDBRANCH  10  12
BRANCH  10  14
ATOM     14  C   UNL     1     -36.521  19.925   0.225  0.00  0.00    +0.205 C 
BRANCH  14  15
ATOM     15  O   UNL     1     -36.278  18.537   0.022  0.00  0.00    -0.343 OA
ATOM     16  C   UNL     1     -37.472  17.844  -0.310  0.00  0.00    +0.175 C 
ENDBRANCH  14  15
BRANCH  14  18
ATOM     17  O   UNL     1     -38.548  21.151  -0.321  0.00  0.00    -0.286 OA
ATOM     18  C   UNL     1     -38.021  20.137   0.130  0.00  0.00    +0.239 C 
ENDBRANCH  14  18
ENDBRANCH  10  14
ENDBRANCH   1  10
BRANCH   1  19
ATOM     19  C   UNL     1     -35.545  22.839   0.682  0.00  0.00    +0.131 C 
ATOM     20  C   UNL     1     -34.470  23.854   1.047  0.00  0.00    +0.034 C 
BRANCH  19  21
ATOM     21  O   UNL     1     -36.668  23.578   0.184  0.00  0.00    -0.383 OA
ATOM     22  H   UNL     1     -37.453  23.369   0.714  0.00  0.00    +0.210 HD
ENDBRANCH  19  21
ENDBRANCH   1  19
TORSDOF 10
ENDMDL
MODEL 9
REMARK VINA RESULT:      -4.5      1.992      5.752
REMARK  Name = 196306
REMARK  10 active torsions:
REMARK  status: ('A' for Active; 'I' for Inactive)
REMARK    1  A    between atoms: C_1  and  N_3
REMARK    2  A    between atoms: C_1  and  C_10
REMARK    3  A    between atoms: C_1  and  C_19
REMARK    4  A    between atoms: C_4  and  C_6
REMARK    5  A    between atoms: C_6  and  O_8
REMARK    6  A    between atoms: C_10  and  O_12
REMARK    7  A    between atoms: C_10  and  C_14
REMARK    8  A    between atoms: C_14  and  O_15
REMARK    9  A    between atoms: C_14  and  C_18
REMARK   10  A    between atoms: C_19  and  O_21
REMARK                            x       y       z     vdW  Elec       q    Type
REMARK                         _______ _______ _______ _____ _____    ______ ____
ROOT
ATOM      1  C   UNL     1     -36.598  24.350   4.104  0.00  0.00    +0.126 C 
ENDROOT
BRANCH   1   3
ATOM      2  O   UNL     1     -39.453  24.569   3.851  0.00  0.00    -0.272 OA
ATOM      3  N   UNL     1     -37.389  24.072   2.915  0.00  0.00    -0.300 N 
ATOM      4  C   UNL     1     -38.763  24.210   2.899  0.00  0.00    +0.250 C 
ATOM      5  H   UNL     1     -36.929  23.778   2.096  0.00  0.00    +0.150 HD
BRANCH   4   6
ATOM      6  C   UNL     1     -39.355  23.885   1.535  0.00  0.00    +0.191 C 
ATOM      7  C   UNL     1     -40.064  25.092   0.943  0.00  0.00    +0.042 C 
BRANCH   6   8
ATOM      8  O   UNL     1     -40.302  22.838   1.675  0.00  0.00    -0.344 OA
ATOM      9  C   UNL     1     -39.669  21.571   1.803  0.00  0.00    +0.175 C 
ENDBRANCH   6   8
ENDBRANCH   4   6
ENDBRANCH   1   3
BRANCH   1  10
ATOM     10  C   UNL     1     -35.863  25.726   3.995  0.00  0.00    +0.139 C 
ATOM     11  C   UNL     1     -36.220  26.527   2.728  0.00  0.00    +0.034 C 
BRANCH  10  12
ATOM     12  O   UNL     1     -36.311  26.531   5.107  0.00  0.00    -0.382 OA
ATOM     13  H   UNL     1     -36.708  27.351   4.773  0.00  0.00    +0.210 HD
ENDBRANCH  10  12
BRANCH  10  14
ATOM     14  C   UNL     1     -34.325  25.615   4.136  0.00  0.00    +0.205 C 
BRANCH  14  15
ATOM     15  O   UNL     1     -33.710  25.706   2.855  0.00  0.00    -0.343 OA
ATOM     16  C   UNL     1     -32.583  26.569   2.881  0.00  0.00    +0.175 C 
ENDBRANCH  14  15
BRANCH  14  18
ATOM     17  O   UNL     1     -33.685  26.682   6.224  0.00  0.00    -0.286 OA
ATOM     18  C   UNL     1     -33.734  26.716   4.998  0.00  0.00    +0.239 C 
ENDBRANCH  14  18
ENDBRANCH  10  14
ENDBRANCH   1  10
BRANCH   1  19
ATOM     19  C   UNL     1     -35.744  23.115   4.475  0.00  0.00    +0.131 C 
ATOM     20  C   UNL     1     -35.668  22.013   3.427  0.00  0.00    +0.034 C 
BRANCH  19  21
ATOM     21  O   UNL     1     -36.281  22.524   5.666  0.00  0.00    -0.383 OA
ATOM     22  H   UNL     1     -35.555  22.231   6.237  0.00  0.00    +0.210 HD
ENDBRANCH  19  21
ENDBRANCH   1  19
TORSDOF 10
ENDMDL
