MODEL 1
REMARK VINA RESULT:      -7.2      0.000      0.000
REMARK  Name = 195550
REMARK  6 active torsions:
REMARK  status: ('A' for Active; 'I' for Inactive)
REMARK    1  A    between atoms: C_1  and  C_9
REMARK    2  A    between atoms: C_1  and  N_16
REMARK    3  A    between atoms: C_1  and  C_26
REMARK    4  A    between atoms: C_4  and  C_12
REMARK    5  A    between atoms: C_17  and  C_21
REMARK    6  A    between atoms: C_26  and  C_29
REMARK                            x       y       z     vdW  Elec       q    Type
REMARK                         _______ _______ _______ _____ _____    ______ ____
ROOT
ATOM      1  C   UNL     1     -37.002  24.934   3.744  0.00  0.00    +0.155 C 
ENDROOT
BRANCH   1   9
ATOM      2  O   UNL     1     -36.739  22.650   4.377  0.00  0.00    -0.273 OA
ATOM      3  N   UNL     1     -36.227  23.219   2.205  0.00  0.00    -0.273 N 
ATOM      4  C   UNL     1     -35.798  21.945   1.591  0.00  0.00    +0.129 C 
ATOM      5  C   UNL     1     -35.608  23.236   0.052  0.00  0.00    +0.024 C 
ATOM      6  C   UNL     1     -34.526  22.334   0.752  0.00  0.00    +0.029 C 
ATOM      7  C   UNL     1     -36.496  21.943   0.181  0.00  0.00    +0.029 C 
ATOM      8  C   UNL     1     -36.112  24.204   1.130  0.00  0.00    +0.094 C 
ATOM      9  C   UNL     1     -36.647  23.494   3.485  0.00  0.00    +0.244 C 
BRANCH   4  12
ATOM     10  O   UNL     1     -34.773  20.214   2.971  0.00  0.00    -0.274 OA
ATOM     11  N   UNL     1     -36.981  19.979   2.415  0.00  0.00    -0.328 N 
ATOM     12  C   UNL     1     -35.773  20.646   2.390  0.00  0.00    +0.235 C 
ATOM     13  H   UNL     1     -37.065  19.131   2.906  0.00  0.00    +0.145 HD
ATOM     14  H   UNL     1     -37.758  20.354   1.941  0.00  0.00    +0.145 HD
ENDBRANCH   4  12
ENDBRANCH   1   9
BRANCH   1  16
ATOM     15  O   UNL     1     -38.819  26.561   2.170  0.00  0.00    -0.273 OA
ATOM     16  N   UNL     1     -38.438  24.928   3.786  0.00  0.00    -0.297 N 
ATOM     17  C   UNL     1     -39.231  25.747   2.992  0.00  0.00    +0.241 C 
ATOM     18  H   UNL     1     -38.882  24.312   4.411  0.00  0.00    +0.150 HD
BRANCH  17  21
ATOM     19  O   UNL     1     -42.253  28.603   3.973  0.00  0.00    -0.275 OA
ATOM     20  N   UNL     1     -41.134  26.551   4.115  0.00  0.00    -0.298 N 
ATOM     21  C   UNL     1     -40.692  25.522   3.216  0.00  0.00    +0.149 C 
ATOM     22  C   UNL     1     -41.520  25.753   1.968  0.00  0.00    +0.039 C 
ATOM     23  C   UNL     1     -41.845  27.247   1.999  0.00  0.00    +0.087 C 
ATOM     24  C   UNL     1     -41.805  27.584   3.470  0.00  0.00    +0.223 C 
ATOM     25  H   UNL     1     -40.978  26.527   5.087  0.00  0.00    +0.150 HD
ENDBRANCH  17  21
ENDBRANCH   1  16
BRANCH   1  26
ATOM     26  C   UNL     1     -36.364  25.414   5.043  0.00  0.00    +0.071 C 
BRANCH  26  29
ATOM     27  N   UNL     1     -35.179  27.289   3.832  0.00  0.00    -0.319 N 
ATOM     28  N   UNL     1     -33.182  27.388   4.797  0.00  0.00    -0.315 N 
ATOM     29  C   UNL     1     -35.178  26.314   4.791  0.00  0.00    +0.040 C 
ATOM     30  C   UNL     1     -33.934  26.395   5.373  0.00  0.00    +0.069 C 
ATOM     31  C   UNL     1     -33.961  27.906   3.874  0.00  0.00    +0.182 C 
ATOM     32  H   UNL     1     -35.923  27.506   3.224  0.00  0.00    +0.148 HD
ATOM     33  H   UNL     1     -32.262  27.654   5.027  0.00  0.00    +0.148 HD
ENDBRANCH  26  29
ENDBRANCH   1  26
TORSDOF 6
ENDMDL
MODEL 2
REMARK VINA RESULT:      -6.6      2.728      3.382
REMARK  Name = 195550
REMARK  6 active torsions:
REMARK  status: ('A' for Active; 'I' for Inactive)
REMARK    1  A    between atoms: C_1  and  C_9
REMARK    2  A    between atoms: C_1  and  N_16
REMARK    3  A    between atoms: C_1  and  C_26
REMARK    4  A    between atoms: C_4  and  C_12
REMARK    5  A    between atoms: C_17  and  C_21
REMARK    6  A    between atoms: C_26  and  C_29
REMARK                            x       y       z     vdW  Elec       q    Type
REMARK                         _______ _______ _______ _____ _____    ______ ____
ROOT
ATOM      1  C   UNL     1     -36.067  22.433   3.081  0.00  0.00    +0.155 C 
ENDROOT
BRANCH   1   9
ATOM      2  O   UNL     1     -35.412  20.142   3.140  0.00  0.00    -0.273 OA
ATOM      3  N   UNL     1     -34.727  21.399   1.337  0.00  0.00    -0.273 N 
ATOM      4  C   UNL     1     -33.949  20.451   0.511  0.00  0.00    +0.129 C 
ATOM      5  C   UNL     1     -33.822  22.148  -0.570  0.00  0.00    +0.024 C 
ATOM      6  C   UNL     1     -32.683  21.274   0.073  0.00  0.00    +0.029 C 
ATOM      7  C   UNL     1     -34.420  20.746  -0.960  0.00  0.00    +0.029 C 
ATOM      8  C   UNL     1     -34.673  22.660   0.599  0.00  0.00    +0.094 C 
ATOM      9  C   UNL     1     -35.377  21.212   2.534  0.00  0.00    +0.244 C 
BRANCH   4  12
ATOM     10  O   UNL     1     -32.764  18.578   1.531  0.00  0.00    -0.274 OA
ATOM     11  N   UNL     1     -34.813  18.173   0.595  0.00  0.00    -0.328 N 
ATOM     12  C   UNL     1     -33.761  18.998   0.936  0.00  0.00    +0.235 C 
ATOM     13  H   UNL     1     -34.784  17.216   0.827  0.00  0.00    +0.145 HD
ATOM     14  H   UNL     1     -35.592  18.542   0.121  0.00  0.00    +0.145 HD
ENDBRANCH   4  12
ENDBRANCH   1   9
BRANCH   1  16
ATOM     15  O   UNL     1     -38.129  24.357   2.392  0.00  0.00    -0.273 OA
ATOM     16  N   UNL     1     -37.459  22.172   2.843  0.00  0.00    -0.297 N 
ATOM     17  C   UNL     1     -38.379  23.161   2.516  0.00  0.00    +0.241 C 
ATOM     18  H   UNL     1     -37.777  21.244   2.916  0.00  0.00    +0.150 HD
BRANCH  17  21
ATOM     19  O   UNL     1     -41.124  24.021  -0.643  0.00  0.00    -0.275 OA
ATOM     20  N   UNL     1     -40.485  23.616   1.573  0.00  0.00    -0.298 N 
ATOM     21  C   UNL     1     -39.754  22.615   2.297  0.00  0.00    +0.149 C 
ATOM     22  C   UNL     1     -39.768  21.416   1.370  0.00  0.00    +0.039 C 
ATOM     23  C   UNL     1     -39.892  22.020  -0.029  0.00  0.00    +0.087 C 
ATOM     24  C   UNL     1     -40.595  23.332   0.217  0.00  0.00    +0.223 C 
ATOM     25  H   UNL     1     -40.869  24.419   1.994  0.00  0.00    +0.150 HD
ENDBRANCH  17  21
ENDBRANCH   1  16
BRANCH   1  26
ATOM     26  C   UNL     1     -35.733  22.617   4.558  0.00  0.00    +0.071 C 
BRANCH  26  29
ATOM     27  N   UNL     1     -36.663  24.908   5.080  0.00  0.00    -0.319 N 
ATOM     28  N   UNL     1     -34.866  26.149   5.480  0.00  0.00    -0.315 N 
ATOM     29  C   UNL     1     -35.590  24.074   4.928  0.00  0.00    +0.040 C 
ATOM     30  C   UNL     1     -34.493  24.863   5.180  0.00  0.00    +0.069 C 
ATOM     31  C   UNL     1     -36.179  26.142   5.412  0.00  0.00    +0.182 C 
ATOM     32  H   UNL     1     -37.611  24.663   4.972  0.00  0.00    +0.148 HD
ATOM     33  H   UNL     1     -34.279  26.910   5.700  0.00  0.00    +0.148 HD
ENDBRANCH  26  29
ENDBRANCH   1  26
TORSDOF 6
ENDMDL
MODEL 3
REMARK VINA RESULT:      -6.2      4.549      7.774
REMARK  Name = 195550
REMARK  6 active torsions:
REMARK  status: ('A' for Active; 'I' for Inactive)
REMARK    1  A    between atoms: C_1  and  C_9
REMARK    2  A    between atoms: C_1  and  N_16
REMARK    3  A    between atoms: C_1  and  C_26
REMARK    4  A    between atoms: C_4  and  C_12
REMARK    5  A    between atoms: C_17  and  C_21
REMARK    6  A    between atoms: C_26  and  C_29
REMARK                            x       y       z     vdW  Elec       q    Type
REMARK                         _______ _______ _______ _____ _____    ______ ____
ROOT
ATOM      1  C   UNL     1     -32.081  28.589   4.735  0.00  0.00    +0.155 C 
ENDROOT
BRANCH   1   9
ATOM      2  O   UNL     1     -31.046  27.766   6.720  0.00  0.00    -0.273 OA
ATOM      3  N   UNL     1     -29.691  28.176   4.903  0.00  0.00    -0.273 N 
ATOM      4  C   UNL     1     -28.337  27.819   5.377  0.00  0.00    +0.129 C 
ATOM      5  C   UNL     1     -27.976  28.405   3.481  0.00  0.00    +0.024 C 
ATOM      6  C   UNL     1     -27.424  28.980   4.836  0.00  0.00    +0.029 C 
ATOM      7  C   UNL     1     -27.708  27.019   4.177  0.00  0.00    +0.029 C 
ATOM      8  C   UNL     1     -29.496  28.611   3.521  0.00  0.00    +0.094 C 
ATOM      9  C   UNL     1     -30.902  28.137   5.555  0.00  0.00    +0.244 C 
BRANCH   4  12
ATOM     10  O   UNL     1     -27.904  26.122   7.075  0.00  0.00    -0.274 OA
ATOM     11  N   UNL     1     -28.121  28.295   7.758  0.00  0.00    -0.328 N 
ATOM     12  C   UNL     1     -28.100  27.308   6.794  0.00  0.00    +0.235 C 
ATOM     13  H   UNL     1     -27.978  28.064   8.704  0.00  0.00    +0.145 HD
ATOM     14  H   UNL     1     -28.279  29.231   7.498  0.00  0.00    +0.145 HD
ENDBRANCH   4  12
ENDBRANCH   1   9
BRANCH   1  16
ATOM     15  O   UNL     1     -33.052  25.992   3.876  0.00  0.00    -0.273 OA
ATOM     16  N   UNL     1     -33.180  27.844   5.282  0.00  0.00    -0.297 N 
ATOM     17  C   UNL     1     -33.577  26.601   4.804  0.00  0.00    +0.241 C 
ATOM     18  H   UNL     1     -33.679  28.236   6.035  0.00  0.00    +0.150 HD
BRANCH  17  21
ATOM     19  O   UNL     1     -37.566  25.866   3.460  0.00  0.00    -0.275 OA
ATOM     20  N   UNL     1     -35.923  26.572   4.972  0.00  0.00    -0.298 N 
ATOM     21  C   UNL     1     -34.732  26.035   5.568  0.00  0.00    +0.149 C 
ATOM     22  C   UNL     1     -34.879  24.538   5.384  0.00  0.00    +0.039 C 
ATOM     23  C   UNL     1     -35.757  24.394   4.141  0.00  0.00    +0.087 C 
ATOM     24  C   UNL     1     -36.561  25.670   4.128  0.00  0.00    +0.223 C 
ATOM     25  H   UNL     1     -36.253  27.484   5.144  0.00  0.00    +0.150 HD
ENDBRANCH  17  21
ENDBRANCH   1  16
BRANCH   1  26
ATOM     26  C   UNL     1     -32.260  30.099   4.849  0.00  0.00    +0.071 C 
BRANCH  26  29
ATOM     27  N   UNL     1     -34.444  30.789   3.782  0.00  0.00    -0.319 N 
ATOM     28  N   UNL     1     -33.860  31.534   1.773  0.00  0.00    -0.315 N 
ATOM     29  C   UNL     1     -33.085  30.657   3.714  0.00  0.00    +0.040 C 
ATOM     30  C   UNL     1     -32.748  31.123   2.465  0.00  0.00    +0.069 C 
ATOM     31  C   UNL     1     -34.863  31.320   2.594  0.00  0.00    +0.182 C 
ATOM     32  H   UNL     1     -35.015  30.548   4.547  0.00  0.00    +0.148 HD
ATOM     33  H   UNL     1     -33.896  31.908   0.862  0.00  0.00    +0.148 HD
ENDBRANCH  26  29
ENDBRANCH   1  26
TORSDOF 6
ENDMDL
MODEL 4
REMARK VINA RESULT:      -6.1      3.093      5.987
REMARK  Name = 195550
REMARK  6 active torsions:
REMARK  status: ('A' for Active; 'I' for Inactive)
REMARK    1  A    between atoms: C_1  and  C_9
REMARK    2  A    between atoms: C_1  and  N_16
REMARK    3  A    between atoms: C_1  and  C_26
REMARK    4  A    between atoms: C_4  and  C_12
REMARK    5  A    between atoms: C_17  and  C_21
REMARK    6  A    between atoms: C_26  and  C_29
REMARK                            x       y       z     vdW  Elec       q    Type
REMARK                         _______ _______ _______ _____ _____    ______ ____
ROOT
ATOM      1  C   UNL     1     -35.554  22.485   1.525  0.00  0.00    +0.155 C 
ENDROOT
BRANCH   1   9
ATOM      2  O   UNL     1     -33.945  23.054  -0.141  0.00  0.00    -0.273 OA
ATOM      3  N   UNL     1     -34.004  20.868   0.580  0.00  0.00    -0.273 N 
ATOM      4  C   UNL     1     -32.944  20.201  -0.206  0.00  0.00    +0.129 C 
ATOM      5  C   UNL     1     -33.653  18.681   0.915  0.00  0.00    +0.024 C 
ATOM      6  C   UNL     1     -33.595  18.840  -0.649  0.00  0.00    +0.029 C 
ATOM      7  C   UNL     1     -32.204  19.290   0.842  0.00  0.00    +0.029 C 
ATOM      8  C   UNL     1     -34.561  19.809   1.422  0.00  0.00    +0.094 C 
ATOM      9  C   UNL     1     -34.428  22.176   0.574  0.00  0.00    +0.244 C 
BRANCH   4  12
ATOM     10  O   UNL     1     -32.287  20.924  -2.441  0.00  0.00    -0.274 OA
ATOM     11  N   UNL     1     -31.106  21.737  -0.657  0.00  0.00    -0.328 N 
ATOM     12  C   UNL     1     -32.105  20.970  -1.221  0.00  0.00    +0.235 C 
ATOM     13  H   UNL     1     -30.511  22.271  -1.231  0.00  0.00    +0.145 HD
ATOM     14  H   UNL     1     -30.991  21.751   0.320  0.00  0.00    +0.145 HD
ENDBRANCH   4  12
ENDBRANCH   1   9
BRANCH   1  16
ATOM     15  O   UNL     1     -36.369  22.692   4.303  0.00  0.00    -0.273 OA
ATOM     16  N   UNL     1     -34.921  23.247   2.565  0.00  0.00    -0.297 N 
ATOM     17  C   UNL     1     -35.384  23.287   3.875  0.00  0.00    +0.241 C 
ATOM     18  H   UNL     1     -34.118  23.767   2.337  0.00  0.00    +0.150 HD
BRANCH  17  21
ATOM     19  O   UNL     1     -34.923  27.535   3.873  0.00  0.00    -0.275 OA
ATOM     20  N   UNL     1     -34.196  25.313   4.008  0.00  0.00    -0.298 N 
ATOM     21  C   UNL     1     -34.527  24.135   4.759  0.00  0.00    +0.149 C 
ATOM     22  C   UNL     1     -35.278  24.673   5.962  0.00  0.00    +0.039 C 
ATOM     23  C   UNL     1     -35.894  25.982   5.469  0.00  0.00    +0.087 C 
ATOM     24  C   UNL     1     -34.959  26.418   4.368  0.00  0.00    +0.223 C 
ATOM     25  H   UNL     1     -33.502  25.335   3.310  0.00  0.00    +0.150 HD
ENDBRANCH  17  21
ENDBRANCH   1  16
BRANCH   1  26
ATOM     26  C   UNL     1     -36.661  23.250   0.807  0.00  0.00    +0.071 C 
BRANCH  26  29
ATOM     27  N   UNL     1     -38.227  21.724   2.073  0.00  0.00    -0.319 N 
ATOM     28  N   UNL     1     -40.254  22.380   1.449  0.00  0.00    -0.315 N 
ATOM     29  C   UNL     1     -38.033  22.753   1.195  0.00  0.00    +0.040 C 
ATOM     30  C   UNL     1     -39.299  23.141   0.823  0.00  0.00    +0.069 C 
ATOM     31  C   UNL     1     -39.575  21.537   2.194  0.00  0.00    +0.182 C 
ATOM     32  H   UNL     1     -37.524  21.212   2.535  0.00  0.00    +0.148 HD
ATOM     33  H   UNL     1     -41.233  22.451   1.359  0.00  0.00    +0.148 HD
ENDBRANCH  26  29
ENDBRANCH   1  26
TORSDOF 6
ENDMDL
MODEL 5
REMARK VINA RESULT:      -6.1      3.489      7.010
REMARK  Name = 195550
REMARK  6 active torsions:
REMARK  status: ('A' for Active; 'I' for Inactive)
REMARK    1  A    between atoms: C_1  and  C_9
REMARK    2  A    between atoms: C_1  and  N_16
REMARK    3  A    between atoms: C_1  and  C_26
REMARK    4  A    between atoms: C_4  and  C_12
REMARK    5  A    between atoms: C_17  and  C_21
REMARK    6  A    between atoms: C_26  and  C_29
REMARK                            x       y       z     vdW  Elec       q    Type
REMARK                         _______ _______ _______ _____ _____    ______ ____
ROOT
ATOM      1  C   UNL     1     -34.806  26.681   3.944  0.00  0.00    +0.155 C 
ENDROOT
BRANCH   1   9
ATOM      2  O   UNL     1     -33.074  26.391   5.557  0.00  0.00    -0.273 OA
ATOM      3  N   UNL     1     -32.998  28.278   4.240  0.00  0.00    -0.273 N 
ATOM      4  C   UNL     1     -31.790  28.992   4.704  0.00  0.00    +0.129 C 
ATOM      5  C   UNL     1     -32.471  30.221   3.256  0.00  0.00    +0.024 C 
ATOM      6  C   UNL     1     -32.241  30.496   4.788  0.00  0.00    +0.029 C 
ATOM      7  C   UNL     1     -31.093  29.471   3.377  0.00  0.00    +0.029 C 
ATOM      8  C   UNL     1     -33.543  29.126   3.180  0.00  0.00    +0.094 C 
ATOM      9  C   UNL     1     -33.548  27.091   4.662  0.00  0.00    +0.244 C 
BRANCH   4  12
ATOM     10  O   UNL     1     -29.849  27.841   5.631  0.00  0.00    -0.274 OA
ATOM     11  N   UNL     1     -31.421  28.642   7.088  0.00  0.00    -0.328 N 
ATOM     12  C   UNL     1     -30.916  28.432   5.821  0.00  0.00    +0.235 C 
ATOM     13  H   UNL     1     -30.929  28.317   7.875  0.00  0.00    +0.145 HD
ATOM     14  H   UNL     1     -32.275  29.119   7.203  0.00  0.00    +0.145 HD
ENDBRANCH   4  12
ENDBRANCH   1   9
BRANCH   1  16
ATOM     15  O   UNL     1     -35.168  26.736   1.064  0.00  0.00    -0.273 OA
ATOM     16  N   UNL     1     -34.351  25.709   2.989  0.00  0.00    -0.297 N 
ATOM     17  C   UNL     1     -34.571  25.818   1.621  0.00  0.00    +0.241 C 
ATOM     18  H   UNL     1     -33.858  24.926   3.322  0.00  0.00    +0.150 HD
BRANCH  17  21
ATOM     19  O   UNL     1     -35.909  21.770   1.348  0.00  0.00    -0.275 OA
ATOM     20  N   UNL     1     -34.323  23.481   1.550  0.00  0.00    -0.298 N 
ATOM     21  C   UNL     1     -33.971  24.685   0.852  0.00  0.00    +0.149 C 
ATOM     22  C   UNL     1     -34.599  24.506  -0.516  0.00  0.00    +0.039 C 
ATOM     23  C   UNL     1     -35.789  23.579  -0.268  0.00  0.00    +0.087 C 
ATOM     24  C   UNL     1     -35.376  22.796   0.953  0.00  0.00    +0.223 C 
ATOM     25  H   UNL     1     -33.866  23.172   2.366  0.00  0.00    +0.150 HD
ENDBRANCH  17  21
ENDBRANCH   1  16
BRANCH   1  26
ATOM     26  C   UNL     1     -35.825  26.122   4.932  0.00  0.00    +0.071 C 
BRANCH  26  29
ATOM     27  N   UNL     1     -35.071  23.793   5.557  0.00  0.00    -0.319 N 
ATOM     28  N   UNL     1     -36.439  22.455   4.430  0.00  0.00    -0.315 N 
ATOM     29  C   UNL     1     -35.913  24.617   4.862  0.00  0.00    +0.040 C 
ATOM     30  C   UNL     1     -36.748  23.767   4.174  0.00  0.00    +0.069 C 
ATOM     31  C   UNL     1     -35.426  22.506   5.266  0.00  0.00    +0.182 C 
ATOM     32  H   UNL     1     -34.344  24.076   6.157  0.00  0.00    +0.148 HD
ATOM     33  H   UNL     1     -36.880  21.652   4.068  0.00  0.00    +0.148 HD
ENDBRANCH  26  29
ENDBRANCH   1  26
TORSDOF 6
ENDMDL
MODEL 6
REMARK VINA RESULT:      -6.0      3.078      6.147
REMARK  Name = 195550
REMARK  6 active torsions:
REMARK  status: ('A' for Active; 'I' for Inactive)
REMARK    1  A    between atoms: C_1  and  C_9
REMARK    2  A    between atoms: C_1  and  N_16
REMARK    3  A    between atoms: C_1  and  C_26
REMARK    4  A    between atoms: C_4  and  C_12
REMARK    5  A    between atoms: C_17  and  C_21
REMARK    6  A    between atoms: C_26  and  C_29
REMARK                            x       y       z     vdW  Elec       q    Type
REMARK                         _______ _______ _______ _____ _____    ______ ____
ROOT
ATOM      1  C   UNL     1     -34.905  22.114   1.463  0.00  0.00    +0.155 C 
ENDROOT
BRANCH   1   9
ATOM      2  O   UNL     1     -34.776  24.450   1.003  0.00  0.00    -0.273 OA
ATOM      3  N   UNL     1     -35.131  23.813   3.187  0.00  0.00    -0.273 N 
ATOM      4  C   UNL     1     -35.209  25.091   3.926  0.00  0.00    +0.129 C 
ATOM      5  C   UNL     1     -35.471  23.739   5.400  0.00  0.00    +0.024 C 
ATOM      6  C   UNL     1     -34.358  24.836   5.223  0.00  0.00    +0.029 C 
ATOM      7  C   UNL     1     -36.421  24.893   4.909  0.00  0.00    +0.029 C 
ATOM      8  C   UNL     1     -35.316  22.784   4.209  0.00  0.00    +0.094 C 
ATOM      9  C   UNL     1     -34.929  23.569   1.849  0.00  0.00    +0.244 C 
BRANCH   4  12
ATOM     10  O   UNL     1     -33.998  27.046   3.112  0.00  0.00    -0.274 OA
ATOM     11  N   UNL     1     -36.242  26.913   2.679  0.00  0.00    -0.328 N 
ATOM     12  C   UNL     1     -35.064  26.431   3.213  0.00  0.00    +0.235 C 
ATOM     13  H   UNL     1     -36.250  27.772   2.198  0.00  0.00    +0.145 HD
ATOM     14  H   UNL     1     -37.073  26.396   2.778  0.00  0.00    +0.145 HD
ENDBRANCH   4  12
ENDBRANCH   1   9
BRANCH   1  16
ATOM     15  O   UNL     1     -36.704  19.926   2.099  0.00  0.00    -0.273 OA
ATOM     16  N   UNL     1     -36.218  21.881   0.931  0.00  0.00    -0.297 N 
ATOM     17  C   UNL     1     -37.013  20.801   1.295  0.00  0.00    +0.241 C 
ATOM     18  H   UNL     1     -36.573  22.521   0.274  0.00  0.00    +0.150 HD
BRANCH  17  21
ATOM     19  O   UNL     1     -40.459  23.165   2.186  0.00  0.00    -0.275 OA
ATOM     20  N   UNL     1     -39.309  21.212   1.594  0.00  0.00    -0.298 N 
ATOM     21  C   UNL     1     -38.342  20.811   0.611  0.00  0.00    +0.149 C 
ATOM     22  C   UNL     1     -38.445  21.883  -0.456  0.00  0.00    +0.039 C 
ATOM     23  C   UNL     1     -38.933  23.121   0.297  0.00  0.00    +0.087 C 
ATOM     24  C   UNL     1     -39.688  22.544   1.469  0.00  0.00    +0.223 C 
ATOM     25  H   UNL     1     -39.666  20.607   2.284  0.00  0.00    +0.150 HD
ENDBRANCH  17  21
ENDBRANCH   1  16
BRANCH   1  26
ATOM     26  C   UNL     1     -33.791  21.848   0.456  0.00  0.00    +0.071 C 
BRANCH  26  29
ATOM     27  N   UNL     1     -33.733  19.505   1.399  0.00  0.00    -0.319 N 
ATOM     28  N   UNL     1     -31.790  18.684   0.704  0.00  0.00    -0.315 N 
ATOM     29  C   UNL     1     -33.145  20.501   0.671  0.00  0.00    +0.040 C 
ATOM     30  C   UNL     1     -31.946  19.970   0.253  0.00  0.00    +0.069 C 
ATOM     31  C   UNL     1     -32.883  18.435   1.391  0.00  0.00    +0.182 C 
ATOM     32  H   UNL     1     -34.609  19.551   1.847  0.00  0.00    +0.148 HD
ATOM     33  H   UNL     1     -31.027  18.080   0.548  0.00  0.00    +0.148 HD
ENDBRANCH  26  29
ENDBRANCH   1  26
TORSDOF 6
ENDMDL
MODEL 7
REMARK VINA RESULT:      -6.0      2.646      5.560
REMARK  Name = 195550
REMARK  6 active torsions:
REMARK  status: ('A' for Active; 'I' for Inactive)
REMARK    1  A    between atoms: C_1  and  C_9
REMARK    2  A    between atoms: C_1  and  N_16
REMARK    3  A    between atoms: C_1  and  C_26
REMARK    4  A    between atoms: C_4  and  C_12
REMARK    5  A    between atoms: C_17  and  C_21
REMARK    6  A    between atoms: C_26  and  C_29
REMARK                            x       y       z     vdW  Elec       q    Type
REMARK                         _______ _______ _______ _____ _____    ______ ____
ROOT
ATOM      1  C   UNL     1     -36.231  22.304   3.062  0.00  0.00    +0.155 C 
ENDROOT
BRANCH   1   9
ATOM      2  O   UNL     1     -34.519  23.423   1.836  0.00  0.00    -0.273 OA
ATOM      3  N   UNL     1     -35.258  24.412   3.780  0.00  0.00    -0.273 N 
ATOM      4  C   UNL     1     -34.448  25.645   3.886  0.00  0.00    +0.129 C 
ATOM      5  C   UNL     1     -35.598  25.756   5.540  0.00  0.00    +0.024 C 
ATOM      6  C   UNL     1     -34.033  25.701   5.402  0.00  0.00    +0.029 C 
ATOM      7  C   UNL     1     -35.482  26.747   4.323  0.00  0.00    +0.029 C 
ATOM      8  C   UNL     1     -36.121  24.435   4.960  0.00  0.00    +0.094 C 
ATOM      9  C   UNL     1     -35.253  23.424   2.824  0.00  0.00    +0.244 C 
BRANCH   4  12
ATOM     10  O   UNL     1     -32.191  25.842   2.982  0.00  0.00    -0.274 OA
ATOM     11  N   UNL     1     -33.938  26.535   1.675  0.00  0.00    -0.328 N 
ATOM     12  C   UNL     1     -33.406  26.004   2.832  0.00  0.00    +0.235 C 
ATOM     13  H   UNL     1     -33.344  26.798   0.936  0.00  0.00    +0.145 HD
ATOM     14  H   UNL     1     -34.911  26.650   1.590  0.00  0.00    +0.145 HD
ENDBRANCH   4  12
ENDBRANCH   1   9
BRANCH   1  16
ATOM     15  O   UNL     1     -38.896  23.456   3.079  0.00  0.00    -0.273 OA
ATOM     16  N   UNL     1     -37.143  22.409   1.958  0.00  0.00    -0.297 N 
ATOM     17  C   UNL     1     -38.406  22.979   2.058  0.00  0.00    +0.241 C 
ATOM     18  H   UNL     1     -36.858  22.057   1.084  0.00  0.00    +0.150 HD
BRANCH  17  21
ATOM     19  O   UNL     1     -42.297  24.514   1.184  0.00  0.00    -0.275 OA
ATOM     20  N   UNL     1     -40.540  22.970   1.068  0.00  0.00    -0.298 N 
ATOM     21  C   UNL     1     -39.139  22.983   0.755  0.00  0.00    +0.149 C 
ATOM     22  C   UNL     1     -38.954  24.273  -0.019  0.00  0.00    +0.039 C 
ATOM     23  C   UNL     1     -40.066  25.186   0.497  0.00  0.00    +0.087 C 
ATOM     24  C   UNL     1     -41.135  24.220   0.944  0.00  0.00    +0.223 C 
ATOM     25  H   UNL     1     -41.028  22.160   1.343  0.00  0.00    +0.150 HD
ENDBRANCH  17  21
ENDBRANCH   1  16
BRANCH   1  26
ATOM     26  C   UNL     1     -35.503  20.965   3.117  0.00  0.00    +0.071 C 
BRANCH  26  29
ATOM     27  N   UNL     1     -36.767  19.407   1.580  0.00  0.00    -0.319 N 
ATOM     28  N   UNL     1     -35.451  19.205  -0.197  0.00  0.00    -0.315 N 
ATOM     29  C   UNL     1     -35.669  20.179   1.838  0.00  0.00    +0.040 C 
ATOM     30  C   UNL     1     -34.871  20.038   0.727  0.00  0.00    +0.069 C 
ATOM     31  C   UNL     1     -36.590  18.842   0.348  0.00  0.00    +0.182 C 
ATOM     32  H   UNL     1     -37.542  19.281   2.174  0.00  0.00    +0.148 HD
ATOM     33  H   UNL     1     -35.091  18.938  -1.074  0.00  0.00    +0.148 HD
ENDBRANCH  26  29
ENDBRANCH   1  26
TORSDOF 6
ENDMDL
MODEL 8
REMARK VINA RESULT:      -5.9      2.198      5.396
REMARK  Name = 195550
REMARK  6 active torsions:
REMARK  status: ('A' for Active; 'I' for Inactive)
REMARK    1  A    between atoms: C_1  and  C_9
REMARK    2  A    between atoms: C_1  and  N_16
REMARK    3  A    between atoms: C_1  and  C_26
REMARK    4  A    between atoms: C_4  and  C_12
REMARK    5  A    between atoms: C_17  and  C_21
REMARK    6  A    between atoms: C_26  and  C_29
REMARK                            x       y       z     vdW  Elec       q    Type
REMARK                         _______ _______ _______ _____ _____    ______ ____
ROOT
ATOM      1  C   UNL     1     -36.667  23.327   1.627  0.00  0.00    +0.155 C 
ENDROOT
BRANCH   1   9
ATOM      2  O   UNL     1     -35.723  25.484   1.253  0.00  0.00    -0.273 OA
ATOM      3  N   UNL     1     -35.720  24.680   3.411  0.00  0.00    -0.273 N 
ATOM      4  C   UNL     1     -35.074  25.755   4.195  0.00  0.00    +0.129 C 
ATOM      5  C   UNL     1     -35.468  24.379   5.616  0.00  0.00    +0.024 C 
ATOM      6  C   UNL     1     -34.094  24.990   5.157  0.00  0.00    +0.029 C 
ATOM      7  C   UNL     1     -35.958  25.869   5.491  0.00  0.00    +0.029 C 
ATOM      8  C   UNL     1     -36.034  23.644   4.394  0.00  0.00    +0.094 C 
ATOM      9  C   UNL     1     -35.994  24.600   2.065  0.00  0.00    +0.244 C 
BRANCH   4  12
ATOM     10  O   UNL     1     -33.414  27.246   3.209  0.00  0.00    -0.274 OA
ATOM     11  N   UNL     1     -35.583  27.970   3.315  0.00  0.00    -0.328 N 
ATOM     12  C   UNL     1     -34.588  27.039   3.531  0.00  0.00    +0.235 C 
ATOM     13  H   UNL     1     -35.368  28.832   2.891  0.00  0.00    +0.145 HD
ATOM     14  H   UNL     1     -36.509  27.771   3.583  0.00  0.00    +0.145 HD
ENDBRANCH   4  12
ENDBRANCH   1   9
BRANCH   1  16
ATOM     15  O   UNL     1     -39.253  23.458   2.939  0.00  0.00    -0.273 OA
ATOM     16  N   UNL     1     -37.910  23.776   1.064  0.00  0.00    -0.297 N 
ATOM     17  C   UNL     1     -39.106  23.804   1.770  0.00  0.00    +0.241 C 
ATOM     18  H   UNL     1     -37.913  24.079   0.128  0.00  0.00    +0.150 HD
BRANCH  17  21
ATOM     19  O   UNL     1     -41.402  27.354   2.390  0.00  0.00    -0.275 OA
ATOM     20  N   UNL     1     -41.067  25.100   1.848  0.00  0.00    -0.298 N 
ATOM     21  C   UNL     1     -40.240  24.338   0.956  0.00  0.00    +0.149 C 
ATOM     22  C   UNL     1     -39.794  25.353  -0.078  0.00  0.00    +0.039 C 
ATOM     23  C   UNL     1     -39.827  26.689   0.664  0.00  0.00    +0.087 C 
ATOM     24  C   UNL     1     -40.870  26.472   1.733  0.00  0.00    +0.223 C 
ATOM     25  H   UNL     1     -41.707  24.693   2.477  0.00  0.00    +0.150 HD
ENDBRANCH  17  21
ENDBRANCH   1  16
BRANCH   1  26
ATOM     26  C   UNL     1     -35.790  22.578   0.630  0.00  0.00    +0.071 C 
BRANCH  26  29
ATOM     27  N   UNL     1     -35.464  20.218  -0.214  0.00  0.00    -0.319 N 
ATOM     28  N   UNL     1     -36.674  18.971   1.168  0.00  0.00    -0.315 N 
ATOM     29  C   UNL     1     -36.025  21.087   0.680  0.00  0.00    +0.040 C 
ATOM     30  C   UNL     1     -36.767  20.293   1.523  0.00  0.00    +0.069 C 
ATOM     31  C   UNL     1     -35.882  18.961   0.119  0.00  0.00    +0.182 C 
ATOM     32  H   UNL     1     -34.868  20.456  -0.961  0.00  0.00    +0.148 HD
ATOM     33  H   UNL     1     -37.105  18.199   1.604  0.00  0.00    +0.148 HD
ENDBRANCH  26  29
ENDBRANCH   1  26
TORSDOF 6
ENDMDL
MODEL 9
REMARK VINA RESULT:      -5.9      3.415      6.675
REMARK  Name = 195550
REMARK  6 active torsions:
REMARK  status: ('A' for Active; 'I' for Inactive)
REMARK    1  A    between atoms: C_1  and  C_9
REMARK    2  A    between atoms: C_1  and  N_16
REMARK    3  A    between atoms: C_1  and  C_26
REMARK    4  A    between atoms: C_4  and  C_12
REMARK    5  A    between atoms: C_17  and  C_21
REMARK    6  A    between atoms: C_26  and  C_29
REMARK                            x       y       z     vdW  Elec       q    Type
REMARK                         _______ _______ _______ _____ _____    ______ ____
ROOT
ATOM      1  C   UNL     1     -34.815  27.730   3.358  0.00  0.00    +0.155 C 
ENDROOT
BRANCH   1   9
ATOM      2  O   UNL     1     -36.392  27.483   1.587  0.00  0.00    -0.273 OA
ATOM      3  N   UNL     1     -35.632  29.607   2.048  0.00  0.00    -0.273 N 
ATOM      4  C   UNL     1     -36.332  30.461   1.065  0.00  0.00    +0.129 C 
ATOM      5  C   UNL     1     -35.226  31.810   2.078  0.00  0.00    +0.024 C 
ATOM      6  C   UNL     1     -35.218  31.443   0.548  0.00  0.00    +0.029 C 
ATOM      7  C   UNL     1     -36.787  31.715   1.900  0.00  0.00    +0.029 C 
ATOM      8  C   UNL     1     -34.807  30.535   2.821  0.00  0.00    +0.094 C 
ATOM      9  C   UNL     1     -35.690  28.248   2.247  0.00  0.00    +0.244 C 
BRANCH   4  12
ATOM     10  O   UNL     1     -38.536  29.899   0.182  0.00  0.00    -0.274 OA
ATOM     11  N   UNL     1     -36.699  29.292  -1.042  0.00  0.00    -0.328 N 
ATOM     12  C   UNL     1     -37.308  29.871   0.052  0.00  0.00    +0.235 C 
ATOM     13  H   UNL     1     -37.246  28.883  -1.751  0.00  0.00    +0.145 HD
ATOM     14  H   UNL     1     -35.718  29.288  -1.113  0.00  0.00    +0.145 HD
ENDBRANCH   4  12
ENDBRANCH   1   9
BRANCH   1  16
ATOM     15  O   UNL     1     -34.414  26.394   5.904  0.00  0.00    -0.273 OA
ATOM     16  N   UNL     1     -35.560  26.623   3.890  0.00  0.00    -0.297 N 
ATOM     17  C   UNL     1     -35.296  26.044   5.125  0.00  0.00    +0.241 C 
ATOM     18  H   UNL     1     -36.296  26.256   3.350  0.00  0.00    +0.150 HD
BRANCH  17  21
ATOM     19  O   UNL     1     -36.991  23.136   2.492  0.00  0.00    -0.275 OA
ATOM     20  N   UNL     1     -37.000  24.675   4.258  0.00  0.00    -0.298 N 
ATOM     21  C   UNL     1     -36.236  24.926   5.446  0.00  0.00    +0.149 C 
ATOM     22  C   UNL     1     -35.521  23.613   5.700  0.00  0.00    +0.039 C 
ATOM     23  C   UNL     1     -35.394  22.978   4.316  0.00  0.00    +0.087 C 
ATOM     24  C   UNL     1     -36.558  23.561   3.553  0.00  0.00    +0.223 C 
ATOM     25  H   UNL     1     -37.760  25.233   3.972  0.00  0.00    +0.150 HD
ENDBRANCH  17  21
ENDBRANCH   1  16
BRANCH   1  26
ATOM     26  C   UNL     1     -33.447  27.330   2.816  0.00  0.00    +0.071 C 
BRANCH  26  29
ATOM     27  N   UNL     1     -32.505  28.415   4.894  0.00  0.00    -0.319 N 
ATOM     28  N   UNL     1     -30.345  28.670   4.447  0.00  0.00    -0.315 N 
ATOM     29  C   UNL     1     -32.322  27.913   3.636  0.00  0.00    +0.040 C 
ATOM     30  C   UNL     1     -30.980  28.082   3.382  0.00  0.00    +0.069 C 
ATOM     31  C   UNL     1     -31.292  28.857   5.340  0.00  0.00    +0.182 C 
ATOM     32  H   UNL     1     -33.357  28.451   5.388  0.00  0.00    +0.148 HD
ATOM     33  H   UNL     1     -29.390  28.900   4.525  0.00  0.00    +0.148 HD
ENDBRANCH  26  29
ENDBRANCH   1  26
TORSDOF 6
ENDMDL
