MODEL 1
REMARK VINA RESULT:      -5.2      0.000      0.000
REMARK  Name = 196093
REMARK  9 active torsions:
REMARK  status: ('A' for Active; 'I' for Inactive)
REMARK    1  A    between atoms: C_1  and  N_2
REMARK    2  A    between atoms: C_1  and  C_14
REMARK    3  A    between atoms: N_2  and  C_11
REMARK    4  A    between atoms: C_14  and  C_15
REMARK    5  A    between atoms: C_15  and  C_16
REMARK    6  A    between atoms: C_16  and  C_17
REMARK    7  A    between atoms: C_17  and  N_18
REMARK    8  A    between atoms: C_17  and  C_23
REMARK    9  A    between atoms: C_23  and  O_24
REMARK                            x       y       z     vdW  Elec       q    Type
REMARK                         _______ _______ _______ _____ _____    ______ ____
ROOT
ATOM      1  C   UNK     1     -35.912  22.499   3.508  0.00  0.00    +0.073 C 
ENDROOT
BRANCH   1   2
ATOM      2  N   UNK     1     -37.343  22.682   3.445  0.00  0.00    -0.354 NA
ATOM      3  H   UNK     1     -37.928  21.916   3.648  0.00  0.00    +0.128 HD
ATOM      4  H   UNK     1     -37.604  23.103   4.296  0.00  0.00    +0.128 HD
BRANCH   2  11
ATOM      5  O   UNK     1     -37.470  24.988   3.467  0.00  0.00    -0.254 OA
ATOM      6  O   UNK     1     -39.418  21.432   1.956  0.00  0.00    -0.252 OA
ATOM      7  N   UNK     1     -39.085  23.774   2.312  0.00  0.00    -0.198 N 
ATOM      8  N   UNK     1     -40.872  23.044   1.092  0.00  0.00    -0.287 N 
ATOM      9  C   UNK     1     -39.757  24.961   1.805  0.00  0.00    +0.125 C 
ATOM     10  C   UNK     1     -41.052  24.465   1.193  0.00  0.00    +0.113 C 
ATOM     11  C   UNK     1     -37.924  23.898   3.109  0.00  0.00    +0.295 C 
ATOM     12  C   UNK     1     -39.748  22.602   1.807  0.00  0.00    +0.311 C 
ATOM     13  H   UNK     1     -41.469  22.451   0.580  0.00  0.00    +0.151 HD
ENDBRANCH   2  11
ENDBRANCH   1   2
BRANCH   1  14
ATOM     14  C   UNK     1     -35.410  22.192   4.915  0.00  0.00    +0.020 C 
BRANCH  14  15
ATOM     15  C   UNK     1     -35.178  23.424   5.801  0.00  0.00    +0.000 C 
BRANCH  15  16
ATOM     16  C   UNK     1     -34.466  24.582   5.094  0.00  0.00    -0.011 C 
BRANCH  16  17
ATOM     17  C   UNK     1     -34.721  25.935   5.769  0.00  0.00    +0.036 C 
BRANCH  17  18
ATOM     18  N   UNK     1     -35.722  26.679   5.000  0.00  0.00    +0.389 N 
ATOM     19  H   UNK     1     -36.033  26.113   4.210  0.00  0.00    -0.088 HD
ATOM     20  H   UNK     1     -35.311  27.547   4.655  0.00  0.00    -0.088 HD
ATOM     21  H   UNK     1     -36.519  26.896   5.599  0.00  0.00    -0.088 HD
ENDBRANCH  17  18
BRANCH  17  23
ATOM     22  O   UNK     1     -32.608  26.734   6.684  0.00  0.00    -0.253 OA
ATOM     23  C   UNK     1     -33.461  26.784   5.808  0.00  0.00    +0.293 C 
BRANCH  23  24
ATOM     24  O   UNK     1     -33.387  27.643   4.759  0.00  0.00    -0.482 OA
ATOM     25  H   UNK     1     -34.152  28.107   4.478  0.00  0.00    +0.295 HD
ENDBRANCH  23  24
ENDBRANCH  17  23
ENDBRANCH  16  17
ENDBRANCH  15  16
ENDBRANCH  14  15
ENDBRANCH   1  14
TORSDOF 9
ENDMDL
MODEL 2
REMARK VINA RESULT:      -5.2      2.796      3.764
REMARK  Name = 196093
REMARK  9 active torsions:
REMARK  status: ('A' for Active; 'I' for Inactive)
REMARK    1  A    between atoms: C_1  and  N_2
REMARK    2  A    between atoms: C_1  and  C_14
REMARK    3  A    between atoms: N_2  and  C_11
REMARK    4  A    between atoms: C_14  and  C_15
REMARK    5  A    between atoms: C_15  and  C_16
REMARK    6  A    between atoms: C_16  and  C_17
REMARK    7  A    between atoms: C_17  and  N_18
REMARK    8  A    between atoms: C_17  and  C_23
REMARK    9  A    between atoms: C_23  and  O_24
REMARK                            x       y       z     vdW  Elec       q    Type
REMARK                         _______ _______ _______ _____ _____    ______ ____
ROOT
ATOM      1  C   UNK     1     -35.192  21.674   4.961  0.00  0.00    +0.073 C 
ENDROOT
BRANCH   1   2
ATOM      2  N   UNK     1     -35.978  21.699   3.750  0.00  0.00    -0.354 NA
ATOM      3  H   UNK     1     -36.658  22.403   3.641  0.00  0.00    +0.128 HD
ATOM      4  H   UNK     1     -35.418  22.138   3.069  0.00  0.00    +0.128 HD
BRANCH   2  11
ATOM      5  O   UNK     1     -34.820  20.037   2.641  0.00  0.00    -0.254 OA
ATOM      6  O   UNK     1     -38.473  22.354   2.554  0.00  0.00    -0.252 OA
ATOM      7  N   UNK     1     -36.883  20.728   1.814  0.00  0.00    -0.198 N 
ATOM      8  N   UNK     1     -38.805  21.071   0.629  0.00  0.00    -0.287 N 
ATOM      9  C   UNK     1     -36.895  19.743   0.743  0.00  0.00    +0.125 C 
ATOM     10  C   UNK     1     -38.054  20.130  -0.153  0.00  0.00    +0.113 C 
ATOM     11  C   UNK     1     -35.810  20.767   2.734  0.00  0.00    +0.295 C 
ATOM     12  C   UNK     1     -38.099  21.494   1.767  0.00  0.00    +0.311 C 
ATOM     13  H   UNK     1     -39.709  21.383   0.393  0.00  0.00    +0.151 HD
ENDBRANCH   2  11
ENDBRANCH   1   2
BRANCH   1  14
ATOM     14  C   UNK     1     -35.520  22.821   5.911  0.00  0.00    +0.020 C 
BRANCH  14  15
ATOM     15  C   UNK     1     -34.838  24.154   5.574  0.00  0.00    +0.000 C 
BRANCH  15  16
ATOM     16  C   UNK     1     -35.800  25.340   5.456  0.00  0.00    -0.011 C 
BRANCH  16  17
ATOM     17  C   UNK     1     -35.935  25.853   4.016  0.00  0.00    +0.036 C 
BRANCH  17  18
ATOM     18  N   UNK     1     -35.640  27.288   3.984  0.00  0.00    +0.389 N 
ATOM     19  H   UNK     1     -36.207  27.767   4.684  0.00  0.00    -0.088 HD
ATOM     20  H   UNK     1     -35.858  27.659   3.059  0.00  0.00    -0.088 HD
ATOM     21  H   UNK     1     -34.652  27.438   4.186  0.00  0.00    -0.088 HD
ENDBRANCH  17  18
BRANCH  17  23
ATOM     22  O   UNK     1     -37.821  26.260   2.528  0.00  0.00    -0.253 OA
ATOM     23  C   UNK     1     -37.349  25.671   3.491  0.00  0.00    +0.293 C 
BRANCH  23  24
ATOM     24  O   UNK     1     -38.062  24.785   4.233  0.00  0.00    -0.482 OA
ATOM     25  H   UNK     1     -38.669  25.093   4.877  0.00  0.00    +0.295 HD
ENDBRANCH  23  24
ENDBRANCH  17  23
ENDBRANCH  16  17
ENDBRANCH  15  16
ENDBRANCH  14  15
ENDBRANCH   1  14
TORSDOF 9
ENDMDL
MODEL 3
REMARK VINA RESULT:      -5.2      2.408      4.951
REMARK  Name = 196093
REMARK  9 active torsions:
REMARK  status: ('A' for Active; 'I' for Inactive)
REMARK    1  A    between atoms: C_1  and  N_2
REMARK    2  A    between atoms: C_1  and  C_14
REMARK    3  A    between atoms: N_2  and  C_11
REMARK    4  A    between atoms: C_14  and  C_15
REMARK    5  A    between atoms: C_15  and  C_16
REMARK    6  A    between atoms: C_16  and  C_17
REMARK    7  A    between atoms: C_17  and  N_18
REMARK    8  A    between atoms: C_17  and  C_23
REMARK    9  A    between atoms: C_23  and  O_24
REMARK                            x       y       z     vdW  Elec       q    Type
REMARK                         _______ _______ _______ _____ _____    ______ ____
ROOT
ATOM      1  C   UNK     1     -34.854  25.642   5.771  0.00  0.00    +0.073 C 
ENDROOT
BRANCH   1   2
ATOM      2  N   UNK     1     -35.657  26.574   5.015  0.00  0.00    -0.354 NA
ATOM      3  H   UNK     1     -36.530  26.850   5.378  0.00  0.00    +0.128 HD
ATOM      4  H   UNK     1     -35.296  27.469   5.212  0.00  0.00    +0.128 HD
BRANCH   2  11
ATOM      5  O   UNK     1     -34.242  27.807   3.669  0.00  0.00    -0.254 OA
ATOM      6  O   UNK     1     -37.802  25.349   3.609  0.00  0.00    -0.252 OA
ATOM      7  N   UNK     1     -36.071  26.733   2.710  0.00  0.00    -0.198 N 
ATOM      8  N   UNK     1     -37.700  25.904   1.341  0.00  0.00    -0.287 N 
ATOM      9  C   UNK     1     -35.718  27.128   1.355  0.00  0.00    +0.125 C 
ATOM     10  C   UNK     1     -36.915  26.765   0.501  0.00  0.00    +0.113 C 
ATOM     11  C   UNK     1     -35.242  27.096   3.797  0.00  0.00    +0.295 C 
ATOM     12  C   UNK     1     -37.259  25.924   2.674  0.00  0.00    +0.311 C 
ATOM     13  H   UNK     1     -38.458  25.365   1.019  0.00  0.00    +0.151 HD
ENDBRANCH   2  11
ENDBRANCH   1   2
BRANCH   1  14
ATOM     14  C   UNK     1     -34.679  24.298   5.071  0.00  0.00    +0.020 C 
BRANCH  14  15
ATOM     15  C   UNK     1     -35.332  23.108   5.785  0.00  0.00    +0.000 C 
BRANCH  15  16
ATOM     16  C   UNK     1     -35.298  21.800   4.988  0.00  0.00    -0.011 C 
BRANCH  16  17
ATOM     17  C   UNK     1     -35.738  21.982   3.530  0.00  0.00    +0.036 C 
BRANCH  17  18
ATOM     18  N   UNK     1     -37.153  22.362   3.495  0.00  0.00    +0.389 N 
ATOM     19  H   UNK     1     -37.250  23.268   3.036  0.00  0.00    -0.088 HD
ATOM     20  H   UNK     1     -37.512  22.424   4.447  0.00  0.00    -0.088 HD
ATOM     21  H   UNK     1     -37.681  21.659   2.977  0.00  0.00    -0.088 HD
ENDBRANCH  17  18
BRANCH  17  23
ATOM     22  O   UNK     1     -34.608  20.366   2.099  0.00  0.00    -0.253 OA
ATOM     23  C   UNK     1     -35.597  20.692   2.741  0.00  0.00    +0.293 C 
BRANCH  23  24
ATOM     24  O   UNK     1     -36.719  19.928   2.800  0.00  0.00    -0.482 OA
ATOM     25  H   UNK     1     -37.234  19.789   2.029  0.00  0.00    +0.295 HD
ENDBRANCH  23  24
ENDBRANCH  17  23
ENDBRANCH  16  17
ENDBRANCH  15  16
ENDBRANCH  14  15
ENDBRANCH   1  14
TORSDOF 9
ENDMDL
MODEL 4
REMARK VINA RESULT:      -5.2      2.366      2.880
REMARK  Name = 196093
REMARK  9 active torsions:
REMARK  status: ('A' for Active; 'I' for Inactive)
REMARK    1  A    between atoms: C_1  and  N_2
REMARK    2  A    between atoms: C_1  and  C_14
REMARK    3  A    between atoms: N_2  and  C_11
REMARK    4  A    between atoms: C_14  and  C_15
REMARK    5  A    between atoms: C_15  and  C_16
REMARK    6  A    between atoms: C_16  and  C_17
REMARK    7  A    between atoms: C_17  and  N_18
REMARK    8  A    between atoms: C_17  and  C_23
REMARK    9  A    between atoms: C_23  and  O_24
REMARK                            x       y       z     vdW  Elec       q    Type
REMARK                         _______ _______ _______ _____ _____    ______ ____
ROOT
ATOM      1  C   UNK     1     -35.621  22.552   4.190  0.00  0.00    +0.073 C 
ENDROOT
BRANCH   1   2
ATOM      2  N   UNK     1     -36.970  22.528   3.673  0.00  0.00    -0.354 NA
ATOM      3  H   UNK     1     -37.664  23.053   4.135  0.00  0.00    +0.128 HD
ATOM      4  H   UNK     1     -36.988  23.168   2.925  0.00  0.00    +0.128 HD
BRANCH   2  11
ATOM      5  O   UNK     1     -36.640  20.868   2.102  0.00  0.00    -0.254 OA
ATOM      6  O   UNK     1     -39.369  24.006   3.296  0.00  0.00    -0.252 OA
ATOM      7  N   UNK     1     -38.542  22.201   1.961  0.00  0.00    -0.198 N 
ATOM      8  N   UNK     1     -40.499  23.237   1.400  0.00  0.00    -0.287 N 
ATOM      9  C   UNK     1     -39.091  21.472   0.828  0.00  0.00    +0.125 C 
ATOM     10  C   UNK     1     -40.260  22.301   0.337  0.00  0.00    +0.113 C 
ATOM     11  C   UNK     1     -37.322  21.793   2.548  0.00  0.00    +0.295 C 
ATOM     12  C   UNK     1     -39.457  23.244   2.341  0.00  0.00    +0.311 C 
ATOM     13  H   UNK     1     -41.301  23.806   1.461  0.00  0.00    +0.151 HD
ENDBRANCH   2  11
ENDBRANCH   1   2
BRANCH   1  14
ATOM     14  C   UNK     1     -35.520  23.205   5.565  0.00  0.00    +0.020 C 
BRANCH  14  15
ATOM     15  C   UNK     1     -34.825  24.573   5.581  0.00  0.00    +0.000 C 
BRANCH  15  16
ATOM     16  C   UNK     1     -34.641  25.200   4.195  0.00  0.00    -0.011 C 
BRANCH  16  17
ATOM     17  C   UNK     1     -35.634  26.337   3.923  0.00  0.00    +0.036 C 
BRANCH  17  18
ATOM     18  N   UNK     1     -36.398  26.617   5.141  0.00  0.00    +0.389 N 
ATOM     19  H   UNK     1     -36.632  25.738   5.605  0.00  0.00    -0.088 HD
ATOM     20  H   UNK     1     -37.256  27.111   4.899  0.00  0.00    -0.088 HD
ATOM     21  H   UNK     1     -35.838  27.194   5.769  0.00  0.00    -0.088 HD
ENDBRANCH  17  18
BRANCH  17  23
ATOM     22  O   UNK     1     -36.413  25.175   1.927  0.00  0.00    -0.253 OA
ATOM     23  C   UNK     1     -36.633  25.956   2.843  0.00  0.00    +0.293 C 
BRANCH  23  24
ATOM     24  O   UNK     1     -37.817  26.606   2.986  0.00  0.00    -0.482 OA
ATOM     25  H   UNK     1     -38.601  26.122   3.158  0.00  0.00    +0.295 HD
ENDBRANCH  23  24
ENDBRANCH  17  23
ENDBRANCH  16  17
ENDBRANCH  15  16
ENDBRANCH  14  15
ENDBRANCH   1  14
TORSDOF 9
ENDMDL
MODEL 5
REMARK VINA RESULT:      -5.2      3.269      7.476
REMARK  Name = 196093
REMARK  9 active torsions:
REMARK  status: ('A' for Active; 'I' for Inactive)
REMARK    1  A    between atoms: C_1  and  N_2
REMARK    2  A    between atoms: C_1  and  C_14
REMARK    3  A    between atoms: N_2  and  C_11
REMARK    4  A    between atoms: C_14  and  C_15
REMARK    5  A    between atoms: C_15  and  C_16
REMARK    6  A    between atoms: C_16  and  C_17
REMARK    7  A    between atoms: C_17  and  N_18
REMARK    8  A    between atoms: C_17  and  C_23
REMARK    9  A    between atoms: C_23  and  O_24
REMARK                            x       y       z     vdW  Elec       q    Type
REMARK                         _______ _______ _______ _____ _____    ______ ____
ROOT
ATOM      1  C   UNK     1     -34.397  25.929   3.740  0.00  0.00    +0.073 C 
ENDROOT
BRANCH   1   2
ATOM      2  N   UNK     1     -33.066  26.349   4.113  0.00  0.00    -0.354 NA
ATOM      3  H   UNK     1     -32.463  25.694   4.534  0.00  0.00    +0.128 HD
ATOM      4  H   UNK     1     -32.526  26.312   3.290  0.00  0.00    +0.128 HD
BRANCH   2  11
ATOM      5  O   UNK     1     -32.556  28.167   2.783  0.00  0.00    -0.254 OA
ATOM      6  O   UNK     1     -32.559  26.772   6.878  0.00  0.00    -0.252 OA
ATOM      7  N   UNK     1     -32.202  28.306   5.078  0.00  0.00    -0.198 N 
ATOM      8  N   UNK     1     -31.668  28.906   7.217  0.00  0.00    -0.287 N 
ATOM      9  C   UNK     1     -31.779  29.698   5.029  0.00  0.00    +0.125 C 
ATOM     10  C   UNK     1     -31.223  30.003   6.405  0.00  0.00    +0.113 C 
ATOM     11  C   UNK     1     -32.606  27.642   3.898  0.00  0.00    +0.295 C 
ATOM     12  C   UNK     1     -32.190  27.856   6.444  0.00  0.00    +0.311 C 
ATOM     13  H   UNK     1     -31.613  28.892   8.200  0.00  0.00    +0.151 HD
ENDBRANCH   2  11
ENDBRANCH   1   2
BRANCH   1  14
ATOM     14  C   UNK     1     -35.427  26.158   4.841  0.00  0.00    +0.020 C 
BRANCH  14  15
ATOM     15  C   UNK     1     -36.102  24.884   5.367  0.00  0.00    +0.000 C 
BRANCH  15  16
ATOM     16  C   UNK     1     -35.245  23.621   5.243  0.00  0.00    -0.011 C 
BRANCH  16  17
ATOM     17  C   UNK     1     -35.620  22.767   4.025  0.00  0.00    +0.036 C 
BRANCH  17  18
ATOM     18  N   UNK     1     -37.062  22.871   3.786  0.00  0.00    +0.389 N 
ATOM     19  H   UNK     1     -37.370  23.826   3.972  0.00  0.00    -0.088 HD
ATOM     20  H   UNK     1     -37.557  22.228   4.406  0.00  0.00    -0.088 HD
ATOM     21  H   UNK     1     -37.265  22.631   2.816  0.00  0.00    -0.088 HD
ENDBRANCH  17  18
BRANCH  17  23
ATOM     22  O   UNK     1     -35.188  20.459   3.375  0.00  0.00    -0.253 OA
ATOM     23  C   UNK     1     -35.306  21.299   4.256  0.00  0.00    +0.293 C 
BRANCH  23  24
ATOM     24  O   UNK     1     -35.191  21.000   5.577  0.00  0.00    -0.482 OA
ATOM     25  H   UNK     1     -35.771  21.392   6.199  0.00  0.00    +0.295 HD
ENDBRANCH  23  24
ENDBRANCH  17  23
ENDBRANCH  16  17
ENDBRANCH  15  16
ENDBRANCH  14  15
ENDBRANCH   1  14
TORSDOF 9
ENDMDL
MODEL 6
REMARK VINA RESULT:      -5.1      2.175      2.438
REMARK  Name = 196093
REMARK  9 active torsions:
REMARK  status: ('A' for Active; 'I' for Inactive)
REMARK    1  A    between atoms: C_1  and  N_2
REMARK    2  A    between atoms: C_1  and  C_14
REMARK    3  A    between atoms: N_2  and  C_11
REMARK    4  A    between atoms: C_14  and  C_15
REMARK    5  A    between atoms: C_15  and  C_16
REMARK    6  A    between atoms: C_16  and  C_17
REMARK    7  A    between atoms: C_17  and  N_18
REMARK    8  A    between atoms: C_17  and  C_23
REMARK    9  A    between atoms: C_23  and  O_24
REMARK                            x       y       z     vdW  Elec       q    Type
REMARK                         _______ _______ _______ _____ _____    ______ ____
ROOT
ATOM      1  C   UNK     1     -35.681  21.980   4.638  0.00  0.00    +0.073 C 
ENDROOT
BRANCH   1   2
ATOM      2  N   UNK     1     -36.068  22.676   3.433  0.00  0.00    -0.354 NA
ATOM      3  H   UNK     1     -35.376  22.886   2.764  0.00  0.00    +0.128 HD
ATOM      4  H   UNK     1     -36.440  21.993   2.829  0.00  0.00    +0.128 HD
BRANCH   2  11
ATOM      5  O   UNK     1     -37.911  24.040   3.709  0.00  0.00    -0.254 OA
ATOM      6  O   UNK     1     -36.486  20.535   1.610  0.00  0.00    -0.252 OA
ATOM      7  N   UNK     1     -38.052  22.220   2.265  0.00  0.00    -0.198 N 
ATOM      8  N   UNK     1     -38.676  20.586   0.796  0.00  0.00    -0.287 N 
ATOM      9  C   UNK     1     -39.404  22.540   1.833  0.00  0.00    +0.125 C 
ATOM     10  C   UNK     1     -39.875  21.337   1.042  0.00  0.00    +0.113 C 
ATOM     11  C   UNK     1     -37.380  23.058   3.183  0.00  0.00    +0.295 C 
ATOM     12  C   UNK     1     -37.596  21.049   1.565  0.00  0.00    +0.311 C 
ATOM     13  H   UNK     1     -38.620  19.835   0.162  0.00  0.00    +0.151 HD
ENDBRANCH   2  11
ENDBRANCH   1   2
BRANCH   1  14
ATOM     14  C   UNK     1     -34.722  22.783   5.510  0.00  0.00    +0.020 C 
BRANCH  14  15
ATOM     15  C   UNK     1     -35.179  24.214   5.824  0.00  0.00    +0.000 C 
BRANCH  15  16
ATOM     16  C   UNK     1     -34.346  25.305   5.143  0.00  0.00    -0.011 C 
BRANCH  16  17
ATOM     17  C   UNK     1     -35.200  26.474   4.638  0.00  0.00    +0.036 C 
BRANCH  17  18
ATOM     18  N   UNK     1     -36.520  26.420   5.271  0.00  0.00    +0.389 N 
ATOM     19  H   UNK     1     -36.475  25.826   6.099  0.00  0.00    -0.088 HD
ATOM     20  H   UNK     1     -37.197  26.033   4.613  0.00  0.00    -0.088 HD
ATOM     21  H   UNK     1     -36.807  27.360   5.541  0.00  0.00    -0.088 HD
ENDBRANCH  17  18
BRANCH  17  23
ATOM     22  O   UNK     1     -35.018  25.493   2.415  0.00  0.00    -0.253 OA
ATOM     23  C   UNK     1     -35.416  26.397   3.136  0.00  0.00    +0.293 C 
BRANCH  23  24
ATOM     24  O   UNK     1     -36.092  27.475   2.658  0.00  0.00    -0.482 OA
ATOM     25  H   UNK     1     -36.165  27.611   1.734  0.00  0.00    +0.295 HD
ENDBRANCH  23  24
ENDBRANCH  17  23
ENDBRANCH  16  17
ENDBRANCH  15  16
ENDBRANCH  14  15
ENDBRANCH   1  14
TORSDOF 9
ENDMDL
MODEL 7
REMARK VINA RESULT:      -5.0      3.794      8.471
REMARK  Name = 196093
REMARK  9 active torsions:
REMARK  status: ('A' for Active; 'I' for Inactive)
REMARK    1  A    between atoms: C_1  and  N_2
REMARK    2  A    between atoms: C_1  and  C_14
REMARK    3  A    between atoms: N_2  and  C_11
REMARK    4  A    between atoms: C_14  and  C_15
REMARK    5  A    between atoms: C_15  and  C_16
REMARK    6  A    between atoms: C_16  and  C_17
REMARK    7  A    between atoms: C_17  and  N_18
REMARK    8  A    between atoms: C_17  and  C_23
REMARK    9  A    between atoms: C_23  and  O_24
REMARK                            x       y       z     vdW  Elec       q    Type
REMARK                         _______ _______ _______ _____ _____    ______ ____
ROOT
ATOM      1  C   UNK     1     -33.111  27.121   5.263  0.00  0.00    +0.073 C 
ENDROOT
BRANCH   1   2
ATOM      2  N   UNK     1     -32.455  28.080   6.121  0.00  0.00    -0.354 NA
ATOM      3  H   UNK     1     -32.977  28.513   6.834  0.00  0.00    +0.128 HD
ATOM      4  H   UNK     1     -31.970  27.555   6.799  0.00  0.00    +0.128 HD
BRANCH   2  11
ATOM      5  O   UNK     1     -30.191  27.660   6.300  0.00  0.00    -0.254 OA
ATOM      6  O   UNK     1     -33.066  30.621   5.003  0.00  0.00    -0.252 OA
ATOM      7  N   UNK     1     -30.901  29.694   5.420  0.00  0.00    -0.198 N 
ATOM      8  N   UNK     1     -31.097  31.791   4.537  0.00  0.00    -0.287 N 
ATOM      9  C   UNK     1     -29.552  30.151   5.124  0.00  0.00    +0.125 C 
ATOM     10  C   UNK     1     -29.689  31.613   4.753  0.00  0.00    +0.113 C 
ATOM     11  C   UNK     1     -31.113  28.412   5.977  0.00  0.00    +0.295 C 
ATOM     12  C   UNK     1     -31.844  30.692   4.990  0.00  0.00    +0.311 C 
ATOM     13  H   UNK     1     -31.492  32.592   4.120  0.00  0.00    +0.151 HD
ENDBRANCH   2  11
ENDBRANCH   1   2
BRANCH   1  14
ATOM     14  C   UNK     1     -34.039  26.178   6.021  0.00  0.00    +0.020 C 
BRANCH  14  15
ATOM     15  C   UNK     1     -34.977  25.345   5.136  0.00  0.00    +0.000 C 
BRANCH  15  16
ATOM     16  C   UNK     1     -34.365  24.035   4.630  0.00  0.00    -0.011 C 
BRANCH  16  17
ATOM     17  C   UNK     1     -35.399  22.910   4.498  0.00  0.00    +0.036 C 
BRANCH  17  18
ATOM     18  N   UNK     1     -36.746  23.486   4.508  0.00  0.00    +0.389 N 
ATOM     19  H   UNK     1     -36.901  23.972   5.392  0.00  0.00    -0.088 HD
ATOM     20  H   UNK     1     -37.436  22.742   4.405  0.00  0.00    -0.088 HD
ATOM     21  H   UNK     1     -36.840  24.146   3.736  0.00  0.00    -0.088 HD
ENDBRANCH  17  18
BRANCH  17  23
ATOM     22  O   UNK     1     -35.378  22.251   6.844  0.00  0.00    -0.253 OA
ATOM     23  C   UNK     1     -35.316  21.938   5.662  0.00  0.00    +0.293 C 
BRANCH  23  24
ATOM     24  O   UNK     1     -35.136  20.656   5.250  0.00  0.00    -0.482 OA
ATOM     25  H   UNK     1     -34.996  19.976   5.879  0.00  0.00    +0.295 HD
ENDBRANCH  23  24
ENDBRANCH  17  23
ENDBRANCH  16  17
ENDBRANCH  15  16
ENDBRANCH  14  15
ENDBRANCH   1  14
TORSDOF 9
ENDMDL
MODEL 8
REMARK VINA RESULT:      -5.0      3.263      7.369
REMARK  Name = 196093
REMARK  9 active torsions:
REMARK  status: ('A' for Active; 'I' for Inactive)
REMARK    1  A    between atoms: C_1  and  N_2
REMARK    2  A    between atoms: C_1  and  C_14
REMARK    3  A    between atoms: N_2  and  C_11
REMARK    4  A    between atoms: C_14  and  C_15
REMARK    5  A    between atoms: C_15  and  C_16
REMARK    6  A    between atoms: C_16  and  C_17
REMARK    7  A    between atoms: C_17  and  N_18
REMARK    8  A    between atoms: C_17  and  C_23
REMARK    9  A    between atoms: C_23  and  O_24
REMARK                            x       y       z     vdW  Elec       q    Type
REMARK                         _______ _______ _______ _____ _____    ______ ____
ROOT
ATOM      1  C   UNK     1     -34.168  27.037   2.681  0.00  0.00    +0.073 C 
ENDROOT
BRANCH   1   2
ATOM      2  N   UNK     1     -33.964  27.932   3.796  0.00  0.00    -0.354 NA
ATOM      3  H   UNK     1     -34.553  27.854   4.580  0.00  0.00    +0.128 HD
ATOM      4  H   UNK     1     -33.220  27.554   4.319  0.00  0.00    +0.128 HD
BRANCH   2  11
ATOM      5  O   UNK     1     -32.808  29.715   2.889  0.00  0.00    -0.254 OA
ATOM      6  O   UNK     1     -32.975  27.089   6.324  0.00  0.00    -0.252 OA
ATOM      7  N   UNK     1     -32.147  28.865   4.953  0.00  0.00    -0.198 N 
ATOM      8  N   UNK     1     -31.128  28.382   6.939  0.00  0.00    -0.287 N 
ATOM      9  C   UNK     1     -31.113  29.870   5.147  0.00  0.00    +0.125 C 
ATOM     10  C   UNK     1     -30.312  29.404   6.345  0.00  0.00    +0.113 C 
ATOM     11  C   UNK     1     -32.966  28.899   3.801  0.00  0.00    +0.295 C 
ATOM     12  C   UNK     1     -32.184  27.997   6.098  0.00  0.00    +0.311 C 
ATOM     13  H   UNK     1     -30.964  27.998   7.831  0.00  0.00    +0.151 HD
ENDBRANCH   2  11
ENDBRANCH   1   2
BRANCH   1  14
ATOM     14  C   UNK     1     -33.453  25.700   2.849  0.00  0.00    +0.020 C 
BRANCH  14  15
ATOM     15  C   UNK     1     -34.350  24.543   3.310  0.00  0.00    +0.000 C 
BRANCH  15  16
ATOM     16  C   UNK     1     -34.304  24.275   4.818  0.00  0.00    -0.011 C 
BRANCH  16  17
ATOM     17  C   UNK     1     -35.700  24.120   5.435  0.00  0.00    +0.036 C 
BRANCH  17  18
ATOM     18  N   UNK     1     -36.244  22.807   5.081  0.00  0.00    +0.389 N 
ATOM     19  H   UNK     1     -35.756  22.083   5.610  0.00  0.00    -0.088 HD
ATOM     20  H   UNK     1     -36.115  22.643   4.083  0.00  0.00    -0.088 HD
ATOM     21  H   UNK     1     -37.239  22.778   5.305  0.00  0.00    -0.088 HD
ENDBRANCH  17  18
BRANCH  17  23
ATOM     22  O   UNK     1     -37.615  24.934   4.166  0.00  0.00    -0.253 OA
ATOM     23  C   UNK     1     -36.663  25.166   4.900  0.00  0.00    +0.293 C 
BRANCH  23  24
ATOM     24  O   UNK     1     -36.339  26.421   5.308  0.00  0.00    -0.482 OA
ATOM     25  H   UNK     1     -36.437  27.145   4.721  0.00  0.00    +0.295 HD
ENDBRANCH  23  24
ENDBRANCH  17  23
ENDBRANCH  16  17
ENDBRANCH  15  16
ENDBRANCH  14  15
ENDBRANCH   1  14
TORSDOF 9
ENDMDL
MODEL 9
REMARK VINA RESULT:      -4.7      2.759      5.065
REMARK  Name = 196093
REMARK  9 active torsions:
REMARK  status: ('A' for Active; 'I' for Inactive)
REMARK    1  A    between atoms: C_1  and  N_2
REMARK    2  A    between atoms: C_1  and  C_14
REMARK    3  A    between atoms: N_2  and  C_11
REMARK    4  A    between atoms: C_14  and  C_15
REMARK    5  A    between atoms: C_15  and  C_16
REMARK    6  A    between atoms: C_16  and  C_17
REMARK    7  A    between atoms: C_17  and  N_18
REMARK    8  A    between atoms: C_17  and  C_23
REMARK    9  A    between atoms: C_23  and  O_24
REMARK                            x       y       z     vdW  Elec       q    Type
REMARK                         _______ _______ _______ _____ _____    ______ ____
ROOT
ATOM      1  C   UNK     1     -35.001  27.666   2.886  0.00  0.00    +0.073 C 
ENDROOT
BRANCH   1   2
ATOM      2  N   UNK     1     -35.601  27.169   4.103  0.00  0.00    -0.354 NA
ATOM      3  H   UNK     1     -36.490  27.502   4.362  0.00  0.00    +0.128 HD
ATOM      4  H   UNK     1     -35.997  26.296   3.877  0.00  0.00    +0.128 HD
BRANCH   2  11
ATOM      5  O   UNK     1     -34.022  26.518   5.657  0.00  0.00    -0.254 OA
ATOM      6  O   UNK     1     -37.314  25.065   3.256  0.00  0.00    -0.252 OA
ATOM      7  N   UNK     1     -35.516  24.938   4.827  0.00  0.00    -0.198 N 
ATOM      8  N   UNK     1     -36.713  23.065   4.305  0.00  0.00    -0.287 N 
ATOM      9  C   UNK     1     -35.020  23.873   5.685  0.00  0.00    +0.125 C 
ATOM     10  C   UNK     1     -35.665  22.602   5.171  0.00  0.00    +0.113 C 
ATOM     11  C   UNK     1     -34.969  26.239   4.918  0.00  0.00    +0.295 C 
ATOM     12  C   UNK     1     -36.603  24.438   4.031  0.00  0.00    +0.311 C 
ATOM     13  H   UNK     1     -37.425  22.486   3.946  0.00  0.00    +0.151 HD
ENDBRANCH   2  11
ENDBRANCH   1   2
BRANCH   1  14
ATOM     14  C   UNK     1     -34.737  29.168   2.919  0.00  0.00    +0.020 C 
BRANCH  14  15
ATOM     15  C   UNK     1     -33.255  29.562   2.951  0.00  0.00    +0.000 C 
BRANCH  15  16
ATOM     16  C   UNK     1     -32.740  29.965   4.337  0.00  0.00    -0.011 C 
BRANCH  16  17
ATOM     17  C   UNK     1     -31.544  29.121   4.793  0.00  0.00    +0.036 C 
BRANCH  17  18
ATOM     18  N   UNK     1     -31.603  27.807   4.147  0.00  0.00    +0.389 N 
ATOM     19  H   UNK     1     -30.712  27.614   3.689  0.00  0.00    -0.088 HD
ATOM     20  H   UNK     1     -32.350  27.803   3.453  0.00  0.00    -0.088 HD
ATOM     21  H   UNK     1     -31.787  27.090   4.849  0.00  0.00    -0.088 HD
ENDBRANCH  17  18
BRANCH  17  23
ATOM     22  O   UNK     1     -31.706  29.761   7.139  0.00  0.00    -0.253 OA
ATOM     23  C   UNK     1     -31.569  28.887   6.294  0.00  0.00    +0.293 C 
BRANCH  23  24
ATOM     24  O   UNK     1     -31.394  27.578   6.613  0.00  0.00    -0.482 OA
ATOM     25  H   UNK     1     -30.531  27.239   6.748  0.00  0.00    +0.295 HD
ENDBRANCH  23  24
ENDBRANCH  17  23
ENDBRANCH  16  17
ENDBRANCH  15  16
ENDBRANCH  14  15
ENDBRANCH   1  14
TORSDOF 9
ENDMDL
