MODEL 1
REMARK VINA RESULT:      -5.6      0.000      0.000
REMARK  Name = 20058
REMARK  8 active torsions:
REMARK  status: ('A' for Active; 'I' for Inactive)
REMARK    1  A    between atoms: C_2  and  O_15
REMARK    2  A    between atoms: C_3  and  O_19
REMARK    3  A    between atoms: C_4  and  C_23
REMARK    4  A    between atoms: C_5  and  N_8
REMARK    5  A    between atoms: O_15  and  C_17
REMARK    6  A    between atoms: O_19  and  C_21
REMARK    7  A    between atoms: C_23  and  O_24
REMARK    8  A    between atoms: O_24  and  C_26
REMARK                            x       y       z     vdW  Elec       q    Type
REMARK                         _______ _______ _______ _____ _____    ______ ____
ROOT
ATOM      1  O   UNL     1     -38.808  23.832   3.016  0.00  0.00    -0.329 OA
ATOM      2  C   UNL     1     -36.526  23.942   3.646  0.00  0.00    +0.243 C 
ATOM      3  C   UNL     1     -36.672  22.929   2.529  0.00  0.00    +0.258 C 
ATOM      4  C   UNL     1     -37.810  24.751   3.511  0.00  0.00    +0.204 C 
ATOM      5  C   UNL     1     -38.161  22.630   2.565  0.00  0.00    +0.244 C 
ENDROOT
BRANCH   5   8
ATOM      6  O   UNL     1     -40.463  21.046   2.155  0.00  0.00    -0.252 OA
ATOM      7  O   UNL     1     -40.065  21.334  -2.429  0.00  0.00    -0.270 OA
ATOM      8  N   UNL     1     -38.681  22.277   1.276  0.00  0.00    -0.216 N 
ATOM      9  N   UNL     1     -40.262  21.190  -0.128  0.00  0.00    -0.236 N 
ATOM     10  C   UNL     1     -39.842  21.475   1.179  0.00  0.00    +0.315 C 
ATOM     11  C   UNL     1     -38.043  22.722   0.124  0.00  0.00    +0.076 C 
ATOM     12  C   UNL     1     -38.454  22.442  -1.115  0.00  0.00    +0.074 C 
ATOM     13  C   UNL     1     -39.660  21.610  -1.303  0.00  0.00    +0.254 C 
ATOM     14  H   UNL     1     -41.069  20.633  -0.220  0.00  0.00    +0.159 HD
ENDBRANCH   5   8
BRANCH   2  15
ATOM     15  O   UNL     1     -36.552  23.286   4.914  0.00  0.00    -0.446 OA
BRANCH  15  17
ATOM     16  O   UNL     1     -34.684  24.368   5.736  0.00  0.00    -0.250 OA
ATOM     17  C   UNL     1     -35.407  23.385   5.651  0.00  0.00    +0.318 C 
ATOM     18  C   UNL     1     -35.150  22.091   6.362  0.00  0.00    +0.121 C 
ENDBRANCH  15  17
ENDBRANCH   2  15
BRANCH   3  19
ATOM     19  O   UNL     1     -35.882  21.778   2.742  0.00  0.00    -0.444 OA
BRANCH  19  21
ATOM     20  O   UNL     1     -34.502  22.262   0.953  0.00  0.00    -0.250 OA
ATOM     21  C   UNL     1     -34.983  21.471   1.754  0.00  0.00    +0.318 C 
ATOM     22  C   UNL     1     -34.659  20.008   1.785  0.00  0.00    +0.121 C 
ENDBRANCH  19  21
ENDBRANCH   3  19
BRANCH   4  23
ATOM     23  C   UNL     1     -37.693  25.902   2.521  0.00  0.00    +0.242 C 
BRANCH  23  24
ATOM     24  O   UNL     1     -38.977  26.471   2.333  0.00  0.00    -0.446 OA
BRANCH  24  26
ATOM     25  O   UNL     1     -38.976  27.859   0.487  0.00  0.00    -0.250 OA
ATOM     26  C   UNL     1     -39.297  26.820   1.048  0.00  0.00    +0.318 C 
ATOM     27  C   UNL     1     -40.111  25.737   0.407  0.00  0.00    +0.121 C 
ENDBRANCH  24  26
ENDBRANCH  23  24
ENDBRANCH   4  23
TORSDOF 8
ENDMDL
MODEL 2
REMARK VINA RESULT:      -5.6      2.006      3.970
REMARK  Name = 20058
REMARK  8 active torsions:
REMARK  status: ('A' for Active; 'I' for Inactive)
REMARK    1  A    between atoms: C_2  and  O_15
REMARK    2  A    between atoms: C_3  and  O_19
REMARK    3  A    between atoms: C_4  and  C_23
REMARK    4  A    between atoms: C_5  and  N_8
REMARK    5  A    between atoms: O_15  and  C_17
REMARK    6  A    between atoms: O_19  and  C_21
REMARK    7  A    between atoms: C_23  and  O_24
REMARK    8  A    between atoms: O_24  and  C_26
REMARK                            x       y       z     vdW  Elec       q    Type
REMARK                         _______ _______ _______ _____ _____    ______ ____
ROOT
ATOM      1  O   UNL     1     -36.792  24.994   1.558  0.00  0.00    -0.329 OA
ATOM      2  C   UNL     1     -34.988  24.382   2.967  0.00  0.00    +0.243 C 
ATOM      3  C   UNL     1     -36.102  23.371   3.140  0.00  0.00    +0.258 C 
ATOM      4  C   UNL     1     -35.351  25.030   1.636  0.00  0.00    +0.204 C 
ATOM      5  C   UNL     1     -37.299  24.121   2.581  0.00  0.00    +0.244 C 
ENDROOT
BRANCH   5   8
ATOM      6  O   UNL     1     -40.092  24.499   2.760  0.00  0.00    -0.252 OA
ATOM      7  O   UNL     1     -40.949  20.683   0.320  0.00  0.00    -0.270 OA
ATOM      8  N   UNL     1     -38.274  23.242   2.001  0.00  0.00    -0.216 N 
ATOM      9  N   UNL     1     -40.517  22.598   1.546  0.00  0.00    -0.236 N 
ATOM     10  C   UNL     1     -39.653  23.521   2.150  0.00  0.00    +0.315 C 
ATOM     11  C   UNL     1     -37.863  22.118   1.295  0.00  0.00    +0.076 C 
ATOM     12  C   UNL     1     -38.698  21.246   0.725  0.00  0.00    +0.074 C 
ATOM     13  C   UNL     1     -40.154  21.465   0.834  0.00  0.00    +0.254 C 
ATOM     14  H   UNL     1     -41.482  22.772   1.637  0.00  0.00    +0.159 HD
ENDBRANCH   5   8
BRANCH   2  15
ATOM     15  O   UNL     1     -35.068  25.385   3.980  0.00  0.00    -0.446 OA
BRANCH  15  17
ATOM     16  O   UNL     1     -32.805  25.848   3.945  0.00  0.00    -0.250 OA
ATOM     17  C   UNL     1     -33.877  25.764   4.529  0.00  0.00    +0.318 C 
ATOM     18  C   UNL     1     -34.066  26.071   5.983  0.00  0.00    +0.121 C 
ENDBRANCH  15  17
ENDBRANCH   2  15
BRANCH   3  19
ATOM     19  O   UNL     1     -36.280  22.996   4.491  0.00  0.00    -0.444 OA
BRANCH  19  21
ATOM     20  O   UNL     1     -35.213  20.960   4.252  0.00  0.00    -0.250 OA
ATOM     21  C   UNL     1     -35.533  21.931   4.925  0.00  0.00    +0.318 C 
ATOM     22  C   UNL     1     -35.152  22.117   6.362  0.00  0.00    +0.121 C 
ENDBRANCH  19  21
ENDBRANCH   3  19
BRANCH   4  23
ATOM     23  C   UNL     1     -34.792  24.283   0.433  0.00  0.00    +0.242 C 
BRANCH  23  24
ATOM     24  O   UNL     1     -33.691  23.499   0.857  0.00  0.00    -0.446 OA
BRANCH  24  26
ATOM     25  O   UNL     1     -34.419  21.321   0.603  0.00  0.00    -0.250 OA
ATOM     26  C   UNL     1     -33.632  22.225   0.357  0.00  0.00    +0.318 C 
ATOM     27  C   UNL     1     -32.448  22.083  -0.551  0.00  0.00    +0.121 C 
ENDBRANCH  24  26
ENDBRANCH  23  24
ENDBRANCH   4  23
TORSDOF 8
ENDMDL
MODEL 3
REMARK VINA RESULT:      -5.5      1.590      2.177
REMARK  Name = 20058
REMARK  8 active torsions:
REMARK  status: ('A' for Active; 'I' for Inactive)
REMARK    1  A    between atoms: C_2  and  O_15
REMARK    2  A    between atoms: C_3  and  O_19
REMARK    3  A    between atoms: C_4  and  C_23
REMARK    4  A    between atoms: C_5  and  N_8
REMARK    5  A    between atoms: O_15  and  C_17
REMARK    6  A    between atoms: O_19  and  C_21
REMARK    7  A    between atoms: C_23  and  O_24
REMARK    8  A    between atoms: O_24  and  C_26
REMARK                            x       y       z     vdW  Elec       q    Type
REMARK                         _______ _______ _______ _____ _____    ______ ____
ROOT
ATOM      1  O   UNL     1     -38.597  24.489   2.987  0.00  0.00    -0.329 OA
ATOM      2  C   UNL     1     -36.380  23.824   3.493  0.00  0.00    +0.243 C 
ATOM      3  C   UNL     1     -36.954  22.860   2.476  0.00  0.00    +0.258 C 
ATOM      4  C   UNL     1     -37.306  25.025   3.352  0.00  0.00    +0.204 C 
ATOM      5  C   UNL     1     -38.446  23.111   2.610  0.00  0.00    +0.244 C 
ENDROOT
BRANCH   5   8
ATOM      6  O   UNL     1     -40.379  21.085   2.234  0.00  0.00    -0.252 OA
ATOM      7  O   UNL     1     -41.094  22.328  -2.147  0.00  0.00    -0.270 OA
ATOM      8  N   UNL     1     -39.153  22.883   1.382  0.00  0.00    -0.216 N 
ATOM      9  N   UNL     1     -40.732  21.705   0.052  0.00  0.00    -0.236 N 
ATOM     10  C   UNL     1     -40.103  21.838   1.297  0.00  0.00    +0.315 C 
ATOM     11  C   UNL     1     -38.903  23.689   0.278  0.00  0.00    +0.076 C 
ATOM     12  C   UNL     1     -39.511  23.550  -0.903  0.00  0.00    +0.074 C 
ATOM     13  C   UNL     1     -40.516  22.483  -1.074  0.00  0.00    +0.254 C 
ATOM     14  H   UNL     1     -41.398  20.984  -0.030  0.00  0.00    +0.159 HD
ENDBRANCH   5   8
BRANCH   2  15
ATOM     15  O   UNL     1     -36.537  23.301   4.813  0.00  0.00    -0.446 OA
BRANCH  15  17
ATOM     16  O   UNL     1     -34.669  24.303   5.731  0.00  0.00    -0.250 OA
ATOM     17  C   UNL     1     -35.423  23.348   5.601  0.00  0.00    +0.318 C 
ATOM     18  C   UNL     1     -35.246  22.036   6.304  0.00  0.00    +0.121 C 
ENDBRANCH  15  17
ENDBRANCH   2  15
BRANCH   3  19
ATOM     19  O   UNL     1     -36.601  21.520   2.749  0.00  0.00    -0.444 OA
BRANCH  19  21
ATOM     20  O   UNL     1     -36.732  20.642   0.615  0.00  0.00    -0.250 OA
ATOM     21  C   UNL     1     -36.150  20.785   1.683  0.00  0.00    +0.318 C 
ATOM     22  C   UNL     1     -34.823  20.168   2.004  0.00  0.00    +0.121 C 
ENDBRANCH  19  21
ENDBRANCH   3  19
BRANCH   4  23
ATOM     23  C   UNL     1     -36.870  25.995   2.263  0.00  0.00    +0.242 C 
BRANCH  23  24
ATOM     24  O   UNL     1     -35.477  26.224   2.391  0.00  0.00    -0.446 OA
BRANCH  24  26
ATOM     25  O   UNL     1     -34.726  27.351   4.262  0.00  0.00    -0.250 OA
ATOM     26  C   UNL     1     -35.114  27.337   3.102  0.00  0.00    +0.318 C 
ATOM     27  C   UNL     1     -35.262  28.562   2.250  0.00  0.00    +0.121 C 
ENDBRANCH  24  26
ENDBRANCH  23  24
ENDBRANCH   4  23
TORSDOF 8
ENDMDL
MODEL 4
REMARK VINA RESULT:      -5.5      2.902      5.781
REMARK  Name = 20058
REMARK  8 active torsions:
REMARK  status: ('A' for Active; 'I' for Inactive)
REMARK    1  A    between atoms: C_2  and  O_15
REMARK    2  A    between atoms: C_3  and  O_19
REMARK    3  A    between atoms: C_4  and  C_23
REMARK    4  A    between atoms: C_5  and  N_8
REMARK    5  A    between atoms: O_15  and  C_17
REMARK    6  A    between atoms: O_19  and  C_21
REMARK    7  A    between atoms: C_23  and  O_24
REMARK    8  A    between atoms: O_24  and  C_26
REMARK                            x       y       z     vdW  Elec       q    Type
REMARK                         _______ _______ _______ _____ _____    ______ ____
ROOT
ATOM      1  O   UNL     1     -35.272  24.420   0.749  0.00  0.00    -0.329 OA
ATOM      2  C   UNL     1     -36.002  22.622   2.108  0.00  0.00    +0.243 C 
ATOM      3  C   UNL     1     -35.581  23.766   3.005  0.00  0.00    +0.258 C 
ATOM      4  C   UNL     1     -36.213  23.325   0.773  0.00  0.00    +0.204 C 
ATOM      5  C   UNL     1     -34.732  24.608   2.068  0.00  0.00    +0.244 C 
ENDROOT
BRANCH   5   8
ATOM      6  O   UNL     1     -33.009  25.864   3.920  0.00  0.00    -0.252 OA
ATOM      7  O   UNL     1     -34.985  29.974   3.246  0.00  0.00    -0.270 OA
ATOM      8  N   UNL     1     -34.774  26.004   2.394  0.00  0.00    -0.216 N 
ATOM      9  N   UNL     1     -33.996  27.910   3.583  0.00  0.00    -0.236 N 
ATOM     10  C   UNL     1     -33.865  26.536   3.339  0.00  0.00    +0.315 C 
ATOM     11  C   UNL     1     -35.707  26.832   1.783  0.00  0.00    +0.076 C 
ATOM     12  C   UNL     1     -35.820  28.140   2.026  0.00  0.00    +0.074 C 
ATOM     13  C   UNL     1     -34.909  28.773   3.000  0.00  0.00    +0.254 C 
ATOM     14  H   UNL     1     -33.373  28.302   4.238  0.00  0.00    +0.159 HD
ENDBRANCH   5   8
BRANCH   2  15
ATOM     15  O   UNL     1     -34.927  21.695   1.950  0.00  0.00    -0.446 OA
BRANCH  15  17
ATOM     16  O   UNL     1     -36.332  19.932   2.454  0.00  0.00    -0.250 OA
ATOM     17  C   UNL     1     -35.267  20.377   2.047  0.00  0.00    +0.318 C 
ATOM     18  C   UNL     1     -34.129  19.525   1.571  0.00  0.00    +0.121 C 
ENDBRANCH  15  17
ENDBRANCH   2  15
BRANCH   3  19
ATOM     19  O   UNL     1     -34.862  23.323   4.137  0.00  0.00    -0.444 OA
BRANCH  19  21
ATOM     20  O   UNL     1     -36.224  24.372   5.681  0.00  0.00    -0.250 OA
ATOM     21  C   UNL     1     -35.501  23.443   5.344  0.00  0.00    +0.318 C 
ATOM     22  C   UNL     1     -35.193  22.262   6.214  0.00  0.00    +0.121 C 
ENDBRANCH  19  21
ENDBRANCH   3  19
BRANCH   4  23
ATOM     23  C   UNL     1     -37.614  23.900   0.612  0.00  0.00    +0.242 C 
BRANCH  23  24
ATOM     24  O   UNL     1     -38.534  23.038   1.259  0.00  0.00    -0.446 OA
BRANCH  24  26
ATOM     25  O   UNL     1     -40.790  23.508   1.419  0.00  0.00    -0.250 OA
ATOM     26  C   UNL     1     -39.637  23.639   1.806  0.00  0.00    +0.318 C 
ATOM     27  C   UNL     1     -39.233  24.498   2.966  0.00  0.00    +0.121 C 
ENDBRANCH  24  26
ENDBRANCH  23  24
ENDBRANCH   4  23
TORSDOF 8
ENDMDL
MODEL 5
REMARK VINA RESULT:      -5.5      2.516      3.595
REMARK  Name = 20058
REMARK  8 active torsions:
REMARK  status: ('A' for Active; 'I' for Inactive)
REMARK    1  A    between atoms: C_2  and  O_15
REMARK    2  A    between atoms: C_3  and  O_19
REMARK    3  A    between atoms: C_4  and  C_23
REMARK    4  A    between atoms: C_5  and  N_8
REMARK    5  A    between atoms: O_15  and  C_17
REMARK    6  A    between atoms: O_19  and  C_21
REMARK    7  A    between atoms: C_23  and  O_24
REMARK    8  A    between atoms: O_24  and  C_26
REMARK                            x       y       z     vdW  Elec       q    Type
REMARK                         _______ _______ _______ _____ _____    ______ ____
ROOT
ATOM      1  O   UNL     1     -37.188  24.886   1.638  0.00  0.00    -0.329 OA
ATOM      2  C   UNL     1     -35.452  24.601   3.225  0.00  0.00    +0.243 C 
ATOM      3  C   UNL     1     -36.285  23.337   3.186  0.00  0.00    +0.258 C 
ATOM      4  C   UNL     1     -35.820  25.265   1.904  0.00  0.00    +0.204 C 
ATOM      5  C   UNL     1     -37.564  23.821   2.527  0.00  0.00    +0.244 C 
ENDROOT
BRANCH   5   8
ATOM      6  O   UNL     1     -40.365  23.510   2.340  0.00  0.00    -0.252 OA
ATOM      7  O   UNL     1     -39.955  19.829  -0.404  0.00  0.00    -0.270 OA
ATOM      8  N   UNL     1     -38.215  22.791   1.771  0.00  0.00    -0.216 N 
ATOM      9  N   UNL     1     -40.158  21.676   0.974  0.00  0.00    -0.236 N 
ATOM     10  C   UNL     1     -39.628  22.721   1.743  0.00  0.00    +0.315 C 
ATOM     11  C   UNL     1     -37.458  21.863   1.066  0.00  0.00    +0.076 C 
ATOM     12  C   UNL     1     -37.977  20.871   0.338  0.00  0.00    +0.074 C 
ATOM     13  C   UNL     1     -39.445  20.728   0.257  0.00  0.00    +0.254 C 
ATOM     14  H   UNL     1     -41.140  21.608   0.940  0.00  0.00    +0.159 HD
ENDBRANCH   5   8
BRANCH   2  15
ATOM     15  O   UNL     1     -35.893  25.452   4.282  0.00  0.00    -0.446 OA
BRANCH  15  17
ATOM     16  O   UNL     1     -34.850  27.510   4.163  0.00  0.00    -0.250 OA
ATOM     17  C   UNL     1     -35.004  26.410   4.677  0.00  0.00    +0.318 C 
ATOM     18  C   UNL     1     -34.222  25.919   5.857  0.00  0.00    +0.121 C 
ENDBRANCH  15  17
ENDBRANCH   2  15
BRANCH   3  19
ATOM     19  O   UNL     1     -36.506  22.802   4.475  0.00  0.00    -0.444 OA
BRANCH  19  21
ATOM     20  O   UNL     1     -35.212  20.903   4.237  0.00  0.00    -0.250 OA
ATOM     21  C   UNL     1     -35.611  21.853   4.897  0.00  0.00    +0.318 C 
ATOM     22  C   UNL     1     -35.178  22.139   6.303  0.00  0.00    +0.121 C 
ENDBRANCH  19  21
ENDBRANCH   3  19
BRANCH   4  23
ATOM     23  C   UNL     1     -34.963  24.796   0.736  0.00  0.00    +0.242 C 
BRANCH  23  24
ATOM     24  O   UNL     1     -33.614  24.719   1.166  0.00  0.00    -0.446 OA
BRANCH  24  26
ATOM     25  O   UNL     1     -32.829  26.535  -0.028  0.00  0.00    -0.250 OA
ATOM     26  C   UNL     1     -32.862  25.849   0.985  0.00  0.00    +0.318 C 
ATOM     27  C   UNL     1     -32.063  26.138   2.221  0.00  0.00    +0.121 C 
ENDBRANCH  24  26
ENDBRANCH  23  24
ENDBRANCH   4  23
TORSDOF 8
ENDMDL
MODEL 6
REMARK VINA RESULT:      -5.5      2.012      5.092
REMARK  Name = 20058
REMARK  8 active torsions:
REMARK  status: ('A' for Active; 'I' for Inactive)
REMARK    1  A    between atoms: C_2  and  O_15
REMARK    2  A    between atoms: C_3  and  O_19
REMARK    3  A    between atoms: C_4  and  C_23
REMARK    4  A    between atoms: C_5  and  N_8
REMARK    5  A    between atoms: O_15  and  C_17
REMARK    6  A    between atoms: O_19  and  C_21
REMARK    7  A    between atoms: C_23  and  O_24
REMARK    8  A    between atoms: O_24  and  C_26
REMARK                            x       y       z     vdW  Elec       q    Type
REMARK                         _______ _______ _______ _____ _____    ______ ____
ROOT
ATOM      1  O   UNL     1     -36.905  22.649   0.574  0.00  0.00    -0.329 OA
ATOM      2  C   UNL     1     -35.729  21.091   1.916  0.00  0.00    +0.243 C 
ATOM      3  C   UNL     1     -36.195  22.233   2.795  0.00  0.00    +0.258 C 
ATOM      4  C   UNL     1     -36.635  21.236   0.700  0.00  0.00    +0.204 C 
ATOM      5  C   UNL     1     -36.487  23.318   1.774  0.00  0.00    +0.244 C 
ENDROOT
BRANCH   5   8
ATOM      6  O   UNL     1     -36.052  25.915   2.799  0.00  0.00    -0.252 OA
ATOM      7  O   UNL     1     -40.567  26.636   3.383  0.00  0.00    -0.270 OA
ATOM      8  N   UNL     1     -37.530  24.206   2.201  0.00  0.00    -0.216 N 
ATOM      9  N   UNL     1     -38.301  26.271   3.090  0.00  0.00    -0.236 N 
ATOM     10  C   UNL     1     -37.205  25.489   2.702  0.00  0.00    +0.315 C 
ATOM     11  C   UNL     1     -38.858  23.804   2.122  0.00  0.00    +0.076 C 
ATOM     12  C   UNL     1     -39.892  24.561   2.497  0.00  0.00    +0.074 C 
ATOM     13  C   UNL     1     -39.639  25.914   3.031  0.00  0.00    +0.254 C 
ATOM     14  H   UNL     1     -38.099  27.169   3.442  0.00  0.00    +0.159 HD
ENDBRANCH   5   8
BRANCH   2  15
ATOM     15  O   UNL     1     -34.384  21.310   1.491  0.00  0.00    -0.446 OA
BRANCH  15  17
ATOM     16  O   UNL     1     -33.753  19.090   1.576  0.00  0.00    -0.250 OA
ATOM     17  C   UNL     1     -33.713  20.201   1.065  0.00  0.00    +0.318 C 
ATOM     18  C   UNL     1     -32.898  20.538  -0.147  0.00  0.00    +0.121 C 
ENDBRANCH  15  17
ENDBRANCH   2  15
BRANCH   3  19
ATOM     19  O   UNL     1     -35.213  22.620   3.735  0.00  0.00    -0.444 OA
BRANCH  19  21
ATOM     20  O   UNL     1     -36.336  23.693   5.445  0.00  0.00    -0.250 OA
ATOM     21  C   UNL     1     -35.643  22.775   5.027  0.00  0.00    +0.318 C 
ATOM     22  C   UNL     1     -35.140  21.649   5.879  0.00  0.00    +0.121 C 
ENDBRANCH  19  21
ENDBRANCH   3  19
BRANCH   4  23
ATOM     23  C   UNL     1     -37.965  20.510   0.851  0.00  0.00    +0.242 C 
BRANCH  23  24
ATOM     24  O   UNL     1     -38.775  20.809  -0.272  0.00  0.00    -0.446 OA
BRANCH  24  26
ATOM     25  O   UNL     1     -40.668  20.917   1.048  0.00  0.00    -0.250 OA
ATOM     26  C   UNL     1     -40.079  21.132  -0.003  0.00  0.00    +0.318 C 
ATOM     27  C   UNL     1     -40.701  21.797  -1.194  0.00  0.00    +0.121 C 
ENDBRANCH  24  26
ENDBRANCH  23  24
ENDBRANCH   4  23
TORSDOF 8
ENDMDL
MODEL 7
REMARK VINA RESULT:      -5.5      2.402      3.257
REMARK  Name = 20058
REMARK  8 active torsions:
REMARK  status: ('A' for Active; 'I' for Inactive)
REMARK    1  A    between atoms: C_2  and  O_15
REMARK    2  A    between atoms: C_3  and  O_19
REMARK    3  A    between atoms: C_4  and  C_23
REMARK    4  A    between atoms: C_5  and  N_8
REMARK    5  A    between atoms: O_15  and  C_17
REMARK    6  A    between atoms: O_19  and  C_21
REMARK    7  A    between atoms: C_23  and  O_24
REMARK    8  A    between atoms: O_24  and  C_26
REMARK                            x       y       z     vdW  Elec       q    Type
REMARK                         _______ _______ _______ _____ _____    ______ ____
ROOT
ATOM      1  O   UNL     1     -36.931  23.386   4.003  0.00  0.00    -0.329 OA
ATOM      2  C   UNL     1     -35.759  25.350   3.383  0.00  0.00    +0.243 C 
ATOM      3  C   UNL     1     -35.449  24.263   2.376  0.00  0.00    +0.258 C 
ATOM      4  C   UNL     1     -37.034  24.826   4.034  0.00  0.00    +0.204 C 
ATOM      5  C   UNL     1     -35.854  23.008   3.129  0.00  0.00    +0.244 C 
ENDROOT
BRANCH   5   8
ATOM      6  O   UNL     1     -35.265  20.268   3.475  0.00  0.00    -0.252 OA
ATOM      7  O   UNL     1     -37.649  19.093  -0.291  0.00  0.00    -0.270 OA
ATOM      8  N   UNL     1     -36.309  21.966   2.255  0.00  0.00    -0.216 N 
ATOM      9  N   UNL     1     -36.451  19.685   1.598  0.00  0.00    -0.236 N 
ATOM     10  C   UNL     1     -35.955  20.621   2.516  0.00  0.00    +0.315 C 
ATOM     11  C   UNL     1     -37.094  22.278   1.152  0.00  0.00    +0.076 C 
ATOM     12  C   UNL     1     -37.560  21.375   0.285  0.00  0.00    +0.074 C 
ATOM     13  C   UNL     1     -37.236  19.949   0.487  0.00  0.00    +0.254 C 
ATOM     14  H   UNL     1     -36.218  18.742   1.761  0.00  0.00    +0.159 HD
ENDBRANCH   5   8
BRANCH   2  15
ATOM     15  O   UNL     1     -34.743  25.400   4.385  0.00  0.00    -0.446 OA
BRANCH  15  17
ATOM     16  O   UNL     1     -34.406  27.652   3.994  0.00  0.00    -0.250 OA
ATOM     17  C   UNL     1     -34.262  26.645   4.673  0.00  0.00    +0.318 C 
ATOM     18  C   UNL     1     -33.512  26.609   5.971  0.00  0.00    +0.121 C 
ENDBRANCH  15  17
ENDBRANCH   2  15
BRANCH   3  19
ATOM     19  O   UNL     1     -34.088  24.254   1.999  0.00  0.00    -0.444 OA
BRANCH  19  21
ATOM     20  O   UNL     1     -33.808  25.444   0.038  0.00  0.00    -0.250 OA
ATOM     21  C   UNL     1     -33.831  24.389   0.659  0.00  0.00    +0.318 C 
ATOM     22  C   UNL     1     -33.578  23.047   0.042  0.00  0.00    +0.121 C 
ENDBRANCH  19  21
ENDBRANCH   3  19
BRANCH   4  23
ATOM     23  C   UNL     1     -38.298  25.228   3.288  0.00  0.00    +0.242 C 
BRANCH  23  24
ATOM     24  O   UNL     1     -39.210  24.144   3.325  0.00  0.00    -0.446 OA
BRANCH  24  26
ATOM     25  O   UNL     1     -40.499  22.909   1.859  0.00  0.00    -0.250 OA
ATOM     26  C   UNL     1     -39.967  23.957   2.199  0.00  0.00    +0.318 C 
ATOM     27  C   UNL     1     -40.056  25.235   1.421  0.00  0.00    +0.121 C 
ENDBRANCH  24  26
ENDBRANCH  23  24
ENDBRANCH   4  23
TORSDOF 8
ENDMDL
MODEL 8
REMARK VINA RESULT:      -5.3      2.479      4.503
REMARK  Name = 20058
REMARK  8 active torsions:
REMARK  status: ('A' for Active; 'I' for Inactive)
REMARK    1  A    between atoms: C_2  and  O_15
REMARK    2  A    between atoms: C_3  and  O_19
REMARK    3  A    between atoms: C_4  and  C_23
REMARK    4  A    between atoms: C_5  and  N_8
REMARK    5  A    between atoms: O_15  and  C_17
REMARK    6  A    between atoms: O_19  and  C_21
REMARK    7  A    between atoms: C_23  and  O_24
REMARK    8  A    between atoms: O_24  and  C_26
REMARK                            x       y       z     vdW  Elec       q    Type
REMARK                         _______ _______ _______ _____ _____    ______ ____
ROOT
ATOM      1  O   UNL     1     -36.626  25.930   4.311  0.00  0.00    -0.329 OA
ATOM      2  C   UNL     1     -35.752  23.730   4.226  0.00  0.00    +0.243 C 
ATOM      3  C   UNL     1     -36.844  23.857   3.184  0.00  0.00    +0.258 C 
ATOM      4  C   UNL     1     -35.403  25.187   4.501  0.00  0.00    +0.204 C 
ATOM      5  C   UNL     1     -37.594  25.089   3.661  0.00  0.00    +0.244 C 
ENDROOT
BRANCH   5   8
ATOM      6  O   UNL     1     -40.374  25.220   3.178  0.00  0.00    -0.252 OA
ATOM      7  O   UNL     1     -39.788  27.915  -0.515  0.00  0.00    -0.270 OA
ATOM      8  N   UNL     1     -38.194  25.818   2.582  0.00  0.00    -0.216 N 
ATOM      9  N   UNL     1     -40.079  26.561   1.338  0.00  0.00    -0.236 N 
ATOM     10  C   UNL     1     -39.601  25.818   2.426  0.00  0.00    +0.315 C 
ATOM     11  C   UNL     1     -37.395  26.522   1.689  0.00  0.00    +0.076 C 
ATOM     12  C   UNL     1     -37.865  27.225   0.657  0.00  0.00    +0.074 C 
ATOM     13  C   UNL     1     -39.323  27.277   0.424  0.00  0.00    +0.254 C 
ATOM     14  H   UNL     1     -41.056  26.576   1.211  0.00  0.00    +0.159 HD
ENDBRANCH   5   8
BRANCH   2  15
ATOM     15  O   UNL     1     -36.279  23.170   5.429  0.00  0.00    -0.446 OA
BRANCH  15  17
ATOM     16  O   UNL     1     -35.227  22.138   7.207  0.00  0.00    -0.250 OA
ATOM     17  C   UNL     1     -35.508  22.210   6.019  0.00  0.00    +0.318 C 
ATOM     18  C   UNL     1     -35.042  21.230   4.985  0.00  0.00    +0.121 C 
ENDBRANCH  15  17
ENDBRANCH   2  15
BRANCH   3  19
ATOM     19  O   UNL     1     -37.665  22.710   3.125  0.00  0.00    -0.444 OA
BRANCH  19  21
ATOM     20  O   UNL     1     -38.614  22.675   1.019  0.00  0.00    -0.250 OA
ATOM     21  C   UNL     1     -37.888  22.189   1.877  0.00  0.00    +0.318 C 
ATOM     22  C   UNL     1     -37.108  20.922   1.697  0.00  0.00    +0.121 C 
ENDBRANCH  19  21
ENDBRANCH   3  19
BRANCH   4  23
ATOM     23  C   UNL     1     -34.356  25.744   3.546  0.00  0.00    +0.242 C 
BRANCH  23  24
ATOM     24  O   UNL     1     -33.180  26.034   4.282  0.00  0.00    -0.446 OA
BRANCH  24  26
ATOM     25  O   UNL     1     -33.351  28.334   4.404  0.00  0.00    -0.250 OA
ATOM     26  C   UNL     1     -33.155  27.243   4.923  0.00  0.00    +0.318 C 
ATOM     27  C   UNL     1     -32.848  27.049   6.378  0.00  0.00    +0.121 C 
ENDBRANCH  24  26
ENDBRANCH  23  24
ENDBRANCH   4  23
TORSDOF 8
ENDMDL
MODEL 9
REMARK VINA RESULT:      -5.3      3.066      6.011
REMARK  Name = 20058
REMARK  8 active torsions:
REMARK  status: ('A' for Active; 'I' for Inactive)
REMARK    1  A    between atoms: C_2  and  O_15
REMARK    2  A    between atoms: C_3  and  O_19
REMARK    3  A    between atoms: C_4  and  C_23
REMARK    4  A    between atoms: C_5  and  N_8
REMARK    5  A    between atoms: O_15  and  C_17
REMARK    6  A    between atoms: O_19  and  C_21
REMARK    7  A    between atoms: C_23  and  O_24
REMARK    8  A    between atoms: O_24  and  C_26
REMARK                            x       y       z     vdW  Elec       q    Type
REMARK                         _______ _______ _______ _____ _____    ______ ____
ROOT
ATOM      1  O   UNL     1     -34.771  24.723   3.076  0.00  0.00    -0.329 OA
ATOM      2  C   UNL     1     -36.434  23.039   3.185  0.00  0.00    +0.243 C 
ATOM      3  C   UNL     1     -37.112  24.375   2.966  0.00  0.00    +0.258 C 
ATOM      4  C   UNL     1     -35.003  23.334   2.755  0.00  0.00    +0.204 C 
ATOM      5  C   UNL     1     -36.027  25.352   3.381  0.00  0.00    +0.244 C 
ENDROOT
BRANCH   5   8
ATOM      6  O   UNL     1     -34.635  27.699   4.113  0.00  0.00    -0.252 OA
ATOM      7  O   UNL     1     -36.418  30.074   0.588  0.00  0.00    -0.270 OA
ATOM      8  N   UNL     1     -36.109  26.596   2.672  0.00  0.00    -0.216 N 
ATOM      9  N   UNL     1     -35.526  28.880   2.358  0.00  0.00    -0.236 N 
ATOM     10  C   UNL     1     -35.371  27.716   3.124  0.00  0.00    +0.315 C 
ATOM     11  C   UNL     1     -36.913  26.701   1.544  0.00  0.00    +0.076 C 
ATOM     12  C   UNL     1     -37.051  27.817   0.824  0.00  0.00    +0.074 C 
ATOM     13  C   UNL     1     -36.315  29.031   1.228  0.00  0.00    +0.254 C 
ATOM     14  H   UNL     1     -35.021  29.672   2.653  0.00  0.00    +0.159 HD
ENDBRANCH   5   8
BRANCH   2  15
ATOM     15  O   UNL     1     -36.416  22.715   4.576  0.00  0.00    -0.446 OA
BRANCH  15  17
ATOM     16  O   UNL     1     -35.253  20.739   4.291  0.00  0.00    -0.250 OA
ATOM     17  C   UNL     1     -35.538  21.736   4.942  0.00  0.00    +0.318 C 
ATOM     18  C   UNL     1     -34.953  22.058   6.283  0.00  0.00    +0.121 C 
ENDBRANCH  15  17
ENDBRANCH   2  15
BRANCH   3  19
ATOM     19  O   UNL     1     -38.289  24.511   3.736  0.00  0.00    -0.444 OA
BRANCH  19  21
ATOM     20  O   UNL     1     -39.921  23.447   2.495  0.00  0.00    -0.250 OA
ATOM     21  C   UNL     1     -39.472  24.442   3.048  0.00  0.00    +0.318 C 
ATOM     22  C   UNL     1     -40.158  25.775   3.062  0.00  0.00    +0.121 C 
ENDBRANCH  19  21
ENDBRANCH   3  19
BRANCH   4  23
ATOM     23  C   UNL     1     -34.775  23.147   1.261  0.00  0.00    +0.242 C 
BRANCH  23  24
ATOM     24  O   UNL     1     -35.397  21.941   0.854  0.00  0.00    -0.446 OA
BRANCH  24  26
ATOM     25  O   UNL     1     -34.444  21.073  -1.062  0.00  0.00    -0.250 OA
ATOM     26  C   UNL     1     -34.612  21.068   0.150  0.00  0.00    +0.318 C 
ATOM     27  C   UNL     1     -33.974  20.082   1.082  0.00  0.00    +0.121 C 
ENDBRANCH  24  26
ENDBRANCH  23  24
ENDBRANCH   4  23
TORSDOF 8
ENDMDL
