MODEL 1
REMARK VINA RESULT:      -5.9      0.000      0.000
REMARK  Name = 55281
REMARK  6 active torsions:
REMARK  status: ('A' for Active; 'I' for Inactive)
REMARK    1  A    between atoms: N_3  and  C1*_13
REMARK    2  A    between atoms: C_7  and  C_22
REMARK    3  A    between atoms: C2*_11  and  O2*_15
REMARK    4  A    between atoms: C3*_12  and  O3*_17
REMARK    5  A    between atoms: C4*_14  and  C5*_19
REMARK    6  A    between atoms: C5*_19  and  O5*_20
REMARK                            x       y       z     vdW  Elec       q    Type
REMARK                         _______ _______ _______ _____ _____    ______ ____
ROOT
ATOM      1  O   UNL     1     -37.810  22.272   2.692  0.00  0.00    -0.252 OA
ATOM      2  O   UNL     1     -35.040  22.797   6.327  0.00  0.00    -0.269 OA
ATOM      3  N   UNL     1     -36.770  24.342   2.980  0.00  0.00    -0.216 N 
ATOM      4  N   UNL     1     -36.427  22.547   4.500  0.00  0.00    -0.235 N 
ATOM      5  C   UNL     1     -35.907  25.101   3.767  0.00  0.00    +0.084 C 
ATOM      6  C   UNL     1     -37.059  23.004   3.339  0.00  0.00    +0.315 C 
ATOM      7  C   UNL     1     -35.306  24.658   4.877  0.00  0.00    +0.110 C 
ATOM      8  C   UNL     1     -35.562  23.262   5.317  0.00  0.00    +0.262 C 
ATOM      9  H   UNL     1     -36.616  21.618   4.767  0.00  0.00    +0.159 HD
ENDROOT
BRANCH   3  13
ATOM     10  O4* UNL     1     -36.453  25.849   1.212  0.00  0.00    -0.333 OA
ATOM     11  C2* UNL     1     -38.650  25.681   2.070  0.00  0.00    +0.187 C 
ATOM     12  C3* UNL     1     -38.690  26.625   0.887  0.00  0.00    +0.171 C 
ATOM     13  C1* UNL     1     -37.362  24.914   1.808  0.00  0.00    +0.229 C 
ATOM     14  C4* UNL     1     -37.213  26.920   0.617  0.00  0.00    +0.175 C 
BRANCH  11  15
ATOM     15  O2* UNL     1     -38.558  26.452   3.262  0.00  0.00    -0.378 OA
ATOM     16  H2* UNL     1     -39.256  26.179   3.879  0.00  0.00    +0.211 HD
ENDBRANCH  11  15
BRANCH  12  17
ATOM     17  O3* UNL     1     -39.225  25.940  -0.243  0.00  0.00    -0.379 OA
ATOM     18  H3* UNL     1     -40.195  25.966  -0.207  0.00  0.00    +0.211 HD
ENDBRANCH  12  17
BRANCH  14  19
ATOM     19  C5* UNL     1     -36.735  28.228   1.231  0.00  0.00    +0.169 C 
BRANCH  19  20
ATOM     20  O5* UNL     1     -36.061  27.942   2.444  0.00  0.00    -0.379 OA
ATOM     21  H5* UNL     1     -35.390  28.623   2.609  0.00  0.00    +0.211 HD
ENDBRANCH  19  20
ENDBRANCH  14  19
ENDBRANCH   3  13
BRANCH   7  22
ATOM     22  C   UNL     1     -34.438  25.500   5.625  0.00  0.00    -0.058 C 
ATOM     23  C   UNL     1     -33.704  26.211   6.256  0.00  0.00    -0.085 C 
ATOM     24  C   UNL     1     -32.812  27.077   7.024  0.00  0.00    +0.090 C 
ENDBRANCH   7  22
TORSDOF 6
ENDMDL
MODEL 2
REMARK VINA RESULT:      -5.6      3.388      5.747
REMARK  Name = 55281
REMARK  6 active torsions:
REMARK  status: ('A' for Active; 'I' for Inactive)
REMARK    1  A    between atoms: N_3  and  C1*_13
REMARK    2  A    between atoms: C_7  and  C_22
REMARK    3  A    between atoms: C2*_11  and  O2*_15
REMARK    4  A    between atoms: C3*_12  and  O3*_17
REMARK    5  A    between atoms: C4*_14  and  C5*_19
REMARK    6  A    between atoms: C5*_19  and  O5*_20
REMARK                            x       y       z     vdW  Elec       q    Type
REMARK                         _______ _______ _______ _____ _____    ______ ____
ROOT
ATOM      1  O   UNL     1     -36.859  24.818   0.197  0.00  0.00    -0.252 OA
ATOM      2  O   UNL     1     -35.119  20.940  -1.562  0.00  0.00    -0.269 OA
ATOM      3  N   UNL     1     -35.578  23.462   1.602  0.00  0.00    -0.216 N 
ATOM      4  N   UNL     1     -35.985  22.882  -0.668  0.00  0.00    -0.235 N 
ATOM      5  C   UNL     1     -34.836  22.288   1.711  0.00  0.00    +0.084 C 
ATOM      6  C   UNL     1     -36.189  23.798   0.371  0.00  0.00    +0.315 C 
ATOM      7  C   UNL     1     -34.645  21.416   0.715  0.00  0.00    +0.110 C 
ATOM      8  C   UNL     1     -35.258  21.702  -0.608  0.00  0.00    +0.262 C 
ATOM      9  H   UNL     1     -36.403  23.097  -1.533  0.00  0.00    +0.159 HD
ENDROOT
BRANCH   3  13
ATOM     10  O4* UNL     1     -34.666  24.079   3.671  0.00  0.00    -0.333 OA
ATOM     11  C2* UNL     1     -37.023  24.146   3.499  0.00  0.00    +0.187 C 
ATOM     12  C3* UNL     1     -36.648  24.670   4.869  0.00  0.00    +0.171 C 
ATOM     13  C1* UNL     1     -35.721  24.329   2.733  0.00  0.00    +0.229 C 
ATOM     14  C4* UNL     1     -35.173  24.286   5.005  0.00  0.00    +0.175 C 
BRANCH  11  15
ATOM     15  O2* UNL     1     -37.365  22.770   3.617  0.00  0.00    -0.378 OA
ATOM     16  H2* UNL     1     -37.216  22.477   4.530  0.00  0.00    +0.211 HD
ENDBRANCH  11  15
BRANCH  12  17
ATOM     17  O3* UNL     1     -36.744  26.092   4.871  0.00  0.00    -0.379 OA
ATOM     18  H3* UNL     1     -37.580  26.360   4.459  0.00  0.00    +0.211 HD
ENDBRANCH  12  17
BRANCH  14  19
ATOM     19  C5* UNL     1     -34.952  23.002   5.792  0.00  0.00    +0.169 C 
BRANCH  19  20
ATOM     20  O5* UNL     1     -36.211  22.410   6.061  0.00  0.00    -0.379 OA
ATOM     21  H5* UNL     1     -36.683  22.261   5.227  0.00  0.00    +0.211 HD
ENDBRANCH  19  20
ENDBRANCH  14  19
ENDBRANCH   3  13
BRANCH   7  22
ATOM     22  C   UNL     1     -33.872  20.239   0.911  0.00  0.00    -0.058 C 
ATOM     23  C   UNL     1     -33.220  19.244   1.076  0.00  0.00    -0.085 C 
ATOM     24  C   UNL     1     -32.426  18.033   1.277  0.00  0.00    +0.090 C 
ENDBRANCH   7  22
TORSDOF 6
ENDMDL
MODEL 3
REMARK VINA RESULT:      -5.5      3.188      5.035
REMARK  Name = 55281
REMARK  6 active torsions:
REMARK  status: ('A' for Active; 'I' for Inactive)
REMARK    1  A    between atoms: N_3  and  C1*_13
REMARK    2  A    between atoms: C_7  and  C_22
REMARK    3  A    between atoms: C2*_11  and  O2*_15
REMARK    4  A    between atoms: C3*_12  and  O3*_17
REMARK    5  A    between atoms: C4*_14  and  C5*_19
REMARK    6  A    between atoms: C5*_19  and  O5*_20
REMARK                            x       y       z     vdW  Elec       q    Type
REMARK                         _______ _______ _______ _____ _____    ______ ____
ROOT
ATOM      1  O   UNL     1     -39.006  22.358   2.571  0.00  0.00    -0.252 OA
ATOM      2  O   UNL     1     -36.549  18.896   0.801  0.00  0.00    -0.269 OA
ATOM      3  N   UNL     1     -36.694  22.640   2.394  0.00  0.00    -0.216 N 
ATOM      4  N   UNL     1     -37.769  20.639   1.690  0.00  0.00    -0.235 N 
ATOM      5  C   UNL     1     -35.488  22.066   1.998  0.00  0.00    +0.084 C 
ATOM      6  C   UNL     1     -37.902  21.917   2.245  0.00  0.00    +0.315 C 
ATOM      7  C   UNL     1     -35.367  20.844   1.468  0.00  0.00    +0.110 C 
ATOM      8  C   UNL     1     -36.594  20.025   1.281  0.00  0.00    +0.262 C 
ATOM      9  H   UNL     1     -38.598  20.120   1.578  0.00  0.00    +0.159 HD
ENDROOT
BRANCH   3  13
ATOM     10  O4* UNL     1     -35.696  24.760   2.335  0.00  0.00    -0.333 OA
ATOM     11  C2* UNL     1     -36.445  24.009   4.448  0.00  0.00    +0.187 C 
ATOM     12  C3* UNL     1     -35.929  25.422   4.619  0.00  0.00    +0.171 C 
ATOM     13  C1* UNL     1     -36.713  23.959   2.951  0.00  0.00    +0.229 C 
ATOM     14  C4* UNL     1     -35.184  25.690   3.310  0.00  0.00    +0.175 C 
BRANCH  11  15
ATOM     15  O2* UNL     1     -35.414  23.102   4.819  0.00  0.00    -0.378 OA
ATOM     16  H2* UNL     1     -34.797  22.992   4.077  0.00  0.00    +0.211 HD
ENDBRANCH  11  15
BRANCH  12  17
ATOM     17  O3* UNL     1     -37.033  26.320   4.699  0.00  0.00    -0.379 OA
ATOM     18  H3* UNL     1     -36.913  27.038   4.058  0.00  0.00    +0.211 HD
ENDBRANCH  12  17
BRANCH  14  19
ATOM     19  C5* UNL     1     -33.681  25.474   3.414  0.00  0.00    +0.169 C 
BRANCH  19  20
ATOM     20  O5* UNL     1     -33.327  25.384   4.784  0.00  0.00    -0.379 OA
ATOM     21  H5* UNL     1     -33.871  26.000   5.299  0.00  0.00    +0.211 HD
ENDBRANCH  19  20
ENDBRANCH  14  19
ENDBRANCH   3  13
BRANCH   7  22
ATOM     22  C   UNL     1     -34.096  20.333   1.090  0.00  0.00    -0.058 C 
ATOM     23  C   UNL     1     -33.022  19.902   0.770  0.00  0.00    -0.085 C 
ATOM     24  C   UNL     1     -31.714  19.377   0.381  0.00  0.00    +0.090 C 
ENDBRANCH   7  22
TORSDOF 6
ENDMDL
MODEL 4
REMARK VINA RESULT:      -5.4      3.304      5.203
REMARK  Name = 55281
REMARK  6 active torsions:
REMARK  status: ('A' for Active; 'I' for Inactive)
REMARK    1  A    between atoms: N_3  and  C1*_13
REMARK    2  A    between atoms: C_7  and  C_22
REMARK    3  A    between atoms: C2*_11  and  O2*_15
REMARK    4  A    between atoms: C3*_12  and  O3*_17
REMARK    5  A    between atoms: C4*_14  and  C5*_19
REMARK    6  A    between atoms: C5*_19  and  O5*_20
REMARK                            x       y       z     vdW  Elec       q    Type
REMARK                         _______ _______ _______ _____ _____    ______ ____
ROOT
ATOM      1  O   UNL     1     -38.648  22.396   2.417  0.00  0.00    -0.252 OA
ATOM      2  O   UNL     1     -36.595  18.806   0.403  0.00  0.00    -0.269 OA
ATOM      3  N   UNL     1     -36.369  22.080   2.813  0.00  0.00    -0.216 N 
ATOM      4  N   UNL     1     -37.612  20.609   1.419  0.00  0.00    -0.235 N 
ATOM      5  C   UNL     1     -35.250  21.292   2.552  0.00  0.00    +0.084 C 
ATOM      6  C   UNL     1     -37.616  21.747   2.234  0.00  0.00    +0.315 C 
ATOM      7  C   UNL     1     -35.252  20.205   1.772  0.00  0.00    +0.110 C 
ATOM      8  C   UNL     1     -36.528  19.794   1.130  0.00  0.00    +0.262 C 
ATOM      9  H   UNL     1     -38.471  20.361   1.007  0.00  0.00    +0.159 HD
ENDROOT
BRANCH   3  13
ATOM     10  O4* UNL     1     -37.557  23.782   3.902  0.00  0.00    -0.333 OA
ATOM     11  C2* UNL     1     -35.411  24.352   3.090  0.00  0.00    +0.187 C 
ATOM     12  C3* UNL     1     -35.954  25.553   3.834  0.00  0.00    +0.171 C 
ATOM     13  C1* UNL     1     -36.257  23.226   3.665  0.00  0.00    +0.229 C 
ATOM     14  C4* UNL     1     -37.433  25.213   4.028  0.00  0.00    +0.175 C 
BRANCH  11  15
ATOM     15  O2* UNL     1     -35.661  24.528   1.700  0.00  0.00    -0.378 OA
ATOM     16  H2* UNL     1     -35.825  23.665   1.289  0.00  0.00    +0.211 HD
ENDBRANCH  11  15
BRANCH  12  17
ATOM     17  O3* UNL     1     -35.338  25.629   5.118  0.00  0.00    -0.379 OA
ATOM     18  H3* UNL     1     -36.022  25.731   5.799  0.00  0.00    +0.211 HD
ENDBRANCH  12  17
BRANCH  14  19
ATOM     19  C5* UNL     1     -38.342  25.853   2.989  0.00  0.00    +0.169 C 
BRANCH  19  20
ATOM     20  O5* UNL     1     -37.652  26.930   2.381  0.00  0.00    -0.379 OA
ATOM     21  H5* UNL     1     -38.263  27.671   2.248  0.00  0.00    +0.211 HD
ENDBRANCH  19  20
ENDBRANCH  14  19
ENDBRANCH   3  13
BRANCH   7  22
ATOM     22  C   UNL     1     -34.064  19.456   1.558  0.00  0.00    -0.058 C 
ATOM     23  C   UNL     1     -33.060  18.823   1.376  0.00  0.00    -0.085 C 
ATOM     24  C   UNL     1     -31.837  18.052   1.154  0.00  0.00    +0.090 C 
ENDBRANCH   7  22
TORSDOF 6
ENDMDL
MODEL 5
REMARK VINA RESULT:      -5.4      3.015      5.991
REMARK  Name = 55281
REMARK  6 active torsions:
REMARK  status: ('A' for Active; 'I' for Inactive)
REMARK    1  A    between atoms: N_3  and  C1*_13
REMARK    2  A    between atoms: C_7  and  C_22
REMARK    3  A    between atoms: C2*_11  and  O2*_15
REMARK    4  A    between atoms: C3*_12  and  O3*_17
REMARK    5  A    between atoms: C4*_14  and  C5*_19
REMARK    6  A    between atoms: C5*_19  and  O5*_20
REMARK                            x       y       z     vdW  Elec       q    Type
REMARK                         _______ _______ _______ _____ _____    ______ ____
ROOT
ATOM      1  O   UNL     1     -32.250  27.321   5.374  0.00  0.00    -0.252 OA
ATOM      2  O   UNL     1     -33.387  31.151   3.094  0.00  0.00    -0.269 OA
ATOM      3  N   UNL     1     -34.114  27.241   3.969  0.00  0.00    -0.216 N 
ATOM      4  N   UNL     1     -32.828  29.224   4.231  0.00  0.00    -0.235 N 
ATOM      5  C   UNL     1     -34.924  27.949   3.084  0.00  0.00    +0.084 C 
ATOM      6  C   UNL     1     -33.011  27.882   4.583  0.00  0.00    +0.315 C 
ATOM      7  C   UNL     1     -34.744  29.233   2.752  0.00  0.00    +0.110 C 
ATOM      8  C   UNL     1     -33.605  29.971   3.358  0.00  0.00    +0.262 C 
ATOM      9  H   UNL     1     -32.066  29.688   4.649  0.00  0.00    +0.159 HD
ENDROOT
BRANCH   3  13
ATOM     10  O4* UNL     1     -35.062  25.265   3.139  0.00  0.00    -0.333 OA
ATOM     11  C2* UNL     1     -35.301  25.653   5.459  0.00  0.00    +0.187 C 
ATOM     12  C3* UNL     1     -35.894  24.292   5.158  0.00  0.00    +0.171 C 
ATOM     13  C1* UNL     1     -34.395  25.866   4.256  0.00  0.00    +0.229 C 
ATOM     14  C4* UNL     1     -35.990  24.277   3.631  0.00  0.00    +0.175 C 
BRANCH  11  15
ATOM     15  O2* UNL     1     -36.354  26.609   5.490  0.00  0.00    -0.378 OA
ATOM     16  H2* UNL     1     -37.182  26.188   5.210  0.00  0.00    +0.211 HD
ENDBRANCH  11  15
BRANCH  12  17
ATOM     17  O3* UNL     1     -34.974  23.280   5.560  0.00  0.00    -0.379 OA
ATOM     18  H3* UNL     1     -34.086  23.663   5.640  0.00  0.00    +0.211 HD
ENDBRANCH  12  17
BRANCH  14  19
ATOM     19  C5* UNL     1     -37.374  24.636   3.109  0.00  0.00    +0.169 C 
BRANCH  19  20
ATOM     20  O5* UNL     1     -38.267  24.723   4.206  0.00  0.00    -0.379 OA
ATOM     21  H5* UNL     1     -37.905  24.228   4.957  0.00  0.00    +0.211 HD
ENDBRANCH  19  20
ENDBRANCH  14  19
ENDBRANCH   3  13
BRANCH   7  22
ATOM     22  C   UNL     1     -35.618  29.882   1.838  0.00  0.00    -0.058 C 
ATOM     23  C   UNL     1     -36.356  30.430   1.067  0.00  0.00    -0.085 C 
ATOM     24  C   UNL     1     -37.255  31.098   0.126  0.00  0.00    +0.090 C 
ENDBRANCH   7  22
TORSDOF 6
ENDMDL
MODEL 6
REMARK VINA RESULT:      -5.4      3.548      6.255
REMARK  Name = 55281
REMARK  6 active torsions:
REMARK  status: ('A' for Active; 'I' for Inactive)
REMARK    1  A    between atoms: N_3  and  C1*_13
REMARK    2  A    between atoms: C_7  and  C_22
REMARK    3  A    between atoms: C2*_11  and  O2*_15
REMARK    4  A    between atoms: C3*_12  and  O3*_17
REMARK    5  A    between atoms: C4*_14  and  C5*_19
REMARK    6  A    between atoms: C5*_19  and  O5*_20
REMARK                            x       y       z     vdW  Elec       q    Type
REMARK                         _______ _______ _______ _____ _____    ______ ____
ROOT
ATOM      1  O   UNL     1     -34.510  29.248   2.301  0.00  0.00    -0.252 OA
ATOM      2  O   UNL     1     -37.123  25.770   3.795  0.00  0.00    -0.269 OA
ATOM      3  N   UNL     1     -33.469  27.543   3.508  0.00  0.00    -0.216 N 
ATOM      4  N   UNL     1     -35.802  27.508   3.052  0.00  0.00    -0.235 N 
ATOM      5  C   UNL     1     -33.638  26.332   4.178  0.00  0.00    +0.084 C 
ATOM      6  C   UNL     1     -34.582  28.179   2.910  0.00  0.00    +0.315 C 
ATOM      7  C   UNL     1     -34.807  25.696   4.310  0.00  0.00    +0.110 C 
ATOM      8  C   UNL     1     -36.021  26.305   3.708  0.00  0.00    +0.262 C 
ATOM      9  H   UNL     1     -36.589  27.935   2.643  0.00  0.00    +0.159 HD
ENDROOT
BRANCH   3  13
ATOM     10  O4* UNL     1     -31.251  27.422   4.256  0.00  0.00    -0.333 OA
ATOM     11  C2* UNL     1     -32.119  29.590   3.886  0.00  0.00    +0.187 C 
ATOM     12  C3* UNL     1     -30.661  29.738   4.267  0.00  0.00    +0.171 C 
ATOM     13  C1* UNL     1     -32.170  28.141   3.424  0.00  0.00    +0.229 C 
ATOM     14  C4* UNL     1     -30.288  28.351   4.794  0.00  0.00    +0.175 C 
BRANCH  11  15
ATOM     15  O2* UNL     1     -32.914  29.790   5.049  0.00  0.00    -0.378 OA
ATOM     16  H2* UNL     1     -33.488  29.019   5.186  0.00  0.00    +0.211 HD
ENDBRANCH  11  15
BRANCH  12  17
ATOM     17  O3* UNL     1     -29.893  29.994   3.093  0.00  0.00    -0.379 OA
ATOM     18  H3* UNL     1     -29.012  30.311   3.347  0.00  0.00    +0.211 HD
ENDBRANCH  12  17
BRANCH  14  19
ATOM     19  C5* UNL     1     -30.338  28.248   6.312  0.00  0.00    +0.169 C 
BRANCH  19  20
ATOM     20  O5* UNL     1     -31.473  27.482   6.679  0.00  0.00    -0.379 OA
ATOM     21  H5* UNL     1     -31.294  27.019   7.512  0.00  0.00    +0.211 HD
ENDBRANCH  19  20
ENDBRANCH  14  19
ENDBRANCH   3  13
BRANCH   7  22
ATOM     22  C   UNL     1     -34.893  24.462   5.011  0.00  0.00    -0.058 C 
ATOM     23  C   UNL     1     -34.965  23.420   5.602  0.00  0.00    -0.085 C 
ATOM     24  C   UNL     1     -35.052  22.151   6.323  0.00  0.00    +0.090 C 
ENDBRANCH   7  22
TORSDOF 6
ENDMDL
MODEL 7
REMARK VINA RESULT:      -5.4      2.577      4.632
REMARK  Name = 55281
REMARK  6 active torsions:
REMARK  status: ('A' for Active; 'I' for Inactive)
REMARK    1  A    between atoms: N_3  and  C1*_13
REMARK    2  A    between atoms: C_7  and  C_22
REMARK    3  A    between atoms: C2*_11  and  O2*_15
REMARK    4  A    between atoms: C3*_12  and  O3*_17
REMARK    5  A    between atoms: C4*_14  and  C5*_19
REMARK    6  A    between atoms: C5*_19  and  O5*_20
REMARK                            x       y       z     vdW  Elec       q    Type
REMARK                         _______ _______ _______ _____ _____    ______ ____
ROOT
ATOM      1  O   UNL     1     -37.172  28.116   1.267  0.00  0.00    -0.252 OA
ATOM      2  O   UNL     1     -38.547  24.580   3.868  0.00  0.00    -0.269 OA
ATOM      3  N   UNL     1     -35.546  26.955   2.477  0.00  0.00    -0.216 N 
ATOM      4  N   UNL     1     -37.844  26.351   2.568  0.00  0.00    -0.235 N 
ATOM      5  C   UNL     1     -35.293  25.907   3.359  0.00  0.00    +0.084 C 
ATOM      6  C   UNL     1     -36.870  27.210   2.046  0.00  0.00    +0.315 C 
ATOM      7  C   UNL     1     -36.228  25.090   3.855  0.00  0.00    +0.110 C 
ATOM      8  C   UNL     1     -37.642  25.297   3.447  0.00  0.00    +0.262 C 
ATOM      9  H   UNL     1     -38.772  26.512   2.280  0.00  0.00    +0.159 HD
ENDROOT
BRANCH   3  13
ATOM     10  O4* UNL     1     -33.255  27.408   2.674  0.00  0.00    -0.333 OA
ATOM     11  C2* UNL     1     -34.661  29.262   2.252  0.00  0.00    +0.187 C 
ATOM     12  C3* UNL     1     -33.231  29.759   2.246  0.00  0.00    +0.171 C 
ATOM     13  C1* UNL     1     -34.469  27.773   2.005  0.00  0.00    +0.229 C 
ATOM     14  C4* UNL     1     -32.445  28.589   2.840  0.00  0.00    +0.175 C 
BRANCH  11  15
ATOM     15  O2* UNL     1     -35.220  29.504   3.538  0.00  0.00    -0.378 OA
ATOM     16  H2* UNL     1     -35.502  28.664   3.932  0.00  0.00    +0.211 HD
ENDBRANCH  11  15
BRANCH  12  17
ATOM     17  O3* UNL     1     -32.805  29.949   0.899  0.00  0.00    -0.379 OA
ATOM     18  H3* UNL     1     -33.558  30.240   0.360  0.00  0.00    +0.211 HD
ENDBRANCH  12  17
BRANCH  14  19
ATOM     19  C5* UNL     1     -32.151  28.748   4.325  0.00  0.00    +0.169 C 
BRANCH  19  20
ATOM     20  O5* UNL     1     -33.056  27.940   5.057  0.00  0.00    -0.379 OA
ATOM     21  H5* UNL     1     -32.558  27.322   5.614  0.00  0.00    +0.211 HD
ENDBRANCH  19  20
ENDBRANCH  14  19
ENDBRANCH   3  13
BRANCH   7  22
ATOM     22  C   UNL     1     -35.884  24.043   4.753  0.00  0.00    -0.058 C 
ATOM     23  C   UNL     1     -35.593  23.159   5.511  0.00  0.00    -0.085 C 
ATOM     24  C   UNL     1     -35.238  22.082   6.434  0.00  0.00    +0.090 C 
ENDBRANCH   7  22
TORSDOF 6
ENDMDL
MODEL 8
REMARK VINA RESULT:      -5.4      3.168      4.799
REMARK  Name = 55281
REMARK  6 active torsions:
REMARK  status: ('A' for Active; 'I' for Inactive)
REMARK    1  A    between atoms: N_3  and  C1*_13
REMARK    2  A    between atoms: C_7  and  C_22
REMARK    3  A    between atoms: C2*_11  and  O2*_15
REMARK    4  A    between atoms: C3*_12  and  O3*_17
REMARK    5  A    between atoms: C4*_14  and  C5*_19
REMARK    6  A    between atoms: C5*_19  and  O5*_20
REMARK                            x       y       z     vdW  Elec       q    Type
REMARK                         _______ _______ _______ _____ _____    ______ ____
ROOT
ATOM      1  O   UNL     1     -37.836  23.999   3.805  0.00  0.00    -0.252 OA
ATOM      2  O   UNL     1     -36.420  19.887   2.306  0.00  0.00    -0.269 OA
ATOM      3  N   UNL     1     -35.834  23.905   2.606  0.00  0.00    -0.216 N 
ATOM      4  N   UNL     1     -37.119  21.954   3.052  0.00  0.00    -0.235 N 
ATOM      5  C   UNL     1     -34.927  23.087   1.936  0.00  0.00    +0.084 C 
ATOM      6  C   UNL     1     -36.989  23.340   3.198  0.00  0.00    +0.315 C 
ATOM      7  C   UNL     1     -35.056  21.763   1.800  0.00  0.00    +0.110 C 
ATOM      8  C   UNL     1     -36.245  21.099   2.397  0.00  0.00    +0.262 C 
ATOM      9  H   UNL     1     -37.916  21.542   3.457  0.00  0.00    +0.159 HD
ENDROOT
BRANCH   3  13
ATOM     10  O4* UNL     1     -34.663  25.715   1.685  0.00  0.00    -0.333 OA
ATOM     11  C2* UNL     1     -35.015  25.769   4.023  0.00  0.00    +0.187 C 
ATOM     12  C3* UNL     1     -34.334  27.064   3.631  0.00  0.00    +0.171 C 
ATOM     13  C1* UNL     1     -35.600  25.315   2.694  0.00  0.00    +0.229 C 
ATOM     14  C4* UNL     1     -33.863  26.798   2.200  0.00  0.00    +0.175 C 
BRANCH  11  15
ATOM     15  O2* UNL     1     -34.026  24.860   4.490  0.00  0.00    -0.378 OA
ATOM     16  H2* UNL     1     -33.693  25.157   5.351  0.00  0.00    +0.211 HD
ENDBRANCH  11  15
BRANCH  12  17
ATOM     17  O3* UNL     1     -35.300  28.112   3.598  0.00  0.00    -0.379 OA
ATOM     18  H3* UNL     1     -34.925  28.909   4.004  0.00  0.00    +0.211 HD
ENDBRANCH  12  17
BRANCH  14  19
ATOM     19  C5* UNL     1     -32.402  26.381   2.112  0.00  0.00    +0.169 C 
BRANCH  19  20
ATOM     20  O5* UNL     1     -31.771  26.668   3.348  0.00  0.00    -0.379 OA
ATOM     21  H5* UNL     1     -31.832  27.618   3.529  0.00  0.00    +0.211 HD
ENDBRANCH  19  20
ENDBRANCH  14  19
ENDBRANCH   3  13
BRANCH   7  22
ATOM     22  C   UNL     1     -34.082  21.000   1.099  0.00  0.00    -0.058 C 
ATOM     23  C   UNL     1     -33.259  20.357   0.508  0.00  0.00    -0.085 C 
ATOM     24  C   UNL     1     -32.256  19.573  -0.212  0.00  0.00    +0.090 C 
ENDBRANCH   7  22
TORSDOF 6
ENDMDL
MODEL 9
REMARK VINA RESULT:      -5.3      2.870      4.183
REMARK  Name = 55281
REMARK  6 active torsions:
REMARK  status: ('A' for Active; 'I' for Inactive)
REMARK    1  A    between atoms: N_3  and  C1*_13
REMARK    2  A    between atoms: C_7  and  C_22
REMARK    3  A    between atoms: C2*_11  and  O2*_15
REMARK    4  A    between atoms: C3*_12  and  O3*_17
REMARK    5  A    between atoms: C4*_14  and  C5*_19
REMARK    6  A    between atoms: C5*_19  and  O5*_20
REMARK                            x       y       z     vdW  Elec       q    Type
REMARK                         _______ _______ _______ _____ _____    ______ ____
ROOT
ATOM      1  O   UNL     1     -37.966  24.338   4.069  0.00  0.00    -0.252 OA
ATOM      2  O   UNL     1     -34.955  20.951   4.856  0.00  0.00    -0.269 OA
ATOM      3  N   UNL     1     -37.182  23.128   2.233  0.00  0.00    -0.216 N 
ATOM      4  N   UNL     1     -36.464  22.647   4.448  0.00  0.00    -0.235 N 
ATOM      5  C   UNL     1     -36.356  22.093   1.799  0.00  0.00    +0.084 C 
ATOM      6  C   UNL     1     -37.258  23.439   3.611  0.00  0.00    +0.315 C 
ATOM      7  C   UNL     1     -35.599  21.339   2.604  0.00  0.00    +0.110 C 
ATOM      8  C   UNL     1     -35.627  21.608   4.065  0.00  0.00    +0.262 C 
ATOM      9  H   UNL     1     -36.503  22.848   5.411  0.00  0.00    +0.159 HD
ENDROOT
BRANCH   3  13
ATOM     10  O4* UNL     1     -38.239  25.178   1.813  0.00  0.00    -0.333 OA
ATOM     11  C2* UNL     1     -39.297  23.251   0.942  0.00  0.00    +0.187 C 
ATOM     12  C3* UNL     1     -40.085  24.458   0.477  0.00  0.00    +0.171 C 
ATOM     13  C1* UNL     1     -37.953  23.876   1.285  0.00  0.00    +0.229 C 
ATOM     14  C4* UNL     1     -39.535  25.595   1.339  0.00  0.00    +0.175 C 
BRANCH  11  15
ATOM     15  O2* UNL     1     -39.928  22.715   2.099  0.00  0.00    -0.378 OA
ATOM     16  H2* UNL     1     -39.644  21.796   2.226  0.00  0.00    +0.211 HD
ENDBRANCH  11  15
BRANCH  12  17
ATOM     17  O3* UNL     1     -39.766  24.731  -0.885  0.00  0.00    -0.379 OA
ATOM     18  H3* UNL     1     -38.983  25.303  -0.925  0.00  0.00    +0.211 HD
ENDBRANCH  12  17
BRANCH  14  19
ATOM     19  C5* UNL     1     -40.398  25.905   2.554  0.00  0.00    +0.169 C 
BRANCH  19  20
ATOM     20  O5* UNL     1     -39.600  26.562   3.524  0.00  0.00    -0.379 OA
ATOM     21  H5* UNL     1     -39.669  26.093   4.370  0.00  0.00    +0.211 HD
ENDBRANCH  19  20
ENDBRANCH  14  19
ENDBRANCH   3  13
BRANCH   7  22
ATOM     22  C   UNL     1     -34.783  20.300   2.079  0.00  0.00    -0.058 C 
ATOM     23  C   UNL     1     -34.093  19.423   1.636  0.00  0.00    -0.085 C 
ATOM     24  C   UNL     1     -33.252  18.356   1.096  0.00  0.00    +0.090 C 
ENDBRANCH   7  22
TORSDOF 6
ENDMDL
