MODEL 1
REMARK VINA RESULT:      -6.0      0.000      0.000
REMARK  Name = 194347
REMARK  8 active torsions:
REMARK  status: ('A' for Active; 'I' for Inactive)
REMARK    1  A    between atoms: CA_1  and  N_3
REMARK    2  A    between atoms: CA_1  and  C_14
REMARK    3  A    between atoms: CA_1  and  CB_17
REMARK    4  A    between atoms: C_4  and  CA_6
REMARK    5  A    between atoms: CA_6  and  N_9
REMARK    6  A    between atoms: C_14  and  O_15
REMARK    7  A    between atoms: CB_17  and  CG_18
REMARK    8  A    between atoms: CZ_23  and  OH_24
REMARK                            x       y       z     vdW  Elec       q    Type
REMARK                         _______ _______ _______ _____ _____    ______ ____
ROOT
ATOM      1  CA  ALA A   1     -35.653  22.790   4.600  0.00  0.00    +0.176 C 
ENDROOT
BRANCH   1   3
ATOM      2  O   ALA A   1     -35.150  20.990   2.414  0.00  0.00    -0.273 OA
ATOM      3  N   ALA A   1     -36.611  22.324   3.626  0.00  0.00    -0.295 N 
ATOM      4  C   ALA A   1     -36.275  21.451   2.601  0.00  0.00    +0.241 C 
ATOM      5  H   ALA A   1     -37.543  22.638   3.691  0.00  0.00    +0.150 HD
BRANCH   4   6
ATOM      6  CA  ALA A   1     -37.478  21.081   1.744  0.00  0.00    +0.149 C 
ATOM      7  CB  ALA A   1     -37.039  20.580   0.378  0.00  0.00    +0.031 C 
BRANCH   6   9
ATOM      8  O   UNK A   0     -40.378  21.182   1.850  0.00  0.00    -0.275 OA
ATOM      9  N   ALA A   1     -38.317  22.245   1.631  0.00  0.00    -0.298 N 
ATOM     10  C   UNK A   0     -39.703  22.196   1.694  0.00  0.00    +0.223 C 
ATOM     11  C   UNK A   0     -40.332  23.558   1.572  0.00  0.00    +0.095 C 
ATOM     12  H   ALA A   1     -37.886  23.121   1.501  0.00  0.00    +0.150 HD
ENDBRANCH   6   9
ENDBRANCH   4   6
ENDBRANCH   1   3
BRANCH   1  14
ATOM     13  OXT ALA A   1     -35.968  22.145   6.910  0.00  0.00    -0.248 OA
ATOM     14  C   ALA A   1     -35.574  21.843   5.789  0.00  0.00    +0.332 C 
BRANCH  14  15
ATOM     15  O   ALA A   1     -35.039  20.630   5.514  0.00  0.00    -0.479 OA
ATOM     16  H   ALA A   1     -35.338  20.142   4.772  0.00  0.00    +0.295 HD
ENDBRANCH  14  15
ENDBRANCH   1  14
BRANCH   1  17
ATOM     17  CB  ALA A   1     -35.997  24.206   5.081  0.00  0.00    +0.057 C 
BRANCH  17  18
ATOM     18  CG  ALA A   1     -34.868  25.188   4.874  0.00  0.00    -0.020 C 
ATOM     19  CD1 ALA A   1     -34.339  25.358   3.605  0.00  0.00    -0.001 C 
ATOM     20  CD2 ALA A   1     -34.383  25.901   5.959  0.00  0.00    -0.001 C 
ATOM     21  CE1 ALA A   1     -33.297  26.265   3.415  0.00  0.00    +0.036 C 
ATOM     22  CE2 ALA A   1     -33.341  26.808   5.769  0.00  0.00    +0.036 C 
ATOM     23  CZ  ALA A   1     -32.797  26.990   4.497  0.00  0.00    +0.134 C 
BRANCH  23  24
ATOM     24  OH  ALA A   1     -31.781  27.875   4.310  0.00  0.00    -0.506 OA
ATOM     25  HH  ALA A   1     -31.278  28.173   5.042  0.00  0.00    +0.292 HD
ENDBRANCH  23  24
ENDBRANCH  17  18
ENDBRANCH   1  17
TORSDOF 8
ENDMDL
MODEL 2
REMARK VINA RESULT:      -6.0      3.203      7.750
REMARK  Name = 194347
REMARK  8 active torsions:
REMARK  status: ('A' for Active; 'I' for Inactive)
REMARK    1  A    between atoms: CA_1  and  N_3
REMARK    2  A    between atoms: CA_1  and  C_14
REMARK    3  A    between atoms: CA_1  and  CB_17
REMARK    4  A    between atoms: C_4  and  CA_6
REMARK    5  A    between atoms: CA_6  and  N_9
REMARK    6  A    between atoms: C_14  and  O_15
REMARK    7  A    between atoms: CB_17  and  CG_18
REMARK    8  A    between atoms: CZ_23  and  OH_24
REMARK                            x       y       z     vdW  Elec       q    Type
REMARK                         _______ _______ _______ _____ _____    ______ ____
ROOT
ATOM      1  CA  ALA A   1     -35.116  26.734   3.459  0.00  0.00    +0.176 C 
ENDROOT
BRANCH   1   3
ATOM      2  O   ALA A   1     -32.241  26.689   3.489  0.00  0.00    -0.273 OA
ATOM      3  N   ALA A   1     -34.257  27.147   4.542  0.00  0.00    -0.295 N 
ATOM      4  C   ALA A   1     -32.872  27.089   4.466  0.00  0.00    +0.241 C 
ATOM      5  H   ALA A   1     -34.670  27.484   5.371  0.00  0.00    +0.150 HD
BRANCH   4   6
ATOM      6  CA  ALA A   1     -32.205  27.627   5.724  0.00  0.00    +0.149 C 
ATOM      7  CB  ALA A   1     -32.894  27.100   6.973  0.00  0.00    +0.031 C 
BRANCH   6   9
ATOM      8  O   UNK A   0     -30.183  29.413   4.650  0.00  0.00    -0.275 OA
ATOM      9  N   ALA A   1     -32.248  29.065   5.670  0.00  0.00    -0.298 N 
ATOM     10  C   UNK A   0     -31.228  29.839   5.135  0.00  0.00    +0.223 C 
ATOM     11  C   UNK A   0     -31.540  31.311   5.180  0.00  0.00    +0.095 C 
ATOM     12  H   ALA A   1     -33.041  29.523   6.031  0.00  0.00    +0.150 HD
ENDBRANCH   6   9
ENDBRANCH   4   6
ENDBRANCH   1   3
BRANCH   1  14
ATOM     13  OXT ALA A   1     -36.157  27.818   1.563  0.00  0.00    -0.248 OA
ATOM     14  C   ALA A   1     -35.579  27.930   2.639  0.00  0.00    +0.332 C 
BRANCH  14  15
ATOM     15  O   ALA A   1     -35.312  29.136   3.193  0.00  0.00    -0.479 OA
ATOM     16  H   ALA A   1     -35.809  29.889   2.938  0.00  0.00    +0.295 HD
ENDBRANCH  14  15
ENDBRANCH   1  14
BRANCH   1  17
ATOM     17  CB  ALA A   1     -36.331  25.956   3.982  0.00  0.00    +0.057 C 
BRANCH  17  18
ATOM     18  CG  ALA A   1     -36.000  24.532   4.359  0.00  0.00    -0.020 C 
ATOM     19  CD1 ALA A   1     -35.601  24.247   5.654  0.00  0.00    -0.001 C 
ATOM     20  CD2 ALA A   1     -36.102  23.535   3.400  0.00  0.00    -0.001 C 
ATOM     21  CE1 ALA A   1     -35.294  22.931   6.001  0.00  0.00    +0.036 C 
ATOM     22  CE2 ALA A   1     -35.795  22.220   3.748  0.00  0.00    +0.036 C 
ATOM     23  CZ  ALA A   1     -35.391  21.917   5.048  0.00  0.00    +0.134 C 
BRANCH  23  24
ATOM     24  OH  ALA A   1     -35.093  20.634   5.389  0.00  0.00    -0.506 OA
ATOM     25  HH  ALA A   1     -35.553  20.216   6.089  0.00  0.00    +0.292 HD
ENDBRANCH  23  24
ENDBRANCH  17  18
ENDBRANCH   1  17
TORSDOF 8
ENDMDL
MODEL 3
REMARK VINA RESULT:      -5.9      1.536      2.016
REMARK  Name = 194347
REMARK  8 active torsions:
REMARK  status: ('A' for Active; 'I' for Inactive)
REMARK    1  A    between atoms: CA_1  and  N_3
REMARK    2  A    between atoms: CA_1  and  C_14
REMARK    3  A    between atoms: CA_1  and  CB_17
REMARK    4  A    between atoms: C_4  and  CA_6
REMARK    5  A    between atoms: CA_6  and  N_9
REMARK    6  A    between atoms: C_14  and  O_15
REMARK    7  A    between atoms: CB_17  and  CG_18
REMARK    8  A    between atoms: CZ_23  and  OH_24
REMARK                            x       y       z     vdW  Elec       q    Type
REMARK                         _______ _______ _______ _____ _____    ______ ____
ROOT
ATOM      1  CA  ALA A   1     -35.899  22.510   3.829  0.00  0.00    +0.176 C 
ENDROOT
BRANCH   1   3
ATOM      2  O   ALA A   1     -37.029  22.627   1.186  0.00  0.00    -0.273 OA
ATOM      3  N   ALA A   1     -37.300  22.461   3.485  0.00  0.00    -0.295 N 
ATOM      4  C   ALA A   1     -37.753  22.524   2.175  0.00  0.00    +0.241 C 
ATOM      5  H   ALA A   1     -37.962  22.380   4.210  0.00  0.00    +0.150 HD
BRANCH   4   6
ATOM      6  CA  ALA A   1     -39.269  22.404   2.086  0.00  0.00    +0.149 C 
ATOM      7  CB  ALA A   1     -39.671  21.353   1.064  0.00  0.00    +0.031 C 
BRANCH   6   9
ATOM      8  O   UNK A   0     -39.650  24.678   3.851  0.00  0.00    -0.275 OA
ATOM      9  N   ALA A   1     -39.798  23.698   1.743  0.00  0.00    -0.298 N 
ATOM     10  C   UNK A   0     -39.944  24.730   2.659  0.00  0.00    +0.223 C 
ATOM     11  C   UNK A   0     -40.497  25.982   2.032  0.00  0.00    +0.095 C 
ATOM     12  H   ALA A   1     -40.071  23.859   0.811  0.00  0.00    +0.150 HD
ENDBRANCH   6   9
ENDBRANCH   4   6
ENDBRANCH   1   3
BRANCH   1  14
ATOM     13  OXT ALA A   1     -35.069  20.353   3.113  0.00  0.00    -0.248 OA
ATOM     14  C   ALA A   1     -35.336  21.112   4.039  0.00  0.00    +0.332 C 
BRANCH  14  15
ATOM     15  O   ALA A   1     -35.141  20.767   5.334  0.00  0.00    -0.479 OA
ATOM     16  H   ALA A   1     -35.836  20.866   5.955  0.00  0.00    +0.295 HD
ENDBRANCH  14  15
ENDBRANCH   1  14
BRANCH   1  17
ATOM     17  CB  ALA A   1     -35.666  23.362   5.083  0.00  0.00    +0.057 C 
BRANCH  17  18
ATOM     18  CG  ALA A   1     -34.829  24.590   4.814  0.00  0.00    -0.020 C 
ATOM     19  CD1 ALA A   1     -34.379  24.838   3.528  0.00  0.00    -0.001 C 
ATOM     20  CD2 ALA A   1     -34.525  25.446   5.862  0.00  0.00    -0.001 C 
ATOM     21  CE1 ALA A   1     -33.605  25.971   3.281  0.00  0.00    +0.036 C 
ATOM     22  CE2 ALA A   1     -33.751  26.579   5.614  0.00  0.00    +0.036 C 
ATOM     23  CZ  ALA A   1     -33.290  26.842   4.324  0.00  0.00    +0.134 C 
BRANCH  23  24
ATOM     24  OH  ALA A   1     -32.536  27.948   4.081  0.00  0.00    -0.506 OA
ATOM     25  HH  ALA A   1     -31.815  28.156   4.642  0.00  0.00    +0.292 HD
ENDBRANCH  23  24
ENDBRANCH  17  18
ENDBRANCH   1  17
TORSDOF 8
ENDMDL
MODEL 4
REMARK VINA RESULT:      -5.9      3.525      8.354
REMARK  Name = 194347
REMARK  8 active torsions:
REMARK  status: ('A' for Active; 'I' for Inactive)
REMARK    1  A    between atoms: CA_1  and  N_3
REMARK    2  A    between atoms: CA_1  and  C_14
REMARK    3  A    between atoms: CA_1  and  CB_17
REMARK    4  A    between atoms: C_4  and  CA_6
REMARK    5  A    between atoms: CA_6  and  N_9
REMARK    6  A    between atoms: C_14  and  O_15
REMARK    7  A    between atoms: CB_17  and  CG_18
REMARK    8  A    between atoms: CZ_23  and  OH_24
REMARK                            x       y       z     vdW  Elec       q    Type
REMARK                         _______ _______ _______ _____ _____    ______ ____
ROOT
ATOM      1  CA  ALA A   1     -34.252  26.910   4.112  0.00  0.00    +0.176 C 
ENDROOT
BRANCH   1   3
ATOM      2  O   ALA A   1     -31.465  27.445   3.649  0.00  0.00    -0.273 OA
ATOM      3  N   ALA A   1     -33.361  27.654   4.969  0.00  0.00    -0.295 N 
ATOM      4  C   ALA A   1     -32.024  27.862   4.662  0.00  0.00    +0.241 C 
ATOM      5  H   ALA A   1     -33.716  28.030   5.808  0.00  0.00    +0.150 HD
BRANCH   4   6
ATOM      6  CA  ALA A   1     -31.321  28.717   5.707  0.00  0.00    +0.149 C 
ATOM      7  CB  ALA A   1     -31.996  30.073   5.843  0.00  0.00    +0.031 C 
BRANCH   6   9
ATOM      8  O   UNK A   0     -29.044  27.221   6.710  0.00  0.00    -0.275 OA
ATOM      9  N   ALA A   1     -29.943  28.855   5.316  0.00  0.00    -0.298 N 
ATOM     10  C   UNK A   0     -28.917  28.091   5.853  0.00  0.00    +0.223 C 
ATOM     11  C   UNK A   0     -27.578  28.421   5.249  0.00  0.00    +0.095 C 
ATOM     12  H   ALA A   1     -29.717  29.526   4.632  0.00  0.00    +0.150 HD
ENDBRANCH   6   9
ENDBRANCH   4   6
ENDBRANCH   1   3
BRANCH   1  14
ATOM     13  OXT ALA A   1     -35.123  27.421   1.914  0.00  0.00    -0.248 OA
ATOM     14  C   ALA A   1     -34.870  27.807   3.050  0.00  0.00    +0.332 C 
BRANCH  14  15
ATOM     15  O   ALA A   1     -35.129  29.073   3.456  0.00  0.00    -0.479 OA
ATOM     16  H   ALA A   1     -34.795  29.800   2.968  0.00  0.00    +0.295 HD
ENDBRANCH  14  15
ENDBRANCH   1  14
BRANCH   1  17
ATOM     17  CB  ALA A   1     -35.358  26.224   4.925  0.00  0.00    +0.057 C 
BRANCH  17  18
ATOM     18  CG  ALA A   1     -35.382  24.725   4.741  0.00  0.00    -0.020 C 
ATOM     19  CD1 ALA A   1     -35.264  23.902   5.849  0.00  0.00    -0.001 C 
ATOM     20  CD2 ALA A   1     -35.521  24.201   3.465  0.00  0.00    -0.001 C 
ATOM     21  CE1 ALA A   1     -35.284  22.518   5.677  0.00  0.00    +0.036 C 
ATOM     22  CE2 ALA A   1     -35.543  22.818   3.294  0.00  0.00    +0.036 C 
ATOM     23  CZ  ALA A   1     -35.424  21.975   4.400  0.00  0.00    +0.134 C 
BRANCH  23  24
ATOM     24  OH  ALA A   1     -35.445  20.625   4.234  0.00  0.00    -0.506 OA
ATOM     25  HH  ALA A   1     -36.253  20.188   4.053  0.00  0.00    +0.292 HD
ENDBRANCH  23  24
ENDBRANCH  17  18
ENDBRANCH   1  17
TORSDOF 8
ENDMDL
MODEL 5
REMARK VINA RESULT:      -5.8      3.326      7.409
REMARK  Name = 194347
REMARK  8 active torsions:
REMARK  status: ('A' for Active; 'I' for Inactive)
REMARK    1  A    between atoms: CA_1  and  N_3
REMARK    2  A    between atoms: CA_1  and  C_14
REMARK    3  A    between atoms: CA_1  and  CB_17
REMARK    4  A    between atoms: C_4  and  CA_6
REMARK    5  A    between atoms: CA_6  and  N_9
REMARK    6  A    between atoms: C_14  and  O_15
REMARK    7  A    between atoms: CB_17  and  CG_18
REMARK    8  A    between atoms: CZ_23  and  OH_24
REMARK                            x       y       z     vdW  Elec       q    Type
REMARK                         _______ _______ _______ _____ _____    ______ ____
ROOT
ATOM      1  CA  ALA A   1     -35.401  26.532   2.925  0.00  0.00    +0.176 C 
ENDROOT
BRANCH   1   3
ATOM      2  O   ALA A   1     -32.657  25.855   3.458  0.00  0.00    -0.273 OA
ATOM      3  N   ALA A   1     -34.296  27.450   3.062  0.00  0.00    -0.295 N 
ATOM      4  C   ALA A   1     -32.999  27.028   3.321  0.00  0.00    +0.241 C 
ATOM      5  H   ALA A   1     -34.468  28.415   2.970  0.00  0.00    +0.150 HD
BRANCH   4   6
ATOM      6  CA  ALA A   1     -32.017  28.191   3.371  0.00  0.00    +0.149 C 
ATOM      7  CB  ALA A   1     -30.793  27.906   2.515  0.00  0.00    +0.031 C 
BRANCH   6   9
ATOM      8  O   UNK A   0     -32.770  30.428   5.061  0.00  0.00    -0.275 OA
ATOM      9  N   ALA A   1     -31.655  28.408   4.747  0.00  0.00    -0.298 N 
ATOM     10  C   UNK A   0     -32.065  29.514   5.479  0.00  0.00    +0.223 C 
ATOM     11  C   UNK A   0     -31.566  29.480   6.898  0.00  0.00    +0.095 C 
ATOM     12  H   ALA A   1     -31.087  27.738   5.192  0.00  0.00    +0.150 HD
ENDBRANCH   6   9
ENDBRANCH   4   6
ENDBRANCH   1   3
BRANCH   1  14
ATOM     13  OXT ALA A   1     -36.314  27.846   1.110  0.00  0.00    -0.248 OA
ATOM     14  C   ALA A   1     -36.520  27.141   2.092  0.00  0.00    +0.332 C 
BRANCH  14  15
ATOM     15  O   ALA A   1     -37.771  26.838   2.513  0.00  0.00    -0.479 OA
ATOM     16  H   ALA A   1     -37.996  26.928   3.419  0.00  0.00    +0.295 HD
ENDBRANCH  14  15
ENDBRANCH   1  14
BRANCH   1  17
ATOM     17  CB  ALA A   1     -35.941  26.107   4.297  0.00  0.00    +0.057 C 
BRANCH  17  18
ATOM     18  CG  ALA A   1     -35.728  24.640   4.585  0.00  0.00    -0.020 C 
ATOM     19  CD1 ALA A   1     -35.393  24.240   5.868  0.00  0.00    -0.001 C 
ATOM     20  CD2 ALA A   1     -35.873  23.720   3.558  0.00  0.00    -0.001 C 
ATOM     21  CE1 ALA A   1     -35.196  22.886   6.133  0.00  0.00    +0.036 C 
ATOM     22  CE2 ALA A   1     -35.676  22.365   3.823  0.00  0.00    +0.036 C 
ATOM     23  CZ  ALA A   1     -35.337  21.947   5.110  0.00  0.00    +0.134 C 
BRANCH  23  24
ATOM     24  OH  ALA A   1     -35.145  20.626   5.370  0.00  0.00    -0.506 OA
ATOM     25  HH  ALA A   1     -34.578  20.118   4.826  0.00  0.00    +0.292 HD
ENDBRANCH  23  24
ENDBRANCH  17  18
ENDBRANCH   1  17
TORSDOF 8
ENDMDL
MODEL 6
REMARK VINA RESULT:      -5.8      3.451      7.576
REMARK  Name = 194347
REMARK  8 active torsions:
REMARK  status: ('A' for Active; 'I' for Inactive)
REMARK    1  A    between atoms: CA_1  and  N_3
REMARK    2  A    between atoms: CA_1  and  C_14
REMARK    3  A    between atoms: CA_1  and  CB_17
REMARK    4  A    between atoms: C_4  and  CA_6
REMARK    5  A    between atoms: CA_6  and  N_9
REMARK    6  A    between atoms: C_14  and  O_15
REMARK    7  A    between atoms: CB_17  and  CG_18
REMARK    8  A    between atoms: CZ_23  and  OH_24
REMARK                            x       y       z     vdW  Elec       q    Type
REMARK                         _______ _______ _______ _____ _____    ______ ____
ROOT
ATOM      1  CA  ALA A   1     -33.380  26.388   3.666  0.00  0.00    +0.176 C 
ENDROOT
BRANCH   1   3
ATOM      2  O   ALA A   1     -31.238  27.872   4.885  0.00  0.00    -0.273 OA
ATOM      3  N   ALA A   1     -33.312  27.819   3.845  0.00  0.00    -0.295 N 
ATOM      4  C   ALA A   1     -32.232  28.449   4.447  0.00  0.00    +0.241 C 
ATOM      5  H   ALA A   1     -34.063  28.371   3.527  0.00  0.00    +0.150 HD
BRANCH   4   6
ATOM      6  CA  ALA A   1     -32.390  29.964   4.467  0.00  0.00    +0.149 C 
ATOM      7  CB  ALA A   1     -32.050  30.528   5.838  0.00  0.00    +0.031 C 
BRANCH   6   9
ATOM      8  O   UNK A   0     -33.274  31.719   2.331  0.00  0.00    -0.275 OA
ATOM      9  N   ALA A   1     -33.745  30.274   4.095  0.00  0.00    -0.298 N 
ATOM     10  C   UNK A   0     -34.074  31.130   3.053  0.00  0.00    +0.223 C 
ATOM     11  C   UNK A   0     -35.562  31.258   2.862  0.00  0.00    +0.095 C 
ATOM     12  H   ALA A   1     -34.477  29.859   4.606  0.00  0.00    +0.150 HD
ENDBRANCH   6   9
ENDBRANCH   4   6
ENDBRANCH   1   3
BRANCH   1  14
ATOM     13  OXT ALA A   1     -33.218  25.711   1.350  0.00  0.00    -0.248 OA
ATOM     14  C   ALA A   1     -32.645  25.957   2.406  0.00  0.00    +0.332 C 
BRANCH  14  15
ATOM     15  O   ALA A   1     -31.300  25.870   2.534  0.00  0.00    -0.479 OA
ATOM     16  H   ALA A   1     -30.771  25.652   1.791  0.00  0.00    +0.295 HD
ENDBRANCH  14  15
ENDBRANCH   1  14
BRANCH   1  17
ATOM     17  CB  ALA A   1     -34.835  25.905   3.615  0.00  0.00    +0.057 C 
BRANCH  17  18
ATOM     18  CG  ALA A   1     -35.014  24.513   4.172  0.00  0.00    -0.020 C 
ATOM     19  CD1 ALA A   1     -35.300  23.467   3.311  0.00  0.00    -0.001 C 
ATOM     20  CD2 ALA A   1     -34.889  24.309   5.538  0.00  0.00    -0.001 C 
ATOM     21  CE1 ALA A   1     -35.467  22.183   3.826  0.00  0.00    +0.036 C 
ATOM     22  CE2 ALA A   1     -35.055  23.023   6.053  0.00  0.00    +0.036 C 
ATOM     23  CZ  ALA A   1     -35.344  21.960   5.198  0.00  0.00    +0.134 C 
BRANCH  23  24
ATOM     24  OH  ALA A   1     -35.505  20.706   5.700  0.00  0.00    -0.506 OA
ATOM     25  HH  ALA A   1     -36.306  20.242   5.556  0.00  0.00    +0.292 HD
ENDBRANCH  23  24
ENDBRANCH  17  18
ENDBRANCH   1  17
TORSDOF 8
ENDMDL
MODEL 7
REMARK VINA RESULT:      -5.8      2.208      6.313
REMARK  Name = 194347
REMARK  8 active torsions:
REMARK  status: ('A' for Active; 'I' for Inactive)
REMARK    1  A    between atoms: CA_1  and  N_3
REMARK    2  A    between atoms: CA_1  and  C_14
REMARK    3  A    between atoms: CA_1  and  CB_17
REMARK    4  A    between atoms: C_4  and  CA_6
REMARK    5  A    between atoms: CA_6  and  N_9
REMARK    6  A    between atoms: C_14  and  O_15
REMARK    7  A    between atoms: CB_17  and  CG_18
REMARK    8  A    between atoms: CZ_23  and  OH_24
REMARK                            x       y       z     vdW  Elec       q    Type
REMARK                         _______ _______ _______ _____ _____    ______ ____
ROOT
ATOM      1  CA  ALA A   1     -35.760  23.012   4.784  0.00  0.00    +0.176 C 
ENDROOT
BRANCH   1   3
ATOM      2  O   ALA A   1     -36.154  25.715   5.683  0.00  0.00    -0.273 OA
ATOM      3  N   ALA A   1     -34.791  24.081   4.757  0.00  0.00    -0.295 N 
ATOM      4  C   ALA A   1     -35.073  25.361   5.215  0.00  0.00    +0.241 C 
ATOM      5  H   ALA A   1     -33.893  23.896   4.399  0.00  0.00    +0.150 HD
BRANCH   4   6
ATOM      6  CA  ALA A   1     -33.866  26.284   5.120  0.00  0.00    +0.149 C 
ATOM      7  CB  ALA A   1     -33.321  26.610   6.501  0.00  0.00    +0.031 C 
BRANCH   6   9
ATOM      8  O   UNK A   0     -33.984  26.691   2.248  0.00  0.00    -0.275 OA
ATOM      9  N   ALA A   1     -34.272  27.475   4.421  0.00  0.00    -0.298 N 
ATOM     10  C   UNK A   0     -34.297  27.578   3.038  0.00  0.00    +0.223 C 
ATOM     11  C   UNK A   0     -34.784  28.923   2.570  0.00  0.00    +0.095 C 
ATOM     12  H   ALA A   1     -34.545  28.257   4.953  0.00  0.00    +0.150 HD
ENDBRANCH   6   9
ENDBRANCH   4   6
ENDBRANCH   1   3
BRANCH   1  14
ATOM     13  OXT ALA A   1     -35.210  22.125   6.966  0.00  0.00    -0.248 OA
ATOM     14  C   ALA A   1     -35.350  21.924   5.765  0.00  0.00    +0.332 C 
BRANCH  14  15
ATOM     15  O   ALA A   1     -35.157  20.703   5.211  0.00  0.00    -0.479 OA
ATOM     16  H   ALA A   1     -35.890  20.147   5.032  0.00  0.00    +0.295 HD
ENDBRANCH  14  15
ENDBRANCH   1  14
BRANCH   1  17
ATOM     17  CB  ALA A   1     -35.958  22.410   3.387  0.00  0.00    +0.057 C 
BRANCH  17  18
ATOM     18  CG  ALA A   1     -37.334  22.672   2.822  0.00  0.00    -0.020 C 
ATOM     19  CD1 ALA A   1     -37.922  23.912   3.012  0.00  0.00    -0.001 C 
ATOM     20  CD2 ALA A   1     -37.983  21.666   2.123  0.00  0.00    -0.001 C 
ATOM     21  CE1 ALA A   1     -39.193  24.153   2.491  0.00  0.00    +0.036 C 
ATOM     22  CE2 ALA A   1     -39.254  21.908   1.601  0.00  0.00    +0.036 C 
ATOM     23  CZ  ALA A   1     -39.859  23.151   1.785  0.00  0.00    +0.134 C 
BRANCH  23  24
ATOM     24  OH  ALA A   1     -41.098  23.388   1.276  0.00  0.00    -0.506 OA
ATOM     25  HH  ALA A   1     -41.525  24.205   1.441  0.00  0.00    +0.292 HD
ENDBRANCH  23  24
ENDBRANCH  17  18
ENDBRANCH   1  17
TORSDOF 8
ENDMDL
MODEL 8
REMARK VINA RESULT:      -5.7      1.296      2.108
REMARK  Name = 194347
REMARK  8 active torsions:
REMARK  status: ('A' for Active; 'I' for Inactive)
REMARK    1  A    between atoms: CA_1  and  N_3
REMARK    2  A    between atoms: CA_1  and  C_14
REMARK    3  A    between atoms: CA_1  and  CB_17
REMARK    4  A    between atoms: C_4  and  CA_6
REMARK    5  A    between atoms: CA_6  and  N_9
REMARK    6  A    between atoms: C_14  and  O_15
REMARK    7  A    between atoms: CB_17  and  CG_18
REMARK    8  A    between atoms: CZ_23  and  OH_24
REMARK                            x       y       z     vdW  Elec       q    Type
REMARK                         _______ _______ _______ _____ _____    ______ ____
ROOT
ATOM      1  CA  ALA A   1     -35.661  22.883   4.578  0.00  0.00    +0.176 C 
ENDROOT
BRANCH   1   3
ATOM      2  O   ALA A   1     -35.184  22.011   1.879  0.00  0.00    -0.273 OA
ATOM      3  N   ALA A   1     -36.656  22.500   3.605  0.00  0.00    -0.295 N 
ATOM      4  C   ALA A   1     -36.330  22.090   2.320  0.00  0.00    +0.241 C 
ATOM      5  H   ALA A   1     -37.607  22.530   3.863  0.00  0.00    +0.150 HD
BRANCH   4   6
ATOM      6  CA  ALA A   1     -37.560  21.696   1.513  0.00  0.00    +0.149 C 
ATOM      7  CB  ALA A   1     -38.836  22.037   2.267  0.00  0.00    +0.031 C 
BRANCH   6   9
ATOM      8  O   UNK A   0     -36.930  20.433  -1.024  0.00  0.00    -0.275 OA
ATOM      9  N   ALA A   1     -37.477  20.287   1.235  0.00  0.00    -0.298 N 
ATOM     10  C   UNK A   0     -37.167  19.772  -0.016  0.00  0.00    +0.223 C 
ATOM     11  C   UNK A   0     -37.122  18.268  -0.024  0.00  0.00    +0.095 C 
ATOM     12  H   ALA A   1     -37.649  19.655   1.970  0.00  0.00    +0.150 HD
ENDBRANCH   6   9
ENDBRANCH   4   6
ENDBRANCH   1   3
BRANCH   1  14
ATOM     13  OXT ALA A   1     -35.867  22.099   6.856  0.00  0.00    -0.248 OA
ATOM     14  C   ALA A   1     -35.560  21.855   5.694  0.00  0.00    +0.332 C 
BRANCH  14  15
ATOM     15  O   ALA A   1     -35.109  20.638   5.307  0.00  0.00    -0.479 OA
ATOM     16  H   ALA A   1     -35.218  19.897   5.871  0.00  0.00    +0.295 HD
ENDBRANCH  14  15
ENDBRANCH   1  14
BRANCH   1  17
ATOM     17  CB  ALA A   1     -35.968  24.267   5.166  0.00  0.00    +0.057 C 
BRANCH  17  18
ATOM     18  CG  ALA A   1     -34.901  25.289   4.855  0.00  0.00    -0.020 C 
ATOM     19  CD1 ALA A   1     -34.538  25.514   3.537  0.00  0.00    -0.001 C 
ATOM     20  CD2 ALA A   1     -34.304  25.984   5.895  0.00  0.00    -0.001 C 
ATOM     21  CE1 ALA A   1     -33.552  26.457   3.250  0.00  0.00    +0.036 C 
ATOM     22  CE2 ALA A   1     -33.318  26.928   5.608  0.00  0.00    +0.036 C 
ATOM     23  CZ  ALA A   1     -32.941  27.165   4.286  0.00  0.00    +0.134 C 
BRANCH  23  24
ATOM     24  OH  ALA A   1     -31.980  28.086   4.005  0.00  0.00    -0.506 OA
ATOM     25  HH  ALA A   1     -31.143  28.032   4.421  0.00  0.00    +0.292 HD
ENDBRANCH  23  24
ENDBRANCH  17  18
ENDBRANCH   1  17
TORSDOF 8
ENDMDL
MODEL 9
REMARK VINA RESULT:      -5.5      4.067      6.585
REMARK  Name = 194347
REMARK  8 active torsions:
REMARK  status: ('A' for Active; 'I' for Inactive)
REMARK    1  A    between atoms: CA_1  and  N_3
REMARK    2  A    between atoms: CA_1  and  C_14
REMARK    3  A    between atoms: CA_1  and  CB_17
REMARK    4  A    between atoms: C_4  and  CA_6
REMARK    5  A    between atoms: CA_6  and  N_9
REMARK    6  A    between atoms: C_14  and  O_15
REMARK    7  A    between atoms: CB_17  and  CG_18
REMARK    8  A    between atoms: CZ_23  and  OH_24
REMARK                            x       y       z     vdW  Elec       q    Type
REMARK                         _______ _______ _______ _____ _____    ______ ____
ROOT
ATOM      1  CA  ALA A   1     -34.905  19.790   0.926  0.00  0.00    +0.176 C 
ENDROOT
BRANCH   1   3
ATOM      2  O   ALA A   1     -34.665  22.577   1.594  0.00  0.00    -0.273 OA
ATOM      3  N   ALA A   1     -35.659  20.507   1.927  0.00  0.00    -0.295 N 
ATOM      4  C   ALA A   1     -35.473  21.859   2.180  0.00  0.00    +0.241 C 
ATOM      5  H   ALA A   1     -36.333  20.017   2.452  0.00  0.00    +0.150 HD
BRANCH   4   6
ATOM      6  CA  ALA A   1     -36.426  22.379   3.248  0.00  0.00    +0.149 C 
ATOM      7  CB  ALA A   1     -37.784  22.708   2.649  0.00  0.00    +0.031 C 
BRANCH   6   9
ATOM      8  O   UNK A   0     -35.906  22.823   6.069  0.00  0.00    -0.275 OA
ATOM      9  N   ALA A   1     -35.826  23.537   3.854  0.00  0.00    -0.298 N 
ATOM     10  C   UNK A   0     -35.615  23.662   5.220  0.00  0.00    +0.223 C 
ATOM     11  C   UNK A   0     -34.948  24.962   5.583  0.00  0.00    +0.095 C 
ATOM     12  H   ALA A   1     -35.550  24.280   3.270  0.00  0.00    +0.150 HD
ENDBRANCH   6   9
ENDBRANCH   4   6
ENDBRANCH   1   3
BRANCH   1  14
ATOM     13  OXT ALA A   1     -35.442  18.246  -0.857  0.00  0.00    -0.248 OA
ATOM     14  C   ALA A   1     -35.783  18.791   0.188  0.00  0.00    +0.332 C 
BRANCH  14  15
ATOM     15  O   ALA A   1     -36.976  18.538   0.777  0.00  0.00    -0.479 OA
ATOM     16  H   ALA A   1     -37.280  19.087   1.474  0.00  0.00    +0.295 HD
ENDBRANCH  14  15
ENDBRANCH   1  14
BRANCH   1  17
ATOM     17  CB  ALA A   1     -33.703  19.069   1.550  0.00  0.00    +0.057 C 
BRANCH  17  18
ATOM     18  CG  ALA A   1     -32.413  19.320   0.805  0.00  0.00    -0.020 C 
ATOM     19  CD1 ALA A   1     -31.395  18.383   0.873  0.00  0.00    -0.001 C 
ATOM     20  CD2 ALA A   1     -32.273  20.485   0.065  0.00  0.00    -0.001 C 
ATOM     21  CE1 ALA A   1     -30.205  18.616   0.186  0.00  0.00    +0.036 C 
ATOM     22  CE2 ALA A   1     -31.083  20.716  -0.623  0.00  0.00    +0.036 C 
ATOM     23  CZ  ALA A   1     -30.048  19.783  -0.563  0.00  0.00    +0.134 C 
BRANCH  23  24
ATOM     24  OH  ALA A   1     -28.886  20.008  -1.234  0.00  0.00    -0.506 OA
ATOM     25  HH  ALA A   1     -28.203  19.368  -1.218  0.00  0.00    +0.292 HD
ENDBRANCH  23  24
ENDBRANCH  17  18
ENDBRANCH   1  17
TORSDOF 8
ENDMDL
