MODEL 1
REMARK VINA RESULT:      -6.5      0.000      0.000
REMARK  Name = 190922
REMARK  3 active torsions:
REMARK  status: ('A' for Active; 'I' for Inactive)
REMARK    1  A    between atoms: C_9  and  O_19
REMARK    2  A    between atoms: C_12  and  O_21
REMARK    3  A    between atoms: C_17  and  O_23
REMARK                            x       y       z     vdW  Elec       q    Type
REMARK                         _______ _______ _______ _____ _____    ______ ____
ROOT
ATOM      1  O   UNL     1     -35.000  22.390   3.281  0.00  0.00    -0.453 OA
ATOM      2  O   UNL     1     -39.173  20.024  -0.042  0.00  0.00    -0.417 OA
ATOM      3  O   UNL     1     -37.864  18.236  -0.688  0.00  0.00    -0.245 OA
ATOM      4  C   UNL     1     -36.908  21.898   2.169  0.00  0.00    +0.039 A 
ATOM      5  C   UNL     1     -37.663  21.080   1.320  0.00  0.00    +0.059 C 
ATOM      6  C   UNL     1     -37.109  23.112   2.887  0.00  0.00    +0.034 A 
ATOM      7  C   UNL     1     -35.599  21.499   2.442  0.00  0.00    +0.148 A 
ATOM      8  C   UNL     1     -37.072  19.940   0.794  0.00  0.00    +0.111 C 
ATOM      9  C   UNL     1     -39.058  21.185   0.815  0.00  0.00    +0.312 C 
ATOM     10  C   UNL     1     -35.911  23.366   3.550  0.00  0.00    +0.148 A 
ATOM     11  C   UNL     1     -38.167  24.026   3.050  0.00  0.00    -0.016 C 
ATOM     12  C   UNL     1     -35.771  19.551   1.068  0.00  0.00    +0.143 C 
ATOM     13  C   UNL     1     -34.999  20.345   1.921  0.00  0.00    +0.074 C 
ATOM     14  C   UNL     1     -38.034  19.267  -0.066  0.00  0.00    +0.346 C 
ATOM     15  C   UNL     1     -35.690  24.470   4.371  0.00  0.00    +0.074 C 
ATOM     16  C   UNL     1     -37.975  25.146   3.868  0.00  0.00    +0.033 C 
ATOM     17  C   UNL     1     -36.757  25.362   4.518  0.00  0.00    +0.136 C 
ATOM     18  C   UNL     1     -39.497  23.910   2.377  0.00  0.00    +0.031 C 
ENDROOT
BRANCH   9  19
ATOM     19  O   UNL     1     -40.029  21.117   1.848  0.00  0.00    -0.347 OA
ATOM     20  H   UNL     1     -40.748  20.525   1.576  0.00  0.00    +0.214 HD
ENDBRANCH   9  19
BRANCH  12  21
ATOM     21  O   UNL     1     -35.233  18.424   0.532  0.00  0.00    -0.505 OA
ATOM     22  H   UNL     1     -35.758  17.654   0.440  0.00  0.00    +0.292 HD
ENDBRANCH  12  21
BRANCH  17  23
ATOM     23  O   UNL     1     -36.604  26.463   5.308  0.00  0.00    -0.505 OA
ATOM     24  H   UNL     1     -36.227  27.245   4.954  0.00  0.00    +0.292 HD
ENDBRANCH  17  23
TORSDOF 3
ENDMDL
MODEL 2
REMARK VINA RESULT:      -6.3      3.626      5.689
REMARK  Name = 190922
REMARK  3 active torsions:
REMARK  status: ('A' for Active; 'I' for Inactive)
REMARK    1  A    between atoms: C_9  and  O_19
REMARK    2  A    between atoms: C_12  and  O_21
REMARK    3  A    between atoms: C_17  and  O_23
REMARK                            x       y       z     vdW  Elec       q    Type
REMARK                         _______ _______ _______ _____ _____    ______ ____
ROOT
ATOM      1  O   UNL     1     -33.267  26.228   5.587  0.00  0.00    -0.453 OA
ATOM      2  O   UNL     1     -37.630  24.819   1.975  0.00  0.00    -0.417 OA
ATOM      3  O   UNL     1     -38.082  22.825   3.047  0.00  0.00    -0.245 OA
ATOM      4  C   UNL     1     -34.838  26.162   3.960  0.00  0.00    +0.039 A 
ATOM      5  C   UNL     1     -35.909  25.540   3.305  0.00  0.00    +0.059 C 
ATOM      6  C   UNL     1     -34.092  27.366   3.813  0.00  0.00    +0.034 A 
ATOM      7  C   UNL     1     -34.291  25.500   5.060  0.00  0.00    +0.148 A 
ATOM      8  C   UNL     1     -36.351  24.311   3.773  0.00  0.00    +0.111 C 
ATOM      9  C   UNL     1     -36.722  25.937   2.126  0.00  0.00    +0.312 C 
ATOM     10  C   UNL     1     -33.146  27.356   4.833  0.00  0.00    +0.148 A 
ATOM     11  C   UNL     1     -34.109  28.462   2.930  0.00  0.00    -0.016 C 
ATOM     12  C   UNL     1     -35.802  23.659   4.865  0.00  0.00    +0.143 C 
ATOM     13  C   UNL     1     -34.739  24.263   5.542  0.00  0.00    +0.074 C 
ATOM     14  C   UNL     1     -37.449  23.857   2.932  0.00  0.00    +0.346 C 
ATOM     15  C   UNL     1     -32.210  28.368   5.043  0.00  0.00    +0.074 C 
ATOM     16  C   UNL     1     -33.179  29.494   3.114  0.00  0.00    +0.033 C 
ATOM     17  C   UNL     1     -32.248  29.446   4.154  0.00  0.00    +0.136 C 
ATOM     18  C   UNL     1     -35.037  28.599   1.766  0.00  0.00    +0.031 C 
ENDROOT
BRANCH   9  19
ATOM     19  O   UNL     1     -37.462  27.130   2.337  0.00  0.00    -0.347 OA
ATOM     20  H   UNL     1     -37.462  27.347   3.282  0.00  0.00    +0.214 HD
ENDBRANCH   9  19
BRANCH  12  21
ATOM     21  O   UNL     1     -36.270  22.455   5.289  0.00  0.00    -0.505 OA
ATOM     22  H   UNL     1     -37.155  22.206   5.105  0.00  0.00    +0.292 HD
ENDBRANCH  12  21
BRANCH  17  23
ATOM     23  O   UNL     1     -31.358  30.468   4.305  0.00  0.00    -0.505 OA
ATOM     24  H   UNL     1     -31.191  30.822   5.156  0.00  0.00    +0.292 HD
ENDBRANCH  17  23
TORSDOF 3
ENDMDL
MODEL 3
REMARK VINA RESULT:      -6.3      3.157      7.171
REMARK  Name = 190922
REMARK  3 active torsions:
REMARK  status: ('A' for Active; 'I' for Inactive)
REMARK    1  A    between atoms: C_9  and  O_19
REMARK    2  A    between atoms: C_12  and  O_21
REMARK    3  A    between atoms: C_17  and  O_23
REMARK                            x       y       z     vdW  Elec       q    Type
REMARK                         _______ _______ _______ _____ _____    ______ ____
ROOT
ATOM      1  O   UNL     1     -34.529  23.982   1.030  0.00  0.00    -0.453 OA
ATOM      2  O   UNL     1     -33.247  27.533   5.480  0.00  0.00    -0.417 OA
ATOM      3  O   UNL     1     -32.378  29.183   4.118  0.00  0.00    -0.245 OA
ATOM      4  C   UNL     1     -34.253  24.959   3.052  0.00  0.00    +0.039 A 
ATOM      5  C   UNL     1     -33.836  26.026   3.858  0.00  0.00    +0.059 C 
ATOM      6  C   UNL     1     -34.850  23.682   3.250  0.00  0.00    +0.034 A 
ATOM      7  C   UNL     1     -34.074  25.093   1.674  0.00  0.00    +0.148 A 
ATOM      8  C   UNL     1     -33.265  27.135   3.251  0.00  0.00    +0.111 C 
ATOM      9  C   UNL     1     -33.865  26.233   5.330  0.00  0.00    +0.312 C 
ATOM     10  C   UNL     1     -34.998  23.128   1.982  0.00  0.00    +0.148 A 
ATOM     11  C   UNL     1     -35.281  22.930   4.359  0.00  0.00    -0.016 C 
ATOM     12  C   UNL     1     -33.089  27.260   1.883  0.00  0.00    +0.143 C 
ATOM     13  C   UNL     1     -33.506  26.214   1.055  0.00  0.00    +0.074 C 
ATOM     14  C   UNL     1     -32.897  28.095   4.282  0.00  0.00    +0.346 C 
ATOM     15  C   UNL     1     -35.551  21.872   1.736  0.00  0.00    +0.074 C 
ATOM     16  C   UNL     1     -35.840  21.664   4.144  0.00  0.00    +0.033 C 
ATOM     17  C   UNL     1     -35.972  21.146   2.853  0.00  0.00    +0.136 C 
ATOM     18  C   UNL     1     -35.157  23.372   5.782  0.00  0.00    +0.031 C 
ENDROOT
BRANCH   9  19
ATOM     19  O   UNL     1     -35.180  26.262   5.862  0.00  0.00    -0.347 OA
ATOM     20  H   UNL     1     -35.511  25.355   5.957  0.00  0.00    +0.214 HD
ENDBRANCH   9  19
BRANCH  12  21
ATOM     21  O   UNL     1     -32.527  28.368   1.333  0.00  0.00    -0.505 OA
ATOM     22  H   UNL     1     -32.830  28.685   0.505  0.00  0.00    +0.292 HD
ENDBRANCH  12  21
BRANCH  17  23
ATOM     23  O   UNL     1     -36.521  19.910   2.679  0.00  0.00    -0.505 OA
ATOM     24  H   UNL     1     -36.916  19.467   3.404  0.00  0.00    +0.292 HD
ENDBRANCH  17  23
TORSDOF 3
ENDMDL
MODEL 4
REMARK VINA RESULT:      -6.2      1.880      3.988
REMARK  Name = 190922
REMARK  3 active torsions:
REMARK  status: ('A' for Active; 'I' for Inactive)
REMARK    1  A    between atoms: C_9  and  O_19
REMARK    2  A    between atoms: C_12  and  O_21
REMARK    3  A    between atoms: C_17  and  O_23
REMARK                            x       y       z     vdW  Elec       q    Type
REMARK                         _______ _______ _______ _____ _____    ______ ____
ROOT
ATOM      1  O   UNL     1     -38.207  25.806   3.607  0.00  0.00    -0.453 OA
ATOM      2  O   UNL     1     -38.971  20.587   1.108  0.00  0.00    -0.417 OA
ATOM      3  O   UNL     1     -41.001  21.159   0.170  0.00  0.00    -0.245 OA
ATOM      4  C   UNL     1     -38.017  23.678   2.861  0.00  0.00    +0.039 A 
ATOM      5  C   UNL     1     -38.498  22.578   2.140  0.00  0.00    +0.059 C 
ATOM      6  C   UNL     1     -36.869  23.981   3.647  0.00  0.00    +0.034 A 
ATOM      7  C   UNL     1     -38.807  24.829   2.871  0.00  0.00    +0.148 A 
ATOM      8  C   UNL     1     -39.721  22.688   1.494  0.00  0.00    +0.111 C 
ATOM      9  C   UNL     1     -37.945  21.217   1.912  0.00  0.00    +0.312 C 
ATOM     10  C   UNL     1     -37.036  25.294   4.077  0.00  0.00    +0.148 A 
ATOM     11  C   UNL     1     -35.708  23.291   4.045  0.00  0.00    -0.016 C 
ATOM     12  C   UNL     1     -40.500  23.833   1.509  0.00  0.00    +0.143 C 
ATOM     13  C   UNL     1     -40.038  24.949   2.214  0.00  0.00    +0.074 C 
ATOM     14  C   UNL     1     -40.018  21.425   0.834  0.00  0.00    +0.346 C 
ATOM     15  C   UNL     1     -36.121  25.977   4.878  0.00  0.00    +0.074 C 
ATOM     16  C   UNL     1     -34.772  23.951   4.852  0.00  0.00    +0.033 C 
ATOM     17  C   UNL     1     -34.976  25.271   5.259  0.00  0.00    +0.136 C 
ATOM     18  C   UNL     1     -35.405  21.870   3.696  0.00  0.00    +0.031 C 
ENDROOT
BRANCH   9  19
ATOM     19  O   UNL     1     -36.717  21.228   1.200  0.00  0.00    -0.347 OA
ATOM     20  H   UNL     1     -36.079  21.793   1.664  0.00  0.00    +0.214 HD
ENDBRANCH   9  19
BRANCH  12  21
ATOM     21  O   UNL     1     -41.692  23.896   0.860  0.00  0.00    -0.505 OA
ATOM     22  H   UNL     1     -42.408  23.363   1.143  0.00  0.00    +0.292 HD
ENDBRANCH  12  21
BRANCH  17  23
ATOM     23  O   UNL     1     -34.044  25.884   6.043  0.00  0.00    -0.505 OA
ATOM     24  H   UNL     1     -33.393  25.373   6.483  0.00  0.00    +0.292 HD
ENDBRANCH  17  23
TORSDOF 3
ENDMDL
MODEL 5
REMARK VINA RESULT:      -6.2      3.506      6.345
REMARK  Name = 190922
REMARK  3 active torsions:
REMARK  status: ('A' for Active; 'I' for Inactive)
REMARK    1  A    between atoms: C_9  and  O_19
REMARK    2  A    between atoms: C_12  and  O_21
REMARK    3  A    between atoms: C_17  and  O_23
REMARK                            x       y       z     vdW  Elec       q    Type
REMARK                         _______ _______ _______ _____ _____    ______ ____
ROOT
ATOM      1  O   UNL     1     -35.382  22.832   1.699  0.00  0.00    -0.453 OA
ATOM      2  O   UNL     1     -34.110  28.489   2.365  0.00  0.00    -0.417 OA
ATOM      3  O   UNL     1     -34.160  28.928   0.100  0.00  0.00    -0.245 OA
ATOM      4  C   UNL     1     -34.895  24.897   2.487  0.00  0.00    +0.039 A 
ATOM      5  C   UNL     1     -34.621  26.257   2.292  0.00  0.00    +0.059 C 
ATOM      6  C   UNL     1     -35.009  24.011   3.595  0.00  0.00    +0.034 A 
ATOM      7  C   UNL     1     -35.129  24.124   1.348  0.00  0.00    +0.148 A 
ATOM      8  C   UNL     1     -34.587  26.750   0.996  0.00  0.00    +0.111 C 
ATOM      9  C   UNL     1     -34.326  27.359   3.245  0.00  0.00    +0.312 C 
ATOM     10  C   UNL     1     -35.309  22.763   3.057  0.00  0.00    +0.148 A 
ATOM     11  C   UNL     1     -34.891  24.122   4.993  0.00  0.00    -0.016 C 
ATOM     12  C   UNL     1     -34.820  25.977  -0.129  0.00  0.00    +0.143 C 
ATOM     13  C   UNL     1     -35.105  24.619   0.037  0.00  0.00    +0.074 C 
ATOM     14  C   UNL     1     -34.269  28.170   1.044  0.00  0.00    +0.346 C 
ATOM     15  C   UNL     1     -35.505  21.609   3.816  0.00  0.00    +0.074 C 
ATOM     16  C   UNL     1     -35.080  22.981   5.783  0.00  0.00    +0.033 C 
ATOM     17  C   UNL     1     -35.383  21.747   5.202  0.00  0.00    +0.136 C 
ATOM     18  C   UNL     1     -34.538  25.383   5.716  0.00  0.00    +0.031 C 
ENDROOT
BRANCH   9  19
ATOM     19  O   UNL     1     -35.405  27.637   4.125  0.00  0.00    -0.347 OA
ATOM     20  H   UNL     1     -35.730  26.808   4.509  0.00  0.00    +0.214 HD
ENDBRANCH   9  19
BRANCH  12  21
ATOM     21  O   UNL     1     -34.778  26.505  -1.381  0.00  0.00    -0.505 OA
ATOM     22  H   UNL     1     -34.073  27.071  -1.627  0.00  0.00    +0.292 HD
ENDBRANCH  12  21
BRANCH  17  23
ATOM     23  O   UNL     1     -35.562  20.656   6.000  0.00  0.00    -0.505 OA
ATOM     24  H   UNL     1     -35.797  20.768   6.901  0.00  0.00    +0.292 HD
ENDBRANCH  17  23
TORSDOF 3
ENDMDL
MODEL 6
REMARK VINA RESULT:      -6.1      1.245      6.345
REMARK  Name = 190922
REMARK  3 active torsions:
REMARK  status: ('A' for Active; 'I' for Inactive)
REMARK    1  A    between atoms: C_9  and  O_19
REMARK    2  A    between atoms: C_12  and  O_21
REMARK    3  A    between atoms: C_17  and  O_23
REMARK                            x       y       z     vdW  Elec       q    Type
REMARK                         _______ _______ _______ _____ _____    ______ ____
ROOT
ATOM      1  O   UNL     1     -39.239  22.438   0.802  0.00  0.00    -0.453 OA
ATOM      2  O   UNL     1     -35.314  24.064   4.804  0.00  0.00    -0.417 OA
ATOM      3  O   UNL     1     -36.405  26.037   5.300  0.00  0.00    -0.245 OA
ATOM      4  C   UNL     1     -37.487  22.592   2.226  0.00  0.00    +0.039 A 
ATOM      5  C   UNL     1     -36.763  23.260   3.222  0.00  0.00    +0.059 C 
ATOM      6  C   UNL     1     -37.367  21.373   1.499  0.00  0.00    +0.034 A 
ATOM      7  C   UNL     1     -38.649  23.208   1.759  0.00  0.00    +0.148 A 
ATOM      8  C   UNL     1     -37.229  24.487   3.673  0.00  0.00    +0.111 C 
ATOM      9  C   UNL     1     -35.507  22.919   3.940  0.00  0.00    +0.312 C 
ATOM     10  C   UNL     1     -38.464  21.329   0.644  0.00  0.00    +0.148 A 
ATOM     11  C   UNL     1     -36.452  20.303   1.465  0.00  0.00    -0.016 C 
ATOM     12  C   UNL     1     -38.383  25.093   3.204  0.00  0.00    +0.143 C 
ATOM     13  C   UNL     1     -39.129  24.442   2.217  0.00  0.00    +0.074 C 
ATOM     14  C   UNL     1     -36.312  24.993   4.683  0.00  0.00    +0.346 C 
ATOM     15  C   UNL     1     -38.721  20.287  -0.247  0.00  0.00    +0.074 C 
ATOM     16  C   UNL     1     -36.683  19.243   0.580  0.00  0.00    +0.033 C 
ATOM     17  C   UNL     1     -37.799  19.236  -0.260  0.00  0.00    +0.136 C 
ATOM     18  C   UNL     1     -35.211  20.224   2.294  0.00  0.00    +0.031 C 
ENDROOT
BRANCH   9  19
ATOM     19  O   UNL     1     -35.618  21.740   4.723  0.00  0.00    -0.347 OA
ATOM     20  H   UNL     1     -36.141  21.080   4.241  0.00  0.00    +0.214 HD
ENDBRANCH   9  19
BRANCH  12  21
ATOM     21  O   UNL     1     -38.802  26.295   3.678  0.00  0.00    -0.505 OA
ATOM     22  H   UNL     1     -38.975  26.403   4.593  0.00  0.00    +0.292 HD
ENDBRANCH  12  21
BRANCH  17  23
ATOM     23  O   UNL     1     -37.994  18.188  -1.109  0.00  0.00    -0.505 OA
ATOM     24  H   UNL     1     -38.599  18.267  -1.821  0.00  0.00    +0.292 HD
ENDBRANCH  17  23
TORSDOF 3
ENDMDL
MODEL 7
REMARK VINA RESULT:      -6.0      2.415      3.406
REMARK  Name = 190922
REMARK  3 active torsions:
REMARK  status: ('A' for Active; 'I' for Inactive)
REMARK    1  A    between atoms: C_9  and  O_19
REMARK    2  A    between atoms: C_12  and  O_21
REMARK    3  A    between atoms: C_17  and  O_23
REMARK                            x       y       z     vdW  Elec       q    Type
REMARK                         _______ _______ _______ _____ _____    ______ ____
ROOT
ATOM      1  O   UNL     1     -33.735  25.163   1.574  0.00  0.00    -0.453 OA
ATOM      2  O   UNL     1     -36.581  20.108   2.213  0.00  0.00    -0.417 OA
ATOM      3  O   UNL     1     -36.454  19.573  -0.028  0.00  0.00    -0.245 OA
ATOM      4  C   UNL     1     -34.844  23.349   2.347  0.00  0.00    +0.039 A 
ATOM      5  C   UNL     1     -35.466  22.109   2.151  0.00  0.00    +0.059 C 
ATOM      6  C   UNL     1     -34.586  24.217   3.446  0.00  0.00    +0.034 A 
ATOM      7  C   UNL     1     -34.304  23.977   1.223  0.00  0.00    +0.148 A 
ATOM      8  C   UNL     1     -35.520  21.587   0.867  0.00  0.00    +0.111 C 
ATOM      9  C   UNL     1     -36.138  21.173   3.090  0.00  0.00    +0.312 C 
ATOM     10  C   UNL     1     -33.905  25.310   2.917  0.00  0.00    +0.148 A 
ATOM     11  C   UNL     1     -34.854  24.203   4.828  0.00  0.00    -0.016 C 
ATOM     12  C   UNL     1     -34.984  22.217  -0.244  0.00  0.00    +0.143 C 
ATOM     13  C   UNL     1     -34.349  23.451  -0.075  0.00  0.00    +0.074 C 
ATOM     14  C   UNL     1     -36.223  20.313   0.908  0.00  0.00    +0.346 C 
ATOM     15  C   UNL     1     -33.465  26.397   3.672  0.00  0.00    +0.074 C 
ATOM     16  C   UNL     1     -34.426  25.283   5.611  0.00  0.00    +0.033 C 
ATOM     17  C   UNL     1     -33.742  26.359   5.041  0.00  0.00    +0.136 C 
ATOM     18  C   UNL     1     -35.605  23.121   5.534  0.00  0.00    +0.031 C 
ENDROOT
BRANCH   9  19
ATOM     19  O   UNL     1     -35.261  20.648   4.075  0.00  0.00    -0.347 OA
ATOM     20  H   UNL     1     -35.708  19.936   4.559  0.00  0.00    +0.214 HD
ENDBRANCH   9  19
BRANCH  12  21
ATOM     21  O   UNL     1     -35.059  21.666  -1.484  0.00  0.00    -0.505 OA
ATOM     22  H   UNL     1     -34.406  21.866  -2.126  0.00  0.00    +0.292 HD
ENDBRANCH  12  21
BRANCH  17  23
ATOM     23  O   UNL     1     -33.339  27.393   5.833  0.00  0.00    -0.505 OA
ATOM     24  H   UNL     1     -32.911  28.135   5.453  0.00  0.00    +0.292 HD
ENDBRANCH  17  23
TORSDOF 3
ENDMDL
MODEL 8
REMARK VINA RESULT:      -6.0      4.281      8.389
REMARK  Name = 190922
REMARK  3 active torsions:
REMARK  status: ('A' for Active; 'I' for Inactive)
REMARK    1  A    between atoms: C_9  and  O_19
REMARK    2  A    between atoms: C_12  and  O_21
REMARK    3  A    between atoms: C_17  and  O_23
REMARK                            x       y       z     vdW  Elec       q    Type
REMARK                         _______ _______ _______ _____ _____    ______ ____
ROOT
ATOM      1  O   UNL     1     -34.441  25.387   6.278  0.00  0.00    -0.453 OA
ATOM      2  O   UNL     1     -31.502  29.103   2.871  0.00  0.00    -0.417 OA
ATOM      3  O   UNL     1     -30.466  30.156   4.645  0.00  0.00    -0.245 OA
ATOM      4  C   UNL     1     -33.551  26.555   4.557  0.00  0.00    +0.039 A 
ATOM      5  C   UNL     1     -32.714  27.558   4.051  0.00  0.00    +0.059 C 
ATOM      6  C   UNL     1     -34.438  25.578   4.023  0.00  0.00    +0.034 A 
ATOM      7  C   UNL     1     -33.592  26.398   5.944  0.00  0.00    +0.148 A 
ATOM      8  C   UNL     1     -31.992  28.336   4.944  0.00  0.00    +0.111 C 
ATOM      9  C   UNL     1     -32.424  28.006   2.663  0.00  0.00    +0.312 C 
ATOM     10  C   UNL     1     -34.954  24.891   5.118  0.00  0.00    +0.148 A 
ATOM     11  C   UNL     1     -34.865  25.197   2.737  0.00  0.00    -0.016 C 
ATOM     12  C   UNL     1     -32.039  28.176   6.319  0.00  0.00    +0.143 C 
ATOM     13  C   UNL     1     -32.859  27.175   6.850  0.00  0.00    +0.074 C 
ATOM     14  C   UNL     1     -31.217  29.314   4.193  0.00  0.00    +0.346 C 
ATOM     15  C   UNL     1     -35.869  23.843   5.025  0.00  0.00    +0.074 C 
ATOM     16  C   UNL     1     -35.785  24.148   2.611  0.00  0.00    +0.033 C 
ATOM     17  C   UNL     1     -36.276  23.484   3.737  0.00  0.00    +0.136 C 
ATOM     18  C   UNL     1     -34.430  25.860   1.469  0.00  0.00    +0.031 C 
ENDROOT
BRANCH   9  19
ATOM     19  O   UNL     1     -31.804  27.002   1.873  0.00  0.00    -0.347 OA
ATOM     20  H   UNL     1     -30.991  26.704   2.310  0.00  0.00    +0.214 HD
ENDBRANCH   9  19
BRANCH  12  21
ATOM     21  O   UNL     1     -31.312  28.962   7.156  0.00  0.00    -0.505 OA
ATOM     22  H   UNL     1     -30.378  28.891   7.170  0.00  0.00    +0.292 HD
ENDBRANCH  12  21
BRANCH  17  23
ATOM     23  O   UNL     1     -37.170  22.466   3.578  0.00  0.00    -0.505 OA
ATOM     24  H   UNL     1     -37.653  22.387   2.779  0.00  0.00    +0.292 HD
ENDBRANCH  17  23
TORSDOF 3
ENDMDL
MODEL 9
REMARK VINA RESULT:      -6.0      8.566     11.653
REMARK  Name = 190922
REMARK  3 active torsions:
REMARK  status: ('A' for Active; 'I' for Inactive)
REMARK    1  A    between atoms: C_9  and  O_19
REMARK    2  A    between atoms: C_12  and  O_21
REMARK    3  A    between atoms: C_17  and  O_23
REMARK                            x       y       z     vdW  Elec       q    Type
REMARK                         _______ _______ _______ _____ _____    ______ ____
ROOT
ATOM      1  O   UNL     1     -46.512  25.745   5.403  0.00  0.00    -0.453 OA
ATOM      2  O   UNL     1     -43.132  30.460   6.033  0.00  0.00    -0.417 OA
ATOM      3  O   UNL     1     -43.915  30.932   8.152  0.00  0.00    -0.245 OA
ATOM      4  C   UNL     1     -45.026  27.432   5.151  0.00  0.00    +0.039 A 
ATOM      5  C   UNL     1     -44.368  28.575   5.623  0.00  0.00    +0.059 C 
ATOM      6  C   UNL     1     -45.012  26.643   3.966  0.00  0.00    +0.034 A 
ATOM      7  C   UNL     1     -45.964  26.841   5.998  0.00  0.00    +0.148 A 
ATOM      8  C   UNL     1     -44.690  29.056   6.884  0.00  0.00    +0.111 C 
ATOM      9  C   UNL     1     -43.334  29.452   5.013  0.00  0.00    +0.312 C 
ATOM     10  C   UNL     1     -45.937  25.625   4.174  0.00  0.00    +0.148 A 
ATOM     11  C   UNL     1     -44.322  26.676   2.739  0.00  0.00    -0.016 C 
ATOM     12  C   UNL     1     -45.624  28.464   7.719  0.00  0.00    +0.143 C 
ATOM     13  C   UNL     1     -46.288  27.317   7.276  0.00  0.00    +0.074 C 
ATOM     14  C   UNL     1     -43.899  30.250   7.146  0.00  0.00    +0.346 C 
ATOM     15  C   UNL     1     -46.226  24.627   3.243  0.00  0.00    +0.074 C 
ATOM     16  C   UNL     1     -44.591  25.687   1.784  0.00  0.00    +0.033 C 
ATOM     17  C   UNL     1     -45.527  24.681   2.034  0.00  0.00    +0.136 C 
ATOM     18  C   UNL     1     -43.327  27.723   2.354  0.00  0.00    +0.031 C 
ENDROOT
BRANCH   9  19
ATOM     19  O   UNL     1     -42.112  28.777   4.758  0.00  0.00    -0.347 OA
ATOM     20  H   UNL     1     -41.396  29.426   4.672  0.00  0.00    +0.214 HD
ENDBRANCH   9  19
BRANCH  12  21
ATOM     21  O   UNL     1     -45.905  28.970   8.948  0.00  0.00    -0.505 OA
ATOM     22  H   UNL     1     -45.313  28.826   9.660  0.00  0.00    +0.292 HD
ENDBRANCH  12  21
BRANCH  17  23
ATOM     23  O   UNL     1     -45.764  23.734   1.082  0.00  0.00    -0.505 OA
ATOM     24  H   UNL     1     -45.803  23.978   0.178  0.00  0.00    +0.292 HD
ENDBRANCH  17  23
TORSDOF 3
ENDMDL
