MODEL 1
REMARK VINA RESULT:      -6.6      0.000      0.000
REMARK  Name = 21145476
REMARK  5 active torsions:
REMARK  status: ('A' for Active; 'I' for Inactive)
REMARK    1  A    between atoms: C_2  and  N_18
REMARK    2  A    between atoms: C_3  and  O_22
REMARK    3  A    between atoms: C_4  and  N_6
REMARK    4  A    between atoms: C_5  and  C_24
REMARK    5  A    between atoms: C_24  and  O_25
REMARK                            x       y       z     vdW  Elec       q    Type
REMARK                         _______ _______ _______ _____ _____    ______ ____
ROOT
ATOM      1  O   UNL     1     -35.223  24.367   5.818  0.00  0.00    -0.338 OA
ATOM      2  C   UNL     1     -36.143  23.220   3.981  0.00  0.00    -0.004 C 
ATOM      3  C   UNL     1     -36.633  24.659   3.897  0.00  0.00    +0.140 C 
ATOM      4  C   UNL     1     -35.778  25.373   4.947  0.00  0.00    +0.220 C 
ATOM      5  C   UNL     1     -35.785  23.093   5.458  0.00  0.00    +0.129 C 
ENDROOT
BRANCH   4   6
ATOM      6  N   UNL     1     -34.695  26.174   4.375  0.00  0.00    -0.247 N 
ATOM      7  N   UNL     1     -33.451  27.202   2.836  0.00  0.00    -0.242 NA
ATOM      8  N   UNL     1     -33.454  26.768   6.377  0.00  0.00    -0.228 NA
ATOM      9  N   UNL     1     -31.513  28.145   5.841  0.00  0.00    -0.229 NA
ATOM     10  N   UNL     1     -30.972  28.787   3.600  0.00  0.00    -0.342 N 
ATOM     11  C   UNL     1     -33.676  26.780   5.054  0.00  0.00    +0.152 C 
ATOM     12  C   UNL     1     -34.516  26.456   3.046  0.00  0.00    +0.223 C 
ATOM     13  C   UNL     1     -32.917  27.411   4.082  0.00  0.00    +0.140 C 
ATOM     14  C   UNL     1     -31.798  28.114   4.518  0.00  0.00    +0.143 C 
ATOM     15  C   UNL     1     -32.346  27.479   6.676  0.00  0.00    +0.253 C 
ATOM     16  H   UNL     1     -30.183  29.282   3.920  0.00  0.00    +0.144 HD
ATOM     17  H   UNL     1     -31.182  28.763   2.639  0.00  0.00    +0.144 HD
ENDBRANCH   4   6
BRANCH   2  18
ATOM     18  N   UNL     1     -37.101  22.229   3.523  0.00  0.00    +0.385 N 
ATOM     19  H   UNL     1     -38.047  22.551   3.727  0.00  0.00    -0.089 HD
ATOM     20  H   UNL     1     -36.931  21.345   4.004  0.00  0.00    -0.089 HD
ATOM     21  H   UNL     1     -36.996  22.095   2.518  0.00  0.00    -0.089 HD
ENDBRANCH   2  18
BRANCH   3  22
ATOM     22  O   UNL     1     -38.008  24.774   4.265  0.00  0.00    -0.382 OA
ATOM     23  H   UNL     1     -38.525  24.099   3.800  0.00  0.00    +0.210 HD
ENDBRANCH   3  22
BRANCH   5  24
ATOM     24  C   UNL     1     -34.789  21.988   5.765  0.00  0.00    +0.165 C 
BRANCH  24  25
ATOM     25  O   UNL     1     -35.477  20.749   5.801  0.00  0.00    -0.380 OA
ATOM     26  H   UNL     1     -34.839  20.023   5.709  0.00  0.00    +0.211 HD
ENDBRANCH  24  25
ENDBRANCH   5  24
TORSDOF 5
ENDMDL
MODEL 2
REMARK VINA RESULT:      -6.0      1.171      2.290
REMARK  Name = 21145476
REMARK  5 active torsions:
REMARK  status: ('A' for Active; 'I' for Inactive)
REMARK    1  A    between atoms: C_2  and  N_18
REMARK    2  A    between atoms: C_3  and  O_22
REMARK    3  A    between atoms: C_4  and  N_6
REMARK    4  A    between atoms: C_5  and  C_24
REMARK    5  A    between atoms: C_24  and  O_25
REMARK                            x       y       z     vdW  Elec       q    Type
REMARK                         _______ _______ _______ _____ _____    ______ ____
ROOT
ATOM      1  O   UNL     1     -35.423  24.354   6.058  0.00  0.00    -0.338 OA
ATOM      2  C   UNL     1     -36.089  23.234   4.099  0.00  0.00    -0.004 C 
ATOM      3  C   UNL     1     -36.632  24.653   4.005  0.00  0.00    +0.140 C 
ATOM      4  C   UNL     1     -35.928  25.366   5.162  0.00  0.00    +0.220 C 
ATOM      5  C   UNL     1     -35.886  23.070   5.601  0.00  0.00    +0.129 C 
ENDROOT
BRANCH   4   6
ATOM      6  N   UNL     1     -34.826  26.231   4.735  0.00  0.00    -0.247 N 
ATOM      7  N   UNL     1     -32.821  27.206   4.736  0.00  0.00    -0.242 NA
ATOM      8  N   UNL     1     -35.795  27.272   2.765  0.00  0.00    -0.228 NA
ATOM      9  N   UNL     1     -34.231  28.830   1.727  0.00  0.00    -0.229 NA
ATOM     10  N   UNL     1     -32.038  29.223   2.600  0.00  0.00    -0.342 N 
ATOM     11  C   UNL     1     -34.812  27.067   3.654  0.00  0.00    +0.152 C 
ATOM     12  C   UNL     1     -33.609  26.350   5.353  0.00  0.00    +0.223 C 
ATOM     13  C   UNL     1     -33.561  27.662   3.673  0.00  0.00    +0.140 C 
ATOM     14  C   UNL     1     -33.284  28.574   2.660  0.00  0.00    +0.143 C 
ATOM     15  C   UNL     1     -35.411  28.173   1.836  0.00  0.00    +0.253 C 
ATOM     16  H   UNL     1     -31.853  29.867   1.878  0.00  0.00    +0.144 HD
ATOM     17  H   UNL     1     -31.352  29.035   3.279  0.00  0.00    +0.144 HD
ENDBRANCH   4   6
BRANCH   2  18
ATOM     18  N   UNL     1     -36.946  22.220   3.510  0.00  0.00    +0.385 N 
ATOM     19  H   UNL     1     -37.335  22.569   2.634  0.00  0.00    -0.089 HD
ATOM     20  H   UNL     1     -37.706  22.001   4.156  0.00  0.00    -0.089 HD
ATOM     21  H   UNL     1     -36.402  21.377   3.328  0.00  0.00    -0.089 HD
ENDBRANCH   2  18
BRANCH   3  22
ATOM     22  O   UNL     1     -38.042  24.698   4.225  0.00  0.00    -0.382 OA
ATOM     23  H   UNL     1     -38.471  23.992   3.718  0.00  0.00    +0.210 HD
ENDBRANCH   3  22
BRANCH   5  24
ATOM     24  C   UNL     1     -34.879  21.998   5.981  0.00  0.00    +0.165 C 
BRANCH  24  25
ATOM     25  O   UNL     1     -35.470  20.725   5.785  0.00  0.00    -0.380 OA
ATOM     26  H   UNL     1     -36.058  20.756   5.014  0.00  0.00    +0.211 HD
ENDBRANCH  24  25
ENDBRANCH   5  24
TORSDOF 5
ENDMDL
MODEL 3
REMARK VINA RESULT:      -5.7      2.933      4.050
REMARK  Name = 21145476
REMARK  5 active torsions:
REMARK  status: ('A' for Active; 'I' for Inactive)
REMARK    1  A    between atoms: C_2  and  N_18
REMARK    2  A    between atoms: C_3  and  O_22
REMARK    3  A    between atoms: C_4  and  N_6
REMARK    4  A    between atoms: C_5  and  C_24
REMARK    5  A    between atoms: C_24  and  O_25
REMARK                            x       y       z     vdW  Elec       q    Type
REMARK                         _______ _______ _______ _____ _____    ______ ____
ROOT
ATOM      1  O   UNL     1     -36.014  21.469   3.112  0.00  0.00    -0.338 OA
ATOM      2  C   UNL     1     -37.021  20.868   1.072  0.00  0.00    -0.004 C 
ATOM      3  C   UNL     1     -38.014  21.754   1.813  0.00  0.00    +0.140 C 
ATOM      4  C   UNL     1     -37.179  22.308   2.970  0.00  0.00    +0.220 C 
ATOM      5  C   UNL     1     -36.143  20.356   2.209  0.00  0.00    +0.129 C 
ENDROOT
BRANCH   4   6
ATOM      6  N   UNL     1     -36.757  23.697   2.777  0.00  0.00    -0.247 N 
ATOM      7  N   UNL     1     -36.310  25.612   1.727  0.00  0.00    -0.242 NA
ATOM      8  N   UNL     1     -36.164  24.319   5.049  0.00  0.00    -0.228 NA
ATOM      9  N   UNL     1     -35.388  26.630   5.162  0.00  0.00    -0.229 NA
ATOM     10  N   UNL     1     -35.261  28.038   3.231  0.00  0.00    -0.342 N 
ATOM     11  C   UNL     1     -36.310  24.560   3.738  0.00  0.00    +0.152 C 
ATOM     12  C   UNL     1     -36.738  24.375   1.587  0.00  0.00    +0.223 C 
ATOM     13  C   UNL     1     -36.039  25.741   3.066  0.00  0.00    +0.140 C 
ATOM     14  C   UNL     1     -35.562  26.801   3.829  0.00  0.00    +0.143 C 
ATOM     15  C   UNL     1     -35.696  25.416   5.681  0.00  0.00    +0.253 C 
ATOM     16  H   UNL     1     -34.925  28.782   3.781  0.00  0.00    +0.144 HD
ATOM     17  H   UNL     1     -35.389  28.160   2.263  0.00  0.00    +0.144 HD
ENDBRANCH   4   6
BRANCH   2  18
ATOM     18  N   UNL     1     -37.630  19.812   0.282  0.00  0.00    +0.385 N 
ATOM     19  H   UNL     1     -38.056  19.125   0.903  0.00  0.00    -0.089 HD
ATOM     20  H   UNL     1     -36.915  19.360  -0.288  0.00  0.00    -0.089 HD
ATOM     21  H   UNL     1     -38.346  20.211  -0.325  0.00  0.00    -0.089 HD
ENDBRANCH   2  18
BRANCH   3  22
ATOM     22  O   UNL     1     -39.102  21.002   2.348  0.00  0.00    -0.382 OA
ATOM     23  H   UNL     1     -39.911  21.534   2.313  0.00  0.00    +0.210 HD
ENDBRANCH   3  22
BRANCH   5  24
ATOM     24  C   UNL     1     -34.765  19.891   1.771  0.00  0.00    +0.165 C 
BRANCH  24  25
ATOM     25  O   UNL     1     -34.911  18.759   0.929  0.00  0.00    -0.380 OA
ATOM     26  H   UNL     1     -35.852  18.545   0.834  0.00  0.00    +0.211 HD
ENDBRANCH  24  25
ENDBRANCH   5  24
TORSDOF 5
ENDMDL
MODEL 4
REMARK VINA RESULT:      -5.6      1.666      1.949
REMARK  Name = 21145476
REMARK  5 active torsions:
REMARK  status: ('A' for Active; 'I' for Inactive)
REMARK    1  A    between atoms: C_2  and  N_18
REMARK    2  A    between atoms: C_3  and  O_22
REMARK    3  A    between atoms: C_4  and  N_6
REMARK    4  A    between atoms: C_5  and  C_24
REMARK    5  A    between atoms: C_24  and  O_25
REMARK                            x       y       z     vdW  Elec       q    Type
REMARK                         _______ _______ _______ _____ _____    ______ ____
ROOT
ATOM      1  O   UNL     1     -34.406  24.483   5.176  0.00  0.00    -0.338 OA
ATOM      2  C   UNL     1     -36.460  24.911   4.113  0.00  0.00    -0.004 C 
ATOM      3  C   UNL     1     -35.938  26.247   4.621  0.00  0.00    +0.140 C 
ATOM      4  C   UNL     1     -34.502  25.916   5.038  0.00  0.00    +0.220 C 
ATOM      5  C   UNL     1     -35.718  23.920   5.003  0.00  0.00    +0.129 C 
ENDROOT
BRANCH   4   6
ATOM      6  N   UNL     1     -33.492  26.383   4.087  0.00  0.00    -0.247 N 
ATOM      7  N   UNL     1     -32.193  26.416   2.276  0.00  0.00    -0.242 NA
ATOM      8  N   UNL     1     -32.757  28.433   5.164  0.00  0.00    -0.228 NA
ATOM      9  N   UNL     1     -31.025  29.549   3.858  0.00  0.00    -0.229 NA
ATOM     10  N   UNL     1     -30.211  28.669   1.786  0.00  0.00    -0.342 N 
ATOM     11  C   UNL     1     -32.736  27.516   4.185  0.00  0.00    +0.152 C 
ATOM     12  C   UNL     1     -33.129  25.755   2.925  0.00  0.00    +0.223 C 
ATOM     13  C   UNL     1     -31.937  27.518   3.052  0.00  0.00    +0.140 C 
ATOM     14  C   UNL     1     -31.058  28.585   2.906  0.00  0.00    +0.143 C 
ATOM     15  C   UNL     1     -31.865  29.414   4.912  0.00  0.00    +0.253 C 
ATOM     16  H   UNL     1     -29.593  29.430   1.693  0.00  0.00    +0.144 HD
ATOM     17  H   UNL     1     -30.237  27.969   1.096  0.00  0.00    +0.144 HD
ENDBRANCH   4   6
BRANCH   2  18
ATOM     18  N   UNL     1     -37.905  24.772   4.160  0.00  0.00    +0.385 N 
ATOM     19  H   UNL     1     -38.326  25.671   4.390  0.00  0.00    -0.089 HD
ATOM     20  H   UNL     1     -38.157  24.086   4.873  0.00  0.00    -0.089 HD
ATOM     21  H   UNL     1     -38.247  24.458   3.252  0.00  0.00    -0.089 HD
ENDBRANCH   2  18
BRANCH   3  22
ATOM     22  O   UNL     1     -36.659  26.699   5.767  0.00  0.00    -0.382 OA
ATOM     23  H   UNL     1     -36.167  27.416   6.196  0.00  0.00    +0.210 HD
ENDBRANCH   3  22
BRANCH   5  24
ATOM     24  C   UNL     1     -35.602  22.522   4.420  0.00  0.00    +0.165 C 
BRANCH  24  25
ATOM     25  O   UNL     1     -36.842  22.169   3.828  0.00  0.00    -0.380 OA
ATOM     26  H   UNL     1     -36.706  21.435   3.208  0.00  0.00    +0.211 HD
ENDBRANCH  24  25
ENDBRANCH   5  24
TORSDOF 5
ENDMDL
MODEL 5
REMARK VINA RESULT:      -5.5      2.668      6.416
REMARK  Name = 21145476
REMARK  5 active torsions:
REMARK  status: ('A' for Active; 'I' for Inactive)
REMARK    1  A    between atoms: C_2  and  N_18
REMARK    2  A    between atoms: C_3  and  O_22
REMARK    3  A    between atoms: C_4  and  N_6
REMARK    4  A    between atoms: C_5  and  C_24
REMARK    5  A    between atoms: C_24  and  O_25
REMARK                            x       y       z     vdW  Elec       q    Type
REMARK                         _______ _______ _______ _____ _____    ______ ____
ROOT
ATOM      1  O   UNL     1     -35.148  26.273   2.829  0.00  0.00    -0.338 OA
ATOM      2  C   UNL     1     -34.303  25.927   4.997  0.00  0.00    -0.004 C 
ATOM      3  C   UNL     1     -35.778  25.551   5.031  0.00  0.00    +0.140 C 
ATOM      4  C   UNL     1     -36.162  25.541   3.549  0.00  0.00    +0.220 C 
ATOM      5  C   UNL     1     -34.237  26.847   3.783  0.00  0.00    +0.129 C 
ENDROOT
BRANCH   4   6
ATOM      6  N   UNL     1     -36.286  24.196   2.984  0.00  0.00    -0.247 N 
ATOM      7  N   UNL     1     -35.673  22.224   2.145  0.00  0.00    -0.242 NA
ATOM      8  N   UNL     1     -38.701  23.948   2.912  0.00  0.00    -0.228 NA
ATOM      9  N   UNL     1     -39.342  21.774   2.006  0.00  0.00    -0.229 NA
ATOM     10  N   UNL     1     -37.731  20.150   1.304  0.00  0.00    -0.342 N 
ATOM     11  C   UNL     1     -37.444  23.523   2.717  0.00  0.00    +0.152 C 
ATOM     12  C   UNL     1     -35.250  23.375   2.624  0.00  0.00    +0.223 C 
ATOM     13  C   UNL     1     -37.042  22.303   2.198  0.00  0.00    +0.140 C 
ATOM     14  C   UNL     1     -38.048  21.412   1.837  0.00  0.00    +0.143 C 
ATOM     15  C   UNL     1     -39.584  23.002   2.526  0.00  0.00    +0.253 C 
ATOM     16  H   UNL     1     -38.451  19.527   1.052  0.00  0.00    +0.144 HD
ATOM     17  H   UNL     1     -36.790  19.889   1.182  0.00  0.00    +0.144 HD
ENDBRANCH   4   6
BRANCH   2  18
ATOM     18  N   UNL     1     -33.808  26.535   6.220  0.00  0.00    +0.385 N 
ATOM     19  H   UNL     1     -33.020  25.993   6.574  0.00  0.00    -0.089 HD
ATOM     20  H   UNL     1     -34.553  26.550   6.917  0.00  0.00    -0.089 HD
ATOM     21  H   UNL     1     -33.505  27.489   6.026  0.00  0.00    -0.089 HD
ENDBRANCH   2  18
BRANCH   3  22
ATOM     22  O   UNL     1     -36.562  26.536   5.704  0.00  0.00    -0.382 OA
ATOM     23  H   UNL     1     -36.870  27.196   5.065  0.00  0.00    +0.210 HD
ENDBRANCH   3  22
BRANCH   5  24
ATOM     24  C   UNL     1     -32.855  26.965   3.164  0.00  0.00    +0.165 C 
BRANCH  24  25
ATOM     25  O   UNL     1     -31.926  27.305   4.180  0.00  0.00    -0.380 OA
ATOM     26  H   UNL     1     -31.440  28.104   3.919  0.00  0.00    +0.211 HD
ENDBRANCH  24  25
ENDBRANCH   5  24
TORSDOF 5
ENDMDL
MODEL 6
REMARK VINA RESULT:      -5.5      4.070      5.796
REMARK  Name = 21145476
REMARK  5 active torsions:
REMARK  status: ('A' for Active; 'I' for Inactive)
REMARK    1  A    between atoms: C_2  and  N_18
REMARK    2  A    between atoms: C_3  and  O_22
REMARK    3  A    between atoms: C_4  and  N_6
REMARK    4  A    between atoms: C_5  and  C_24
REMARK    5  A    between atoms: C_24  and  O_25
REMARK                            x       y       z     vdW  Elec       q    Type
REMARK                         _______ _______ _______ _____ _____    ______ ____
ROOT
ATOM      1  O   UNL     1     -34.630  20.138   2.271  0.00  0.00    -0.338 OA
ATOM      2  C   UNL     1     -35.249  19.803   0.026  0.00  0.00    -0.004 C 
ATOM      3  C   UNL     1     -36.533  19.801   0.845  0.00  0.00    +0.140 C 
ATOM      4  C   UNL     1     -36.064  20.293   2.217  0.00  0.00    +0.220 C 
ATOM      5  C   UNL     1     -34.201  19.459   1.078  0.00  0.00    +0.129 C 
ENDROOT
BRANCH   4   6
ATOM      6  N   UNL     1     -36.413  21.688   2.490  0.00  0.00    -0.247 N 
ATOM      7  N   UNL     1     -37.236  23.734   2.160  0.00  0.00    -0.242 NA
ATOM      8  N   UNL     1     -35.544  21.947   4.744  0.00  0.00    -0.228 NA
ATOM      9  N   UNL     1     -35.938  24.201   5.592  0.00  0.00    -0.229 NA
ATOM     10  N   UNL     1     -37.049  25.883   4.302  0.00  0.00    -0.342 N 
ATOM     11  C   UNL     1     -36.161  22.387   3.637  0.00  0.00    +0.152 C 
ATOM     12  C   UNL     1     -37.060  22.540   1.634  0.00  0.00    +0.223 C 
ATOM     13  C   UNL     1     -36.679  23.652   3.411  0.00  0.00    +0.140 C 
ATOM     14  C   UNL     1     -36.550  24.576   4.444  0.00  0.00    +0.143 C 
ATOM     15  C   UNL     1     -35.479  22.929   5.669  0.00  0.00    +0.253 C 
ATOM     16  H   UNL     1     -36.953  26.529   5.040  0.00  0.00    +0.144 HD
ATOM     17  H   UNL     1     -37.494  26.153   3.468  0.00  0.00    +0.144 HD
ENDBRANCH   4   6
BRANCH   2  18
ATOM     18  N   UNL     1     -35.258  18.899  -1.110  0.00  0.00    +0.385 N 
ATOM     19  H   UNL     1     -34.461  19.102  -1.713  0.00  0.00    -0.089 HD
ATOM     20  H   UNL     1     -36.124  19.023  -1.637  0.00  0.00    -0.089 HD
ATOM     21  H   UNL     1     -35.198  17.936  -0.779  0.00  0.00    -0.089 HD
ENDBRANCH   2  18
BRANCH   3  22
ATOM     22  O   UNL     1     -37.071  18.487   0.986  0.00  0.00    -0.382 OA
ATOM     23  H   UNL     1     -37.922  18.434   0.524  0.00  0.00    +0.210 HD
ENDBRANCH   3  22
BRANCH   5  24
ATOM     24  C   UNL     1     -32.791  19.896   0.720  0.00  0.00    +0.165 C 
BRANCH  24  25
ATOM     25  O   UNL     1     -32.847  20.728  -0.427  0.00  0.00    -0.380 OA
ATOM     26  H   UNL     1     -33.135  20.205  -1.192  0.00  0.00    +0.211 HD
ENDBRANCH  24  25
ENDBRANCH   5  24
TORSDOF 5
ENDMDL
MODEL 7
REMARK VINA RESULT:      -5.4      3.069      6.068
REMARK  Name = 21145476
REMARK  5 active torsions:
REMARK  status: ('A' for Active; 'I' for Inactive)
REMARK    1  A    between atoms: C_2  and  N_18
REMARK    2  A    between atoms: C_3  and  O_22
REMARK    3  A    between atoms: C_4  and  N_6
REMARK    4  A    between atoms: C_5  and  C_24
REMARK    5  A    between atoms: C_24  and  O_25
REMARK                            x       y       z     vdW  Elec       q    Type
REMARK                         _______ _______ _______ _____ _____    ______ ____
ROOT
ATOM      1  O   UNL     1     -35.673  25.501   2.027  0.00  0.00    -0.338 OA
ATOM      2  C   UNL     1     -36.304  25.543   4.293  0.00  0.00    -0.004 C 
ATOM      3  C   UNL     1     -37.580  25.372   3.481  0.00  0.00    +0.140 C 
ATOM      4  C   UNL     1     -37.052  25.081   2.073  0.00  0.00    +0.220 C 
ATOM      5  C   UNL     1     -35.354  26.154   3.268  0.00  0.00    +0.129 C 
ENDROOT
BRANCH   4   6
ATOM      6  N   UNL     1     -37.145  23.670   1.692  0.00  0.00    -0.247 N 
ATOM      7  N   UNL     1     -37.781  21.853   0.567  0.00  0.00    -0.242 NA
ATOM      8  N   UNL     1     -35.657  22.654   3.320  0.00  0.00    -0.228 NA
ATOM      9  N   UNL     1     -35.529  20.236   3.015  0.00  0.00    -0.229 NA
ATOM     10  N   UNL     1     -36.746  19.091   1.303  0.00  0.00    -0.342 N 
ATOM     11  C   UNL     1     -36.502  22.618   2.279  0.00  0.00    +0.152 C 
ATOM     12  C   UNL     1     -37.902  23.161   0.670  0.00  0.00    +0.223 C 
ATOM     13  C   UNL     1     -36.909  21.501   1.567  0.00  0.00    +0.140 C 
ATOM     14  C   UNL     1     -36.389  20.276   1.970  0.00  0.00    +0.143 C 
ATOM     15  C   UNL     1     -35.221  21.411   3.617  0.00  0.00    +0.253 C 
ATOM     16  H   UNL     1     -36.371  18.229   1.596  0.00  0.00    +0.144 HD
ATOM     17  H   UNL     1     -37.370  19.122   0.543  0.00  0.00    +0.144 HD
ENDBRANCH   4   6
BRANCH   2  18
ATOM     18  N   UNL     1     -36.458  26.340   5.497  0.00  0.00    +0.385 N 
ATOM     19  H   UNL     1     -36.880  25.771   6.230  0.00  0.00    -0.089 HD
ATOM     20  H   UNL     1     -37.059  27.141   5.299  0.00  0.00    -0.089 HD
ATOM     21  H   UNL     1     -35.544  26.670   5.806  0.00  0.00    -0.089 HD
ENDBRANCH   2  18
BRANCH   3  22
ATOM     22  O   UNL     1     -38.352  26.572   3.445  0.00  0.00    -0.382 OA
ATOM     23  H   UNL     1     -37.962  27.225   4.046  0.00  0.00    +0.210 HD
ENDBRANCH   3  22
BRANCH   5  24
ATOM     24  C   UNL     1     -33.882  25.957   3.587  0.00  0.00    +0.165 C 
BRANCH  24  25
ATOM     25  O   UNL     1     -33.751  24.879   4.498  0.00  0.00    -0.380 OA
ATOM     26  H   UNL     1     -33.038  25.071   5.127  0.00  0.00    +0.211 HD
ENDBRANCH  24  25
ENDBRANCH   5  24
TORSDOF 5
ENDMDL
MODEL 8
REMARK VINA RESULT:      -5.4      4.070      6.147
REMARK  Name = 21145476
REMARK  5 active torsions:
REMARK  status: ('A' for Active; 'I' for Inactive)
REMARK    1  A    between atoms: C_2  and  N_18
REMARK    2  A    between atoms: C_3  and  O_22
REMARK    3  A    between atoms: C_4  and  N_6
REMARK    4  A    between atoms: C_5  and  C_24
REMARK    5  A    between atoms: C_24  and  O_25
REMARK                            x       y       z     vdW  Elec       q    Type
REMARK                         _______ _______ _______ _____ _____    ______ ____
ROOT
ATOM      1  O   UNL     1     -35.497  22.977   2.374  0.00  0.00    -0.338 OA
ATOM      2  C   UNL     1     -35.819  21.955   4.469  0.00  0.00    -0.004 C 
ATOM      3  C   UNL     1     -35.747  23.456   4.714  0.00  0.00    +0.140 C 
ATOM      4  C   UNL     1     -35.817  24.036   3.299  0.00  0.00    +0.220 C 
ATOM      5  C   UNL     1     -35.103  21.817   3.130  0.00  0.00    +0.129 C 
ENDROOT
BRANCH   4   6
ATOM      6  N   UNL     1     -37.125  24.600   2.960  0.00  0.00    -0.247 N 
ATOM      7  N   UNL     1     -38.723  26.126   2.664  0.00  0.00    -0.242 NA
ATOM      8  N   UNL     1     -38.329  22.600   2.292  0.00  0.00    -0.228 NA
ATOM      9  N   UNL     1     -40.619  23.123   1.631  0.00  0.00    -0.229 NA
ATOM     10  N   UNL     1     -41.488  25.353   1.665  0.00  0.00    -0.342 N 
ATOM     11  C   UNL     1     -38.221  23.918   2.513  0.00  0.00    +0.152 C 
ATOM     12  C   UNL     1     -37.476  25.922   3.035  0.00  0.00    +0.223 C 
ATOM     13  C   UNL     1     -39.199  24.882   2.335  0.00  0.00    +0.140 C 
ATOM     14  C   UNL     1     -40.437  24.443   1.875  0.00  0.00    +0.143 C 
ATOM     15  C   UNL     1     -39.569  22.296   1.852  0.00  0.00    +0.253 C 
ATOM     16  H   UNL     1     -42.360  25.031   1.339  0.00  0.00    +0.144 HD
ATOM     17  H   UNL     1     -41.353  26.311   1.842  0.00  0.00    +0.144 HD
ENDBRANCH   4   6
BRANCH   2  18
ATOM     18  N   UNL     1     -35.242  21.144   5.527  0.00  0.00    +0.385 N 
ATOM     19  H   UNL     1     -34.932  21.747   6.288  0.00  0.00    -0.089 HD
ATOM     20  H   UNL     1     -34.446  20.622   5.159  0.00  0.00    -0.089 HD
ATOM     21  H   UNL     1     -35.944  20.490   5.875  0.00  0.00    -0.089 HD
ENDBRANCH   2  18
BRANCH   3  22
ATOM     22  O   UNL     1     -34.507  23.839   5.309  0.00  0.00    -0.382 OA
ATOM     23  H   UNL     1     -34.677  24.439   6.051  0.00  0.00    +0.210 HD
ENDBRANCH   3  22
BRANCH   5  24
ATOM     24  C   UNL     1     -35.460  20.558   2.359  0.00  0.00    +0.165 C 
BRANCH  24  25
ATOM     25  O   UNL     1     -36.657  20.018   2.893  0.00  0.00    -0.380 OA
ATOM     26  H   UNL     1     -36.442  19.281   3.487  0.00  0.00    +0.211 HD
ENDBRANCH  24  25
ENDBRANCH   5  24
TORSDOF 5
ENDMDL
MODEL 9
REMARK VINA RESULT:      -5.3      3.185      6.431
REMARK  Name = 21145476
REMARK  5 active torsions:
REMARK  status: ('A' for Active; 'I' for Inactive)
REMARK    1  A    between atoms: C_2  and  N_18
REMARK    2  A    between atoms: C_3  and  O_22
REMARK    3  A    between atoms: C_4  and  N_6
REMARK    4  A    between atoms: C_5  and  C_24
REMARK    5  A    between atoms: C_24  and  O_25
REMARK                            x       y       z     vdW  Elec       q    Type
REMARK                         _______ _______ _______ _____ _____    ______ ____
ROOT
ATOM      1  O   UNL     1     -35.807  25.016   2.193  0.00  0.00    -0.338 OA
ATOM      2  C   UNL     1     -36.057  25.474   4.488  0.00  0.00    -0.004 C 
ATOM      3  C   UNL     1     -37.121  24.448   4.122  0.00  0.00    +0.140 C 
ATOM      4  C   UNL     1     -36.708  24.016   2.713  0.00  0.00    +0.220 C 
ATOM      5  C   UNL     1     -35.743  26.103   3.134  0.00  0.00    +0.129 C 
ENDROOT
BRANCH   4   6
ATOM      6  N   UNL     1     -36.057  22.705   2.668  0.00  0.00    -0.247 N 
ATOM      7  N   UNL     1     -35.193  20.782   3.393  0.00  0.00    -0.242 NA
ATOM      8  N   UNL     1     -35.669  22.463   0.283  0.00  0.00    -0.228 NA
ATOM      9  N   UNL     1     -34.570  20.345  -0.227  0.00  0.00    -0.229 NA
ATOM     10  N   UNL     1     -33.985  18.761   1.469  0.00  0.00    -0.342 N 
ATOM     11  C   UNL     1     -35.609  22.049   1.557  0.00  0.00    +0.152 C 
ATOM     12  C   UNL     1     -35.784  21.904   3.746  0.00  0.00    +0.223 C 
ATOM     13  C   UNL     1     -35.078  20.859   2.028  0.00  0.00    +0.140 C 
ATOM     14  C   UNL     1     -34.544  19.991   1.081  0.00  0.00    +0.143 C 
ATOM     15  C   UNL     1     -35.123  21.542  -0.539  0.00  0.00    +0.253 C 
ATOM     16  H   UNL     1     -33.611  18.154   0.790  0.00  0.00    +0.144 HD
ATOM     17  H   UNL     1     -33.968  18.506   2.419  0.00  0.00    +0.144 HD
ENDBRANCH   4   6
BRANCH   2  18
ATOM     18  N   UNL     1     -36.467  26.434   5.497  0.00  0.00    +0.385 N 
ATOM     19  H   UNL     1     -37.460  26.314   5.698  0.00  0.00    -0.089 HD
ATOM     20  H   UNL     1     -36.301  27.381   5.154  0.00  0.00    -0.089 HD
ATOM     21  H   UNL     1     -35.928  26.283   6.350  0.00  0.00    -0.089 HD
ENDBRANCH   2  18
BRANCH   3  22
ATOM     22  O   UNL     1     -38.422  25.031   4.063  0.00  0.00    -0.382 OA
ATOM     23  H   UNL     1     -39.092  24.333   4.132  0.00  0.00    +0.210 HD
ENDBRANCH   3  22
BRANCH   5  24
ATOM     24  C   UNL     1     -34.379  26.767   3.057  0.00  0.00    +0.165 C 
BRANCH  24  25
ATOM     25  O   UNL     1     -34.342  27.846   3.976  0.00  0.00    -0.380 OA
ATOM     26  H   UNL     1     -34.725  27.563   4.822  0.00  0.00    +0.211 HD
ENDBRANCH  24  25
ENDBRANCH   5  24
TORSDOF 5
ENDMDL
