MODEL 1
REMARK VINA RESULT:      -6.6      0.000      0.000
REMARK  Name = 5284585
REMARK  6 active torsions:
REMARK  status: ('A' for Active; 'I' for Inactive)
REMARK    1  A    between atoms: N_2  and  CA_9
REMARK    2  A    between atoms: C_3  and  CA_19
REMARK    3  A    between atoms: CA_13  and  C_16
REMARK    4  A    between atoms: C_16  and  O_17
REMARK    5  A    between atoms: CA_19  and  C_20
REMARK    6  A    between atoms: CA_19  and  N_26
REMARK                            x       y       z     vdW  Elec       q    Type
REMARK                         _______ _______ _______ _____ _____    ______ ____
ROOT
ATOM      1  O   UNL     1     -35.007  20.246   3.244  0.00  0.00    -0.277 OA
ATOM      2  N   UNL     1     -36.410  21.646   2.039  0.00  0.00    -0.298 N 
ATOM      3  C   UNL     1     -35.522  20.576   2.176  0.00  0.00    +0.206 C 
ATOM      4  H   UNL     1     -36.777  21.841   1.146  0.00  0.00    +0.150 HD
ENDROOT
BRANCH   2   9
ATOM      5 CL   UNL     1     -35.704  28.109   2.091  0.00  0.00    -0.085 Cl
ATOM      6  O   UNL     1     -39.175  23.335   2.581  0.00  0.00    -0.273 OA
ATOM      7  N   UNL     1     -37.146  24.494   2.862  0.00  0.00    -0.251 N 
ATOM      8  C   UNL     1     -35.986  23.780   3.384  0.00  0.00    +0.107 C 
ATOM      9  CA  UNL     1     -36.819  22.487   3.160  0.00  0.00    +0.168 C 
ATOM     10  C   UNL     1     -34.773  24.153   2.554  0.00  0.00    +0.028 C 
ATOM     11  C   UNL     1     -37.999  23.452   2.837  0.00  0.00    +0.249 C 
ATOM     12  C   UNL     1     -34.595  25.681   2.649  0.00  0.00    +0.041 C 
ATOM     13  CA  UNL     1     -37.100  25.812   2.545  0.00  0.00    +0.137 C 
ATOM     14  C   UNL     1     -35.905  26.431   2.467  0.00  0.00    +0.055 C 
BRANCH  13  16
ATOM     15  OXT UNL     1     -38.642  27.004   1.185  0.00  0.00    -0.244 OA
ATOM     16  C   UNL     1     -38.366  26.496   2.254  0.00  0.00    +0.353 C 
BRANCH  16  17
ATOM     17  O   UNL     1     -39.156  26.466   3.346  0.00  0.00    -0.476 OA
ATOM     18  H   UNL     1     -39.543  27.259   3.666  0.00  0.00    +0.295 HD
ENDBRANCH  16  17
ENDBRANCH  13  16
ENDBRANCH   2   9
BRANCH   3  19
ATOM     19  CA  UNL     1     -35.236  19.866   0.858  0.00  0.00    +0.036 C 
BRANCH  19  20
ATOM     20  C   UNL     1     -33.760  19.551   0.723  0.00  0.00    -0.034 C 
ATOM     21  C   UNL     1     -33.286  18.337   1.184  0.00  0.00    -0.006 C 
ATOM     22  C   UNL     1     -32.921  20.486   0.141  0.00  0.00    -0.006 C 
ATOM     23  C   UNL     1     -31.926  18.046   1.060  0.00  0.00    -0.000 C 
ATOM     24  C   UNL     1     -31.563  20.195   0.016  0.00  0.00    -0.000 C 
ATOM     25  C   UNL     1     -31.066  18.976   0.477  0.00  0.00    -0.000 C 
ENDBRANCH  19  20
BRANCH  19  26
ATOM     26  N   UNL     1     -36.070  18.661   0.809  0.00  0.00    +0.390 N 
ATOM     27  H1  UNL     1     -35.952  18.132   1.672  0.00  0.00    -0.088 HD
ATOM     28  H2  UNL     1     -35.789  18.085   0.015  0.00  0.00    -0.088 HD
ATOM     29  H3  UNL     1     -37.049  18.930   0.705  0.00  0.00    -0.088 HD
ENDBRANCH  19  26
ENDBRANCH   3  19
TORSDOF 6
ENDMDL
MODEL 2
REMARK VINA RESULT:      -6.3      3.373      6.952
REMARK  Name = 5284585
REMARK  6 active torsions:
REMARK  status: ('A' for Active; 'I' for Inactive)
REMARK    1  A    between atoms: N_2  and  CA_9
REMARK    2  A    between atoms: C_3  and  CA_19
REMARK    3  A    between atoms: CA_13  and  C_16
REMARK    4  A    between atoms: C_16  and  O_17
REMARK    5  A    between atoms: CA_19  and  C_20
REMARK    6  A    between atoms: CA_19  and  N_26
REMARK                            x       y       z     vdW  Elec       q    Type
REMARK                         _______ _______ _______ _____ _____    ______ ____
ROOT
ATOM      1  O   UNL     1     -35.628  26.534   5.548  0.00  0.00    -0.277 OA
ATOM      2  N   UNL     1     -34.593  24.493   5.173  0.00  0.00    -0.298 N 
ATOM      3  C   UNL     1     -34.602  25.868   5.419  0.00  0.00    +0.206 C 
ATOM      4  H   UNL     1     -33.725  24.037   5.084  0.00  0.00    +0.150 HD
ENDROOT
BRANCH   2   9
ATOM      5 CL   UNL     1     -36.498  21.776  -0.419  0.00  0.00    -0.085 Cl
ATOM      6  O   UNL     1     -35.096  21.249   5.312  0.00  0.00    -0.273 OA
ATOM      7  N   UNL     1     -36.016  22.393   3.471  0.00  0.00    -0.251 N 
ATOM      8  C   UNL     1     -36.514  23.751   3.654  0.00  0.00    +0.107 C 
ATOM      9  CA  UNL     1     -35.814  23.702   5.042  0.00  0.00    +0.168 C 
ATOM     10  C   UNL     1     -36.030  24.605   2.498  0.00  0.00    +0.028 C 
ATOM     11  C   UNL     1     -35.568  22.197   4.727  0.00  0.00    +0.249 C 
ATOM     12  C   UNL     1     -36.561  23.972   1.197  0.00  0.00    +0.041 C 
ATOM     13  CA  UNL     1     -36.076  21.757   2.274  0.00  0.00    +0.137 C 
ATOM     14  C   UNL     1     -36.370  22.465   1.165  0.00  0.00    +0.055 C 
BRANCH  13  16
ATOM     15  OXT UNL     1     -34.681  19.857   1.967  0.00  0.00    -0.244 OA
ATOM     16  C   UNL     1     -35.771  20.321   2.240  0.00  0.00    +0.353 C 
BRANCH  16  17
ATOM     17  O   UNL     1     -36.877  19.618   2.555  0.00  0.00    -0.476 OA
ATOM     18  H   UNL     1     -37.666  20.067   2.793  0.00  0.00    +0.295 HD
ENDBRANCH  16  17
ENDBRANCH  13  16
ENDBRANCH   2   9
BRANCH   3  19
ATOM     19  CA  UNL     1     -33.202  26.469   5.493  0.00  0.00    +0.036 C 
BRANCH  19  20
ATOM     20  C   UNL     1     -32.978  27.454   4.364  0.00  0.00    -0.034 C 
ATOM     21  C   UNL     1     -33.402  27.125   3.089  0.00  0.00    -0.006 C 
ATOM     22  C   UNL     1     -32.354  28.659   4.634  0.00  0.00    -0.006 C 
ATOM     23  C   UNL     1     -33.195  28.032   2.049  0.00  0.00    -0.000 C 
ATOM     24  C   UNL     1     -32.148  29.566   3.594  0.00  0.00    -0.000 C 
ATOM     25  C   UNL     1     -32.568  29.251   2.302  0.00  0.00    -0.000 C 
ENDBRANCH  19  20
BRANCH  19  26
ATOM     26  N   UNL     1     -33.051  27.090   6.813  0.00  0.00    +0.390 N 
ATOM     27  H1  UNL     1     -32.253  26.676   7.293  0.00  0.00    -0.088 HD
ATOM     28  H2  UNL     1     -33.897  26.933   7.361  0.00  0.00    -0.088 HD
ATOM     29  H3  UNL     1     -32.900  28.092   6.701  0.00  0.00    -0.088 HD
ENDBRANCH  19  26
ENDBRANCH   3  19
TORSDOF 6
ENDMDL
MODEL 3
REMARK VINA RESULT:      -6.1      4.712      7.009
REMARK  Name = 5284585
REMARK  6 active torsions:
REMARK  status: ('A' for Active; 'I' for Inactive)
REMARK    1  A    between atoms: N_2  and  CA_9
REMARK    2  A    between atoms: C_3  and  CA_19
REMARK    3  A    between atoms: CA_13  and  C_16
REMARK    4  A    between atoms: C_16  and  O_17
REMARK    5  A    between atoms: CA_19  and  C_20
REMARK    6  A    between atoms: CA_19  and  N_26
REMARK                            x       y       z     vdW  Elec       q    Type
REMARK                         _______ _______ _______ _____ _____    ______ ____
ROOT
ATOM      1  O   UNL     1     -36.292  26.491   1.826  0.00  0.00    -0.277 OA
ATOM      2  N   UNL     1     -34.413  26.432   3.184  0.00  0.00    -0.298 N 
ATOM      3  C   UNL     1     -35.766  26.223   2.905  0.00  0.00    +0.206 C 
ATOM      4  H   UNL     1     -34.073  26.188   4.075  0.00  0.00    +0.150 HD
ENDROOT
BRANCH   2   9
ATOM      5 CL   UNL     1     -30.598  31.542   4.452  0.00  0.00    -0.085 Cl
ATOM      6  O   UNL     1     -31.203  25.914   2.711  0.00  0.00    -0.273 OA
ATOM      7  N   UNL     1     -31.911  28.155   2.859  0.00  0.00    -0.251 N 
ATOM      8  C   UNL     1     -33.216  28.525   2.325  0.00  0.00    +0.107 C 
ATOM      9  CA  UNL     1     -33.480  26.997   2.212  0.00  0.00    +0.168 C 
ATOM     10  C   UNL     1     -33.912  29.426   3.326  0.00  0.00    +0.028 C 
ATOM     11  C   UNL     1     -31.980  26.834   2.598  0.00  0.00    +0.249 C 
ATOM     12  C   UNL     1     -33.013  30.659   3.546  0.00  0.00    +0.041 C 
ATOM     13  CA  UNL     1     -31.079  29.063   3.428  0.00  0.00    +0.137 C 
ATOM     14  C   UNL     1     -31.553  30.286   3.741  0.00  0.00    +0.055 C 
BRANCH  13  16
ATOM     15  OXT UNL     1     -28.730  28.985   3.072  0.00  0.00    -0.244 OA
ATOM     16  C   UNL     1     -29.701  28.649   3.721  0.00  0.00    +0.353 C 
BRANCH  16  17
ATOM     17  O   UNL     1     -29.692  27.852   4.809  0.00  0.00    -0.476 OA
ATOM     18  H   UNL     1     -30.502  27.555   5.179  0.00  0.00    +0.295 HD
ENDBRANCH  16  17
ENDBRANCH  13  16
ENDBRANCH   2   9
BRANCH   3  19
ATOM     19  CA  UNL     1     -36.535  25.644   4.087  0.00  0.00    +0.036 C 
BRANCH  19  20
ATOM     20  C   UNL     1     -36.062  24.240   4.403  0.00  0.00    -0.034 C 
ATOM     21  C   UNL     1     -35.581  23.960   5.669  0.00  0.00    -0.006 C 
ATOM     22  C   UNL     1     -36.124  23.270   3.418  0.00  0.00    -0.006 C 
ATOM     23  C   UNL     1     -35.146  22.667   5.961  0.00  0.00    -0.000 C 
ATOM     24  C   UNL     1     -35.690  21.977   3.710  0.00  0.00    -0.000 C 
ATOM     25  C   UNL     1     -35.199  21.676   4.981  0.00  0.00    -0.000 C 
ENDBRANCH  19  20
BRANCH  19  26
ATOM     26  N   UNL     1     -36.366  26.558   5.222  0.00  0.00    +0.390 N 
ATOM     27  H1  UNL     1     -37.106  27.260   5.205  0.00  0.00    -0.088 HD
ATOM     28  H2  UNL     1     -35.458  27.019   5.154  0.00  0.00    -0.088 HD
ATOM     29  H3  UNL     1     -36.416  26.031   6.093  0.00  0.00    -0.088 HD
ENDBRANCH  19  26
ENDBRANCH   3  19
TORSDOF 6
ENDMDL
MODEL 4
REMARK VINA RESULT:      -6.1      2.296      2.960
REMARK  Name = 5284585
REMARK  6 active torsions:
REMARK  status: ('A' for Active; 'I' for Inactive)
REMARK    1  A    between atoms: N_2  and  CA_9
REMARK    2  A    between atoms: C_3  and  CA_19
REMARK    3  A    between atoms: CA_13  and  C_16
REMARK    4  A    between atoms: C_16  and  O_17
REMARK    5  A    between atoms: CA_19  and  C_20
REMARK    6  A    between atoms: CA_19  and  N_26
REMARK                            x       y       z     vdW  Elec       q    Type
REMARK                         _______ _______ _______ _____ _____    ______ ____
ROOT
ATOM      1  O   UNL     1     -38.118  22.546   0.651  0.00  0.00    -0.277 OA
ATOM      2  N   UNL     1     -36.922  22.634   2.636  0.00  0.00    -0.298 N 
ATOM      3  C   UNL     1     -37.325  22.035   1.440  0.00  0.00    +0.206 C 
ATOM      4  H   UNL     1     -36.282  22.154   3.210  0.00  0.00    +0.150 HD
ENDROOT
BRANCH   2   9
ATOM      5 CL   UNL     1     -33.227  26.935   5.818  0.00  0.00    -0.085 Cl
ATOM      6  O   UNL     1     -36.725  25.596   1.230  0.00  0.00    -0.273 OA
ATOM      7  N   UNL     1     -36.067  25.441   3.485  0.00  0.00    -0.251 N 
ATOM      8  C   UNL     1     -36.765  24.512   4.367  0.00  0.00    +0.107 C 
ATOM      9  CA  UNL     1     -37.409  23.940   3.072  0.00  0.00    +0.168 C 
ATOM     10  C   UNL     1     -35.737  23.766   5.195  0.00  0.00    +0.028 C 
ATOM     11  C   UNL     1     -36.734  25.145   2.352  0.00  0.00    +0.249 C 
ATOM     12  C   UNL     1     -34.930  24.812   5.989  0.00  0.00    +0.041 C 
ATOM     13  CA  UNL     1     -35.057  26.233   3.924  0.00  0.00    +0.137 C 
ATOM     14  C   UNL     1     -34.506  25.992   5.131  0.00  0.00    +0.055 C 
BRANCH  13  16
ATOM     15  OXT UNL     1     -33.752  27.136   2.154  0.00  0.00    -0.244 OA
ATOM     16  C   UNL     1     -34.576  27.297   3.032  0.00  0.00    +0.353 C 
BRANCH  16  17
ATOM     17  O   UNL     1     -35.191  28.456   3.343  0.00  0.00    -0.476 OA
ATOM     18  H   UNL     1     -35.732  28.884   2.708  0.00  0.00    +0.295 HD
ENDBRANCH  16  17
ENDBRANCH  13  16
ENDBRANCH   2   9
BRANCH   3  19
ATOM     19  CA  UNL     1     -36.695  20.664   1.219  0.00  0.00    +0.036 C 
BRANCH  19  20
ATOM     20  C   UNL     1     -35.242  20.798   0.811  0.00  0.00    -0.034 C 
ATOM     21  C   UNL     1     -34.351  19.797   1.154  0.00  0.00    -0.006 C 
ATOM     22  C   UNL     1     -34.840  21.917   0.103  0.00  0.00    -0.006 C 
ATOM     23  C   UNL     1     -33.013  19.920   0.778  0.00  0.00    -0.000 C 
ATOM     24  C   UNL     1     -33.502  22.039  -0.273  0.00  0.00    -0.000 C 
ATOM     25  C   UNL     1     -32.589  21.041   0.065  0.00  0.00    -0.000 C 
ENDBRANCH  19  20
BRANCH  19  26
ATOM     26  N   UNL     1     -36.858  19.892   2.455  0.00  0.00    +0.390 N 
ATOM     27  H1  UNL     1     -37.851  19.782   2.657  0.00  0.00    -0.088 HD
ATOM     28  H2  UNL     1     -36.406  20.384   3.226  0.00  0.00    -0.088 HD
ATOM     29  H3  UNL     1     -36.430  18.973   2.340  0.00  0.00    -0.088 HD
ENDBRANCH  19  26
ENDBRANCH   3  19
TORSDOF 6
ENDMDL
MODEL 5
REMARK VINA RESULT:      -6.1      4.510      6.375
REMARK  Name = 5284585
REMARK  6 active torsions:
REMARK  status: ('A' for Active; 'I' for Inactive)
REMARK    1  A    between atoms: N_2  and  CA_9
REMARK    2  A    between atoms: C_3  and  CA_19
REMARK    3  A    between atoms: CA_13  and  C_16
REMARK    4  A    between atoms: C_16  and  O_17
REMARK    5  A    between atoms: CA_19  and  C_20
REMARK    6  A    between atoms: CA_19  and  N_26
REMARK                            x       y       z     vdW  Elec       q    Type
REMARK                         _______ _______ _______ _____ _____    ______ ____
ROOT
ATOM      1  O   UNL     1     -34.406  25.760   3.052  0.00  0.00    -0.277 OA
ATOM      2  N   UNL     1     -35.686  27.655   3.439  0.00  0.00    -0.298 N 
ATOM      3  C   UNL     1     -35.369  26.303   3.591  0.00  0.00    +0.206 C 
ATOM      4  H   UNL     1     -36.477  28.008   3.908  0.00  0.00    +0.150 HD
ENDROOT
BRANCH   2   9
ATOM      5 CL   UNL     1     -38.241  31.272  -1.322  0.00  0.00    -0.085 Cl
ATOM      6  O   UNL     1     -35.134  30.882   3.706  0.00  0.00    -0.273 OA
ATOM      7  N   UNL     1     -35.833  30.091   1.602  0.00  0.00    -0.251 N 
ATOM      8  C   UNL     1     -35.394  28.773   1.156  0.00  0.00    +0.107 C 
ATOM      9  CA  UNL     1     -34.898  28.567   2.615  0.00  0.00    +0.168 C 
ATOM     10  C   UNL     1     -36.582  28.043   0.562  0.00  0.00    +0.028 C 
ATOM     11  C   UNL     1     -35.248  30.072   2.815  0.00  0.00    +0.249 C 
ATOM     12  C   UNL     1     -37.115  28.893  -0.608  0.00  0.00    +0.041 C 
ATOM     13  CA  UNL     1     -36.621  30.886   0.836  0.00  0.00    +0.137 C 
ATOM     14  C   UNL     1     -37.226  30.366  -0.250  0.00  0.00    +0.055 C 
BRANCH  13  16
ATOM     15  OXT UNL     1     -36.055  33.189   0.999  0.00  0.00    -0.244 OA
ATOM     16  C   UNL     1     -36.816  32.278   1.261  0.00  0.00    +0.353 C 
BRANCH  16  17
ATOM     17  O   UNL     1     -37.957  32.376   1.973  0.00  0.00    -0.476 OA
ATOM     18  H   UNL     1     -37.994  32.940   2.723  0.00  0.00    +0.295 HD
ENDBRANCH  16  17
ENDBRANCH  13  16
ENDBRANCH   2   9
BRANCH   3  19
ATOM     19  CA  UNL     1     -36.356  25.556   4.483  0.00  0.00    +0.036 C 
BRANCH  19  20
ATOM     20  C   UNL     1     -35.923  24.118   4.680  0.00  0.00    -0.034 C 
ATOM     21  C   UNL     1     -35.353  23.745   5.884  0.00  0.00    -0.006 C 
ATOM     22  C   UNL     1     -36.109  23.210   3.652  0.00  0.00    -0.006 C 
ATOM     23  C   UNL     1     -34.955  22.420   6.066  0.00  0.00    -0.000 C 
ATOM     24  C   UNL     1     -35.711  21.886   3.835  0.00  0.00    -0.000 C 
ATOM     25  C   UNL     1     -35.133  21.492   5.041  0.00  0.00    -0.000 C 
ENDBRANCH  19  20
BRANCH  19  26
ATOM     26  N   UNL     1     -36.455  26.288   5.750  0.00  0.00    +0.390 N 
ATOM     27  H1  UNL     1     -36.038  27.212   5.641  0.00  0.00    -0.088 HD
ATOM     28  H2  UNL     1     -35.959  25.774   6.479  0.00  0.00    -0.088 HD
ATOM     29  H3  UNL     1     -37.437  26.385   6.010  0.00  0.00    -0.088 HD
ENDBRANCH  19  26
ENDBRANCH   3  19
TORSDOF 6
ENDMDL
MODEL 6
REMARK VINA RESULT:      -6.0      1.845      2.402
REMARK  Name = 5284585
REMARK  6 active torsions:
REMARK  status: ('A' for Active; 'I' for Inactive)
REMARK    1  A    between atoms: N_2  and  CA_9
REMARK    2  A    between atoms: C_3  and  CA_19
REMARK    3  A    between atoms: CA_13  and  C_16
REMARK    4  A    between atoms: C_16  and  O_17
REMARK    5  A    between atoms: CA_19  and  C_20
REMARK    6  A    between atoms: CA_19  and  N_26
REMARK                            x       y       z     vdW  Elec       q    Type
REMARK                         _______ _______ _______ _____ _____    ______ ____
ROOT
ATOM      1  O   UNL     1     -35.470  21.768   4.159  0.00  0.00    -0.277 OA
ATOM      2  N   UNL     1     -36.317  23.411   2.759  0.00  0.00    -0.298 N 
ATOM      3  C   UNL     1     -35.916  22.108   3.064  0.00  0.00    +0.206 C 
ATOM      4  H   UNL     1     -36.663  23.597   1.856  0.00  0.00    +0.150 HD
ENDROOT
BRANCH   2   9
ATOM      5 CL   UNL     1     -32.562  28.651   1.906  0.00  0.00    -0.085 Cl
ATOM      6  O   UNL     1     -37.903  26.285   2.883  0.00  0.00    -0.273 OA
ATOM      7  N   UNL     1     -35.561  26.350   3.111  0.00  0.00    -0.251 N 
ATOM      8  C   UNL     1     -34.884  25.258   3.800  0.00  0.00    +0.107 C 
ATOM      9  CA  UNL     1     -36.244  24.509   3.719  0.00  0.00    +0.168 C 
ATOM     10  C   UNL     1     -33.659  24.865   2.998  0.00  0.00    +0.028 C 
ATOM     11  C   UNL     1     -36.814  25.859   3.188  0.00  0.00    +0.249 C 
ATOM     12  C   UNL     1     -32.760  26.111   2.879  0.00  0.00    +0.041 C 
ATOM     13  CA  UNL     1     -34.888  27.415   2.608  0.00  0.00    +0.137 C 
ATOM     14  C   UNL     1     -33.544  27.360   2.511  0.00  0.00    +0.055 C 
BRANCH  13  16
ATOM     15  OXT UNL     1     -36.281  28.608   1.096  0.00  0.00    -0.244 OA
ATOM     16  C   UNL     1     -35.668  28.569   2.145  0.00  0.00    +0.353 C 
BRANCH  16  17
ATOM     17  O   UNL     1     -35.595  29.558   3.059  0.00  0.00    -0.476 OA
ATOM     18  H   UNL     1     -34.762  29.918   3.293  0.00  0.00    +0.295 HD
ENDBRANCH  16  17
ENDBRANCH  13  16
ENDBRANCH   2   9
BRANCH   3  19
ATOM     19  CA  UNL     1     -36.068  21.147   1.890  0.00  0.00    +0.036 C 
BRANCH  19  20
ATOM     20  C   UNL     1     -34.717  20.790   1.306  0.00  0.00    -0.034 C 
ATOM     21  C   UNL     1     -34.174  19.546   1.575  0.00  0.00    -0.006 C 
ATOM     22  C   UNL     1     -34.057  21.716   0.517  0.00  0.00    -0.006 C 
ATOM     23  C   UNL     1     -32.930  19.217   1.037  0.00  0.00    -0.000 C 
ATOM     24  C   UNL     1     -32.812  21.385  -0.021  0.00  0.00    -0.000 C 
ATOM     25  C   UNL     1     -32.249  20.137   0.241  0.00  0.00    -0.000 C 
ENDBRANCH  19  20
BRANCH  19  26
ATOM     26  N   UNL     1     -36.799  19.969   2.368  0.00  0.00    +0.390 N 
ATOM     27  H1  UNL     1     -36.623  19.843   3.365  0.00  0.00    -0.088 HD
ATOM     28  H2  UNL     1     -36.483  19.143   1.859  0.00  0.00    -0.088 HD
ATOM     29  H3  UNL     1     -37.798  20.103   2.213  0.00  0.00    -0.088 HD
ENDBRANCH  19  26
ENDBRANCH   3  19
TORSDOF 6
ENDMDL
MODEL 7
REMARK VINA RESULT:      -5.9      4.968      7.086
REMARK  Name = 5284585
REMARK  6 active torsions:
REMARK  status: ('A' for Active; 'I' for Inactive)
REMARK    1  A    between atoms: N_2  and  CA_9
REMARK    2  A    between atoms: C_3  and  CA_19
REMARK    3  A    between atoms: CA_13  and  C_16
REMARK    4  A    between atoms: C_16  and  O_17
REMARK    5  A    between atoms: CA_19  and  C_20
REMARK    6  A    between atoms: CA_19  and  N_26
REMARK                            x       y       z     vdW  Elec       q    Type
REMARK                         _______ _______ _______ _____ _____    ______ ____
ROOT
ATOM      1  O   UNL     1     -32.978  25.449   3.843  0.00  0.00    -0.277 OA
ATOM      2  N   UNL     1     -33.828  27.571   4.237  0.00  0.00    -0.298 N 
ATOM      3  C   UNL     1     -33.934  26.187   4.081  0.00  0.00    +0.206 C 
ATOM      4  H   UNL     1     -34.645  28.087   4.427  0.00  0.00    +0.150 HD
ENDROOT
BRANCH   2   9
ATOM      5 CL   UNL     1     -32.554  31.889  -0.454  0.00  0.00    -0.085 Cl
ATOM      6  O   UNL     1     -32.925  30.545   5.302  0.00  0.00    -0.273 OA
ATOM      7  N   UNL     1     -32.463  30.033   3.051  0.00  0.00    -0.251 N 
ATOM      8  C   UNL     1     -32.107  28.665   2.692  0.00  0.00    +0.107 C 
ATOM      9  CA  UNL     1     -32.559  28.287   4.130  0.00  0.00    +0.168 C 
ATOM     10  C   UNL     1     -32.872  28.279   1.441  0.00  0.00    +0.028 C 
ATOM     11  C   UNL     1     -32.672  29.823   4.366  0.00  0.00    +0.249 C 
ATOM     12  C   UNL     1     -32.489  29.279   0.333  0.00  0.00    +0.041 C 
ATOM     13  CA  UNL     1     -32.523  31.029   2.132  0.00  0.00    +0.137 C 
ATOM     14  C   UNL     1     -32.502  30.718   0.820  0.00  0.00    +0.055 C 
BRANCH  13  16
ATOM     15  OXT UNL     1     -33.626  33.115   2.420  0.00  0.00    -0.244 OA
ATOM     16  C   UNL     1     -32.657  32.409   2.617  0.00  0.00    +0.353 C 
BRANCH  16  17
ATOM     17  O   UNL     1     -31.549  32.753   3.304  0.00  0.00    -0.476 OA
ATOM     18  H   UNL     1     -30.866  32.124   3.437  0.00  0.00    +0.295 HD
ENDBRANCH  16  17
ENDBRANCH  13  16
ENDBRANCH   2   9
BRANCH   3  19
ATOM     19  CA  UNL     1     -35.366  25.680   4.216  0.00  0.00    +0.036 C 
BRANCH  19  20
ATOM     20  C   UNL     1     -35.385  24.211   4.588  0.00  0.00    -0.034 C 
ATOM     21  C   UNL     1     -35.228  23.850   5.914  0.00  0.00    -0.006 C 
ATOM     22  C   UNL     1     -35.562  23.266   3.593  0.00  0.00    -0.006 C 
ATOM     23  C   UNL     1     -35.246  22.497   6.256  0.00  0.00    -0.000 C 
ATOM     24  C   UNL     1     -35.581  21.914   3.936  0.00  0.00    -0.000 C 
ATOM     25  C   UNL     1     -35.421  21.530   5.267  0.00  0.00    -0.000 C 
ENDBRANCH  19  20
BRANCH  19  26
ATOM     26  N   UNL     1     -36.044  26.516   5.212  0.00  0.00    +0.390 N 
ATOM     27  H1  UNL     1     -36.352  25.934   5.990  0.00  0.00    -0.088 HD
ATOM     28  H2  UNL     1     -36.852  26.968   4.783  0.00  0.00    -0.088 HD
ATOM     29  H3  UNL     1     -35.398  27.228   5.554  0.00  0.00    -0.088 HD
ENDBRANCH  19  26
ENDBRANCH   3  19
TORSDOF 6
ENDMDL
MODEL 8
REMARK VINA RESULT:      -5.9      3.720      5.135
REMARK  Name = 5284585
REMARK  6 active torsions:
REMARK  status: ('A' for Active; 'I' for Inactive)
REMARK    1  A    between atoms: N_2  and  CA_9
REMARK    2  A    between atoms: C_3  and  CA_19
REMARK    3  A    between atoms: CA_13  and  C_16
REMARK    4  A    between atoms: C_16  and  O_17
REMARK    5  A    between atoms: CA_19  and  C_20
REMARK    6  A    between atoms: CA_19  and  N_26
REMARK                            x       y       z     vdW  Elec       q    Type
REMARK                         _______ _______ _______ _____ _____    ______ ____
ROOT
ATOM      1  O   UNL     1     -35.849  20.975   2.880  0.00  0.00    -0.277 OA
ATOM      2  N   UNL     1     -37.291  22.707   3.426  0.00  0.00    -0.298 N 
ATOM      3  C   UNL     1     -36.141  21.932   3.595  0.00  0.00    +0.206 C 
ATOM      4  H   UNL     1     -37.447  23.457   4.044  0.00  0.00    +0.150 HD
ENDROOT
BRANCH   2   9
ATOM      5 CL   UNL     1     -40.622  27.428   0.443  0.00  0.00    -0.085 Cl
ATOM      6  O   UNL     1     -37.010  22.742   0.153  0.00  0.00    -0.273 OA
ATOM      7  N   UNL     1     -38.794  23.965   1.083  0.00  0.00    -0.251 N 
ATOM      8  C   UNL     1     -39.453  23.460   2.283  0.00  0.00    +0.107 C 
ATOM      9  CA  UNL     1     -38.271  22.453   2.374  0.00  0.00    +0.168 C 
ATOM     10  C   UNL     1     -39.651  24.613   3.247  0.00  0.00    +0.028 C 
ATOM     11  C   UNL     1     -37.860  23.000   0.974  0.00  0.00    +0.249 C 
ATOM     12  C   UNL     1     -40.504  25.678   2.532  0.00  0.00    +0.041 C 
ATOM     13  CA  UNL     1     -39.185  25.112   0.473  0.00  0.00    +0.137 C 
ATOM     14  C   UNL     1     -40.030  25.944   1.113  0.00  0.00    +0.055 C 
BRANCH  13  16
ATOM     15  OXT UNL     1     -39.228  25.285  -1.897  0.00  0.00    -0.244 OA
ATOM     16  C   UNL     1     -38.625  25.415  -0.850  0.00  0.00    +0.353 C 
BRANCH  16  17
ATOM     17  O   UNL     1     -37.357  25.853  -0.713  0.00  0.00    -0.476 OA
ATOM     18  H   UNL     1     -36.730  25.334  -0.247  0.00  0.00    +0.295 HD
ENDBRANCH  16  17
ENDBRANCH  13  16
ENDBRANCH   2   9
BRANCH   3  19
ATOM     19  CA  UNL     1     -35.287  22.383   4.775  0.00  0.00    +0.036 C 
BRANCH  19  20
ATOM     20  C   UNL     1     -34.990  23.866   4.692  0.00  0.00    -0.034 C 
ATOM     21  C   UNL     1     -34.262  24.348   3.619  0.00  0.00    -0.006 C 
ATOM     22  C   UNL     1     -35.455  24.704   5.690  0.00  0.00    -0.006 C 
ATOM     23  C   UNL     1     -33.988  25.714   3.541  0.00  0.00    -0.000 C 
ATOM     24  C   UNL     1     -35.182  26.070   5.612  0.00  0.00    -0.000 C 
ATOM     25  C   UNL     1     -34.448  26.574   4.538  0.00  0.00    -0.000 C 
ENDBRANCH  19  20
BRANCH  19  26
ATOM     26  N   UNL     1     -36.000  22.025   6.005  0.00  0.00    +0.390 N 
ATOM     27  H1  UNL     1     -36.781  21.410   5.778  0.00  0.00    -0.088 HD
ATOM     28  H2  UNL     1     -36.352  22.871   6.453  0.00  0.00    -0.088 HD
ATOM     29  H3  UNL     1     -35.362  21.545   6.640  0.00  0.00    -0.088 HD
ENDBRANCH  19  26
ENDBRANCH   3  19
TORSDOF 6
ENDMDL
MODEL 9
REMARK VINA RESULT:      -5.9      4.954      6.994
REMARK  Name = 5284585
REMARK  6 active torsions:
REMARK  status: ('A' for Active; 'I' for Inactive)
REMARK    1  A    between atoms: N_2  and  CA_9
REMARK    2  A    between atoms: C_3  and  CA_19
REMARK    3  A    between atoms: CA_13  and  C_16
REMARK    4  A    between atoms: C_16  and  O_17
REMARK    5  A    between atoms: CA_19  and  C_20
REMARK    6  A    between atoms: CA_19  and  N_26
REMARK                            x       y       z     vdW  Elec       q    Type
REMARK                         _______ _______ _______ _____ _____    ______ ____
ROOT
ATOM      1  O   UNL     1     -34.435  25.486   1.956  0.00  0.00    -0.277 OA
ATOM      2  N   UNL     1     -33.818  26.664   3.857  0.00  0.00    -0.298 N 
ATOM      3  C   UNL     1     -34.652  25.819   3.121  0.00  0.00    +0.206 C 
ATOM      4  H   UNL     1     -34.067  26.878   4.785  0.00  0.00    +0.150 HD
ENDROOT
BRANCH   2   9
ATOM      5 CL   UNL     1     -33.043  33.035   2.817  0.00  0.00    -0.085 Cl
ATOM      6  O   UNL     1     -31.207  28.000   5.337  0.00  0.00    -0.273 OA
ATOM      7  N   UNL     1     -32.195  29.239   3.596  0.00  0.00    -0.251 N 
ATOM      8  C   UNL     1     -32.769  28.531   2.457  0.00  0.00    +0.107 C 
ATOM      9  CA  UNL     1     -32.594  27.243   3.310  0.00  0.00    +0.168 C 
ATOM     10  C   UNL     1     -34.115  29.148   2.132  0.00  0.00    +0.028 C 
ATOM     11  C   UNL     1     -31.820  28.157   4.306  0.00  0.00    +0.249 C 
ATOM     12  C   UNL     1     -33.882  30.639   1.821  0.00  0.00    +0.041 C 
ATOM     13  CA  UNL     1     -32.198  30.592   3.681  0.00  0.00    +0.137 C 
ATOM     14  C   UNL     1     -32.961  31.306   2.830  0.00  0.00    +0.055 C 
BRANCH  13  16
ATOM     15  OXT UNL     1     -30.375  31.850   4.545  0.00  0.00    -0.244 OA
ATOM     16  C   UNL     1     -31.395  31.219   4.740  0.00  0.00    +0.353 C 
BRANCH  16  17
ATOM     17  O   UNL     1     -31.967  30.983   5.938  0.00  0.00    -0.476 OA
ATOM     18  H   UNL     1     -32.779  30.516   5.985  0.00  0.00    +0.295 HD
ENDBRANCH  16  17
ENDBRANCH  13  16
ENDBRANCH   2   9
BRANCH   3  19
ATOM     19  CA  UNL     1     -35.878  25.362   3.904  0.00  0.00    +0.036 C 
BRANCH  19  20
ATOM     20  C   UNL     1     -35.664  23.979   4.485  0.00  0.00    -0.034 C 
ATOM     21  C   UNL     1     -35.432  23.847   5.842  0.00  0.00    -0.006 C 
ATOM     22  C   UNL     1     -35.705  22.881   3.644  0.00  0.00    -0.006 C 
ATOM     23  C   UNL     1     -35.234  22.574   6.377  0.00  0.00    -0.000 C 
ATOM     24  C   UNL     1     -35.508  21.608   4.180  0.00  0.00    -0.000 C 
ATOM     25  C   UNL     1     -35.272  21.455   5.546  0.00  0.00    -0.000 C 
ENDBRANCH  19  20
BRANCH  19  26
ATOM     26  N   UNL     1     -36.147  26.366   4.939  0.00  0.00    +0.390 N 
ATOM     27  H1  UNL     1     -36.917  26.049   5.527  0.00  0.00    -0.088 HD
ATOM     28  H2  UNL     1     -36.397  27.251   4.497  0.00  0.00    -0.088 HD
ATOM     29  H3  UNL     1     -35.312  26.496   5.511  0.00  0.00    -0.088 HD
ENDBRANCH  19  26
ENDBRANCH   3  19
TORSDOF 6
ENDMDL
