MODEL 1
REMARK VINA RESULT:      -6.5      0.000      0.000
REMARK  Name = 59053144
REMARK  6 active torsions:
REMARK  status: ('A' for Active; 'I' for Inactive)
REMARK    1  A    between atoms: C_2  and  O_21
REMARK    2  A    between atoms: C_9  and  O_23
REMARK    3  A    between atoms: C_15  and  O_25
REMARK    4  A    between atoms: C_16  and  O_27
REMARK    5  A    between atoms: C_18  and  C_29
REMARK    6  A    between atoms: C_29  and  O_30
REMARK                            x       y       z     vdW  Elec       q    Type
REMARK                         _______ _______ _______ _____ _____    ______ ____
ROOT
ATOM      1  O   UNL     1     -35.012  24.381   1.256  0.00  0.00    -0.296 OA
ATOM      2  C   UNL     1     -38.461  24.054   0.327  0.00  0.00    +0.089 C 
ATOM      3  C   UNL     1     -37.935  24.712   1.599  0.00  0.00    +0.038 C 
ATOM      4  C   UNL     1     -39.413  24.510   1.405  0.00  0.00    +0.025 C 
ATOM      5  C   UNL     1     -37.070  23.789   2.371  0.00  0.00    +0.081 C 
ATOM      6  C   UNL     1     -38.311  22.554   0.075  0.00  0.00    +0.027 C 
ATOM      7  C   UNL     1     -35.802  22.110   0.981  0.00  0.00    +0.079 C 
ATOM      8  C   UNL     1     -36.862  22.021  -0.195  0.00  0.00    +0.011 C 
ATOM      9  C   UNL     1     -35.932  21.119   2.213  0.00  0.00    +0.147 C 
ATOM     10  C   UNL     1     -35.847  23.516   1.515  0.00  0.00    +0.156 C 
ATOM     11  C   UNL     1     -40.291  25.702   1.217  0.00  0.00    +0.002 C 
ATOM     12  C   UNL     1     -40.063  23.463   2.250  0.00  0.00    +0.002 C 
ATOM     13  C   UNL     1     -36.532  23.980   3.729  0.00  0.00    -0.023 C 
ATOM     14  C   UNL     1     -34.402  21.766   0.521  0.00  0.00    +0.012 C 
ATOM     15  C   UNL     1     -35.359  21.671   3.615  0.00  0.00    +0.158 C 
ATOM     16  C   UNL     1     -35.060  19.899   1.774  0.00  0.00    +0.138 C 
ATOM     17  C   UNL     1     -36.354  22.679  -1.496  0.00  0.00    +0.001 C 
ATOM     18  C   UNL     1     -35.775  23.007   4.288  0.00  0.00    +0.010 C 
ATOM     19  C   UNL     1     -34.009  20.554   0.935  0.00  0.00    +0.030 C 
ATOM     20  C   UNL     1     -32.727  19.874   0.619  0.00  0.00    +0.003 C 
ENDROOT
BRANCH   2  21
ATOM     21  O   UNL     1     -38.400  24.858  -0.864  0.00  0.00    -0.387 OA
ATOM     22  H   UNL     1     -38.137  25.762  -0.631  0.00  0.00    +0.210 HD
ENDBRANCH   2  21
BRANCH   9  23
ATOM     23  O   UNL     1     -37.267  20.659   2.399  0.00  0.00    -0.381 OA
ATOM     24  H   UNL     1     -37.867  21.176   1.839  0.00  0.00    +0.210 HD
ENDBRANCH   9  23
BRANCH  15  25
ATOM     25  O   UNL     1     -35.563  20.625   4.583  0.00  0.00    -0.378 OA
ATOM     26  H   UNL     1     -34.874  20.677   5.265  0.00  0.00    +0.211 HD
ENDBRANCH  15  25
BRANCH  16  27
ATOM     27  O   UNL     1     -35.770  18.983   0.952  0.00  0.00    -0.382 OA
ATOM     28  H   UNL     1     -35.150  18.535   0.355  0.00  0.00    +0.210 HD
ENDBRANCH  16  27
BRANCH  18  29
ATOM     29  C   UNL     1     -35.199  23.235   5.665  0.00  0.00    +0.161 C 
BRANCH  29  30
ATOM     30  O   UNL     1     -35.873  22.414   6.595  0.00  0.00    -0.377 OA
ATOM     31  H   UNL     1     -36.182  22.954   7.338  0.00  0.00    +0.211 HD
ENDBRANCH  29  30
ENDBRANCH  18  29
TORSDOF 6
ENDMDL
MODEL 2
REMARK VINA RESULT:      -6.4      1.841      5.448
REMARK  Name = 59053144
REMARK  6 active torsions:
REMARK  status: ('A' for Active; 'I' for Inactive)
REMARK    1  A    between atoms: C_2  and  O_21
REMARK    2  A    between atoms: C_9  and  O_23
REMARK    3  A    between atoms: C_15  and  O_25
REMARK    4  A    between atoms: C_16  and  O_27
REMARK    5  A    between atoms: C_18  and  C_29
REMARK    6  A    between atoms: C_29  and  O_30
REMARK                            x       y       z     vdW  Elec       q    Type
REMARK                         _______ _______ _______ _____ _____    ______ ____
ROOT
ATOM      1  O   UNL     1     -37.072  23.170   4.355  0.00  0.00    -0.296 OA
ATOM      2  C   UNL     1     -36.270  20.876   1.717  0.00  0.00    +0.089 C 
ATOM      3  C   UNL     1     -35.266  21.661   2.555  0.00  0.00    +0.038 C 
ATOM      4  C   UNL     1     -34.799  20.847   1.380  0.00  0.00    +0.025 C 
ATOM      5  C   UNL     1     -35.532  23.118   2.496  0.00  0.00    +0.081 C 
ATOM      6  C   UNL     1     -37.225  21.568   0.745  0.00  0.00    +0.027 C 
ATOM      7  C   UNL     1     -37.954  23.744   2.176  0.00  0.00    +0.079 C 
ATOM      8  C   UNL     1     -38.366  22.439   1.373  0.00  0.00    +0.011 C 
ATOM      9  C   UNL     1     -37.433  25.011   1.374  0.00  0.00    +0.147 C 
ATOM     10  C   UNL     1     -36.882  23.344   3.152  0.00  0.00    +0.156 C 
ATOM     11  C   UNL     1     -33.966  19.633   1.624  0.00  0.00    +0.002 C 
ATOM     12  C   UNL     1     -34.344  21.607   0.177  0.00  0.00    +0.002 C 
ATOM     13  C   UNL     1     -34.688  24.212   3.008  0.00  0.00    -0.023 C 
ATOM     14  C   UNL     1     -39.126  24.365   2.904  0.00  0.00    +0.012 C 
ATOM     15  C   UNL     1     -36.404  25.963   2.170  0.00  0.00    +0.158 C 
ATOM     16  C   UNL     1     -38.743  25.818   1.107  0.00  0.00    +0.138 C 
ATOM     17  C   UNL     1     -39.274  21.503   2.198  0.00  0.00    +0.001 C 
ATOM     18  C   UNL     1     -35.084  25.495   2.838  0.00  0.00    +0.010 C 
ATOM     19  C   UNL     1     -39.567  25.481   2.309  0.00  0.00    +0.030 C 
ATOM     20  C   UNL     1     -40.731  26.310   2.715  0.00  0.00    +0.003 C 
ENDROOT
BRANCH   2  21
ATOM     21  O   UNL     1     -36.814  19.697   2.336  0.00  0.00    -0.387 OA
ATOM     22  H   UNL     1     -37.753  19.615   2.107  0.00  0.00    +0.210 HD
ENDBRANCH   2  21
BRANCH   9  23
ATOM     23  O   UNL     1     -36.870  24.659   0.114  0.00  0.00    -0.381 OA
ATOM     24  H   UNL     1     -36.086  24.105   0.254  0.00  0.00    +0.210 HD
ENDBRANCH   9  23
BRANCH  15  25
ATOM     25  O   UNL     1     -36.071  27.043   1.278  0.00  0.00    -0.378 OA
ATOM     26  H   UNL     1     -35.733  27.794   1.792  0.00  0.00    +0.211 HD
ENDBRANCH  15  25
BRANCH  16  27
ATOM     27  O   UNL     1     -39.443  25.367  -0.045  0.00  0.00    -0.382 OA
ATOM     28  H   UNL     1     -40.238  25.908  -0.173  0.00  0.00    +0.210 HD
ENDBRANCH  16  27
BRANCH  18  29
ATOM     29  C   UNL     1     -34.226  26.601   3.403  0.00  0.00    +0.161 C 
BRANCH  29  30
ATOM     30  O   UNL     1     -35.057  27.605   3.948  0.00  0.00    -0.377 OA
ATOM     31  H   UNL     1     -35.963  27.269   4.022  0.00  0.00    +0.211 HD
ENDBRANCH  29  30
ENDBRANCH  18  29
TORSDOF 6
ENDMDL
MODEL 3
REMARK VINA RESULT:      -6.4      2.579      5.652
REMARK  Name = 59053144
REMARK  6 active torsions:
REMARK  status: ('A' for Active; 'I' for Inactive)
REMARK    1  A    between atoms: C_2  and  O_21
REMARK    2  A    between atoms: C_9  and  O_23
REMARK    3  A    between atoms: C_15  and  O_25
REMARK    4  A    between atoms: C_16  and  O_27
REMARK    5  A    between atoms: C_18  and  C_29
REMARK    6  A    between atoms: C_29  and  O_30
REMARK                            x       y       z     vdW  Elec       q    Type
REMARK                         _______ _______ _______ _____ _____    ______ ____
ROOT
ATOM      1  O   UNL     1     -35.572  21.742  -1.261  0.00  0.00    -0.296 OA
ATOM      2  C   UNL     1     -34.697  18.275  -0.977  0.00  0.00    +0.089 C 
ATOM      3  C   UNL     1     -35.950  18.830  -1.647  0.00  0.00    +0.038 C 
ATOM      4  C   UNL     1     -35.781  17.346  -1.466  0.00  0.00    +0.025 C 
ATOM      5  C   UNL     1     -36.725  19.690  -0.722  0.00  0.00    +0.081 C 
ATOM      6  C   UNL     1     -34.468  18.396   0.529  0.00  0.00    +0.027 C 
ATOM      7  C   UNL     1     -35.345  20.911   1.000  0.00  0.00    +0.079 C 
ATOM      8  C   UNL     1     -34.185  19.832   1.090  0.00  0.00    +0.011 C 
ATOM      9  C   UNL     1     -36.595  20.782   1.970  0.00  0.00    +0.147 C 
ATOM     10  C   UNL     1     -35.856  20.896  -0.415  0.00  0.00    +0.156 C 
ATOM     11  C   UNL     1     -35.587  16.486  -2.670  0.00  0.00    +0.002 C 
ATOM     12  C   UNL     1     -36.652  16.692  -0.444  0.00  0.00    +0.002 C 
ATOM     13  C   UNL     1     -38.072  20.252  -0.925  0.00  0.00    -0.023 C 
ATOM     14  C   UNL     1     -34.870  22.298   1.375  0.00  0.00    +0.012 C 
ATOM     15  C   UNL     1     -37.979  21.384   1.404  0.00  0.00    +0.158 C 
ATOM     16  C   UNL     1     -36.162  21.627   3.210  0.00  0.00    +0.138 C 
ATOM     17  C   UNL     1     -32.866  20.332   0.462  0.00  0.00    +0.001 C 
ATOM     18  C   UNL     1     -38.636  21.001   0.051  0.00  0.00    +0.010 C 
ATOM     19  C   UNL     1     -35.298  22.676   2.587  0.00  0.00    +0.030 C 
ATOM     20  C   UNL     1     -34.975  23.942   3.293  0.00  0.00    +0.003 C 
ENDROOT
BRANCH   2  21
ATOM     21  O   UNL     1     -33.493  18.332  -1.761  0.00  0.00    -0.387 OA
ATOM     22  H   UNL     1     -33.242  19.259  -1.902  0.00  0.00    +0.210 HD
ENDBRANCH   2  21
BRANCH   9  23
ATOM     23  O   UNL     1     -36.806  19.442   2.403  0.00  0.00    -0.381 OA
ATOM     24  H   UNL     1     -36.706  19.395   3.367  0.00  0.00    +0.210 HD
ENDBRANCH   9  23
BRANCH  15  25
ATOM     25  O   UNL     1     -38.967  21.178   2.432  0.00  0.00    -0.378 OA
ATOM     26  H   UNL     1     -39.385  22.025   2.652  0.00  0.00    +0.211 HD
ENDBRANCH  15  25
BRANCH  16  27
ATOM     27  O   UNL     1     -35.365  20.890   4.128  0.00  0.00    -0.382 OA
ATOM     28  H   UNL     1     -35.776  20.026   4.292  0.00  0.00    +0.210 HD
ENDBRANCH  16  27
BRANCH  18  29
ATOM     29  C   UNL     1     -40.001  21.600  -0.189  0.00  0.00    +0.161 C 
BRANCH  29  30
ATOM     30  O   UNL     1     -40.986  20.761   0.376  0.00  0.00    -0.377 OA
ATOM     31  H   UNL     1     -41.300  21.147   1.208  0.00  0.00    +0.211 HD
ENDBRANCH  29  30
ENDBRANCH  18  29
TORSDOF 6
ENDMDL
MODEL 4
REMARK VINA RESULT:      -6.3      1.786      4.551
REMARK  Name = 59053144
REMARK  6 active torsions:
REMARK  status: ('A' for Active; 'I' for Inactive)
REMARK    1  A    between atoms: C_2  and  O_21
REMARK    2  A    between atoms: C_9  and  O_23
REMARK    3  A    between atoms: C_15  and  O_25
REMARK    4  A    between atoms: C_16  and  O_27
REMARK    5  A    between atoms: C_18  and  C_29
REMARK    6  A    between atoms: C_29  and  O_30
REMARK                            x       y       z     vdW  Elec       q    Type
REMARK                         _______ _______ _______ _____ _____    ______ ____
ROOT
ATOM      1  O   UNL     1     -35.757  23.541  -0.246  0.00  0.00    -0.296 OA
ATOM      2  C   UNL     1     -36.175  24.386   3.214  0.00  0.00    +0.089 C 
ATOM      3  C   UNL     1     -34.986  23.645   2.612  0.00  0.00    +0.038 C 
ATOM      4  C   UNL     1     -35.104  23.802   4.103  0.00  0.00    +0.025 C 
ATOM      5  C   UNL     1     -35.418  22.435   1.873  0.00  0.00    +0.081 C 
ATOM      6  C   UNL     1     -37.572  23.768   3.257  0.00  0.00    +0.027 C 
ATOM      7  C   UNL     1     -37.706  22.590   0.826  0.00  0.00    +0.079 C 
ATOM      8  C   UNL     1     -38.315  23.600   1.887  0.00  0.00    +0.011 C 
ATOM      9  C   UNL     1     -37.837  21.030   1.084  0.00  0.00    +0.147 C 
ATOM     10  C   UNL     1     -36.243  22.914   0.693  0.00  0.00    +0.156 C 
ATOM     11  C   UNL     1     -34.126  24.672   4.821  0.00  0.00    +0.002 C 
ATOM     12  C   UNL     1     -35.439  22.572   4.882  0.00  0.00    +0.002 C 
ATOM     13  C   UNL     1     -34.570  21.366   1.317  0.00  0.00    -0.023 C 
ATOM     14  C   UNL     1     -38.392  22.687  -0.519  0.00  0.00    +0.012 C 
ATOM     15  C   UNL     1     -36.669  20.119   0.448  0.00  0.00    +0.158 C 
ATOM     16  C   UNL     1     -39.181  20.670   0.374  0.00  0.00    +0.138 C 
ATOM     17  C   UNL     1     -38.539  25.009   1.297  0.00  0.00    +0.001 C 
ATOM     18  C   UNL     1     -35.148  20.314   0.691  0.00  0.00    +0.010 C 
ATOM     19  C   UNL     1     -39.211  21.653  -0.754  0.00  0.00    +0.030 C 
ATOM     20  C   UNL     1     -40.083  21.454  -1.939  0.00  0.00    +0.003 C 
ENDROOT
BRANCH   2  21
ATOM     21  O   UNL     1     -36.170  25.815   3.049  0.00  0.00    -0.387 OA
ATOM     22  H   UNL     1     -36.888  26.204   3.572  0.00  0.00    +0.210 HD
ENDBRANCH   2  21
BRANCH   9  23
ATOM     23  O   UNL     1     -37.975  20.720   2.467  0.00  0.00    -0.381 OA
ATOM     24  H   UNL     1     -38.084  21.540   2.972  0.00  0.00    +0.210 HD
ENDBRANCH   9  23
BRANCH  15  25
ATOM     25  O   UNL     1     -36.983  18.754   0.784  0.00  0.00    -0.378 OA
ATOM     26  H   UNL     1     -37.729  18.451   0.243  0.00  0.00    +0.211 HD
ENDBRANCH  15  25
BRANCH  16  27
ATOM     27  O   UNL     1     -40.318  20.908   1.193  0.00  0.00    -0.382 OA
ATOM     28  H   UNL     1     -40.107  21.592   1.848  0.00  0.00    +0.210 HD
ENDBRANCH  16  27
BRANCH  18  29
ATOM     29  C   UNL     1     -34.263  19.247   0.093  0.00  0.00    +0.161 C 
BRANCH  29  30
ATOM     30  O   UNL     1     -34.152  18.171   0.999  0.00  0.00    -0.377 OA
ATOM     31  H   UNL     1     -34.973  18.091   1.509  0.00  0.00    +0.211 HD
ENDBRANCH  29  30
ENDBRANCH  18  29
TORSDOF 6
ENDMDL
MODEL 5
REMARK VINA RESULT:      -6.1      1.329      1.491
REMARK  Name = 59053144
REMARK  6 active torsions:
REMARK  status: ('A' for Active; 'I' for Inactive)
REMARK    1  A    between atoms: C_2  and  O_21
REMARK    2  A    between atoms: C_9  and  O_23
REMARK    3  A    between atoms: C_15  and  O_25
REMARK    4  A    between atoms: C_16  and  O_27
REMARK    5  A    between atoms: C_18  and  C_29
REMARK    6  A    between atoms: C_29  and  O_30
REMARK                            x       y       z     vdW  Elec       q    Type
REMARK                         _______ _______ _______ _____ _____    ______ ____
ROOT
ATOM      1  O   UNL     1     -34.764  24.401   0.753  0.00  0.00    -0.296 OA
ATOM      2  C   UNL     1     -38.256  24.806   0.042  0.00  0.00    +0.089 C 
ATOM      3  C   UNL     1     -37.437  25.652   1.011  0.00  0.00    +0.038 C 
ATOM      4  C   UNL     1     -38.927  25.833   0.920  0.00  0.00    +0.025 C 
ATOM      5  C   UNL     1     -36.769  24.812   2.034  0.00  0.00    +0.081 C 
ATOM      6  C   UNL     1     -38.541  23.327   0.305  0.00  0.00    +0.027 C 
ATOM      7  C   UNL     1     -36.155  22.490   1.267  0.00  0.00    +0.079 C 
ATOM      8  C   UNL     1     -37.325  22.343   0.205  0.00  0.00    +0.011 C 
ATOM      9  C   UNL     1     -36.408  22.021   2.762  0.00  0.00    +0.147 C 
ATOM     10  C   UNL     1     -35.765  23.942   1.299  0.00  0.00    +0.156 C 
ATOM     11  C   UNL     1     -39.470  27.105   0.358  0.00  0.00    +0.002 C 
ATOM     12  C   UNL     1     -39.734  25.342   2.077  0.00  0.00    +0.002 C 
ATOM     13  C   UNL     1     -36.051  25.259   3.241  0.00  0.00    -0.023 C 
ATOM     14  C   UNL     1     -34.958  21.630   0.926  0.00  0.00    +0.012 C 
ATOM     15  C   UNL     1     -35.556  22.799   3.888  0.00  0.00    +0.158 C 
ATOM     16  C   UNL     1     -35.947  20.528   2.742  0.00  0.00    +0.138 C 
ATOM     17  C   UNL     1     -36.808  22.379  -1.249  0.00  0.00    +0.001 C 
ATOM     18  C   UNL     1     -35.524  24.339   4.081  0.00  0.00    +0.010 C 
ATOM     19  C   UNL     1     -34.859  20.552   1.715  0.00  0.00    +0.030 C 
ATOM     20  C   UNL     1     -33.848  19.468   1.624  0.00  0.00    +0.003 C 
ENDROOT
BRANCH   2  21
ATOM     21  O   UNL     1     -38.116  25.138  -1.350  0.00  0.00    -0.387 OA
ATOM     22  H   UNL     1     -38.197  26.098  -1.464  0.00  0.00    +0.210 HD
ENDBRANCH   2  21
BRANCH   9  23
ATOM     23  O   UNL     1     -37.788  22.049   3.112  0.00  0.00    -0.381 OA
ATOM     24  H   UNL     1     -38.314  22.288   2.333  0.00  0.00    +0.210 HD
ENDBRANCH   9  23
BRANCH  15  25
ATOM     25  O   UNL     1     -35.922  22.218   5.154  0.00  0.00    -0.378 OA
ATOM     26  H   UNL     1     -35.236  21.592   5.432  0.00  0.00    +0.211 HD
ENDBRANCH  15  25
BRANCH  16  27
ATOM     27  O   UNL     1     -36.962  19.644   2.285  0.00  0.00    -0.382 OA
ATOM     28  H   UNL     1     -37.742  19.726   2.857  0.00  0.00    +0.210 HD
ENDBRANCH  16  27
BRANCH  18  29
ATOM     29  C   UNL     1     -34.759  24.814   5.293  0.00  0.00    +0.161 C 
BRANCH  29  30
ATOM     30  O   UNL     1     -33.516  25.344   4.883  0.00  0.00    -0.377 OA
ATOM     31  H   UNL     1     -32.848  24.642   4.889  0.00  0.00    +0.211 HD
ENDBRANCH  29  30
ENDBRANCH  18  29
TORSDOF 6
ENDMDL
MODEL 6
REMARK VINA RESULT:      -6.1      1.823      4.635
REMARK  Name = 59053144
REMARK  6 active torsions:
REMARK  status: ('A' for Active; 'I' for Inactive)
REMARK    1  A    between atoms: C_2  and  O_21
REMARK    2  A    between atoms: C_9  and  O_23
REMARK    3  A    between atoms: C_15  and  O_25
REMARK    4  A    between atoms: C_16  and  O_27
REMARK    5  A    between atoms: C_18  and  C_29
REMARK    6  A    between atoms: C_29  and  O_30
REMARK                            x       y       z     vdW  Elec       q    Type
REMARK                         _______ _______ _______ _____ _____    ______ ____
ROOT
ATOM      1  O   UNL     1     -35.529  24.710   0.377  0.00  0.00    -0.296 OA
ATOM      2  C   UNL     1     -36.048  25.797   3.755  0.00  0.00    +0.089 C 
ATOM      3  C   UNL     1     -34.927  24.882   3.272  0.00  0.00    +0.038 C 
ATOM      4  C   UNL     1     -35.115  25.138   4.742  0.00  0.00    +0.025 C 
ATOM      5  C   UNL     1     -35.461  23.694   2.566  0.00  0.00    +0.081 C 
ATOM      6  C   UNL     1     -37.511  25.358   3.733  0.00  0.00    +0.027 C 
ATOM      7  C   UNL     1     -37.644  24.068   1.360  0.00  0.00    +0.079 C 
ATOM      8  C   UNL     1     -38.185  25.205   2.327  0.00  0.00    +0.011 C 
ATOM      9  C   UNL     1     -37.986  22.553   1.685  0.00  0.00    +0.147 C 
ATOM     10  C   UNL     1     -36.147  24.202   1.311  0.00  0.00    +0.156 C 
ATOM     11  C   UNL     1     -34.081  25.921   5.481  0.00  0.00    +0.002 C 
ATOM     12  C   UNL     1     -35.649  24.005   5.556  0.00  0.00    +0.002 C 
ATOM     13  C   UNL     1     -34.722  22.499   2.122  0.00  0.00    -0.023 C 
ATOM     14  C   UNL     1     -38.229  24.171  -0.032  0.00  0.00    +0.012 C 
ATOM     15  C   UNL     1     -36.905  21.471   1.175  0.00  0.00    +0.158 C 
ATOM     16  C   UNL     1     -39.319  22.321   0.904  0.00  0.00    +0.138 C 
ATOM     17  C   UNL     1     -38.193  26.594   1.654  0.00  0.00    +0.001 C 
ATOM     18  C   UNL     1     -35.390  21.492   1.510  0.00  0.00    +0.010 C 
ATOM     19  C   UNL     1     -39.155  23.233  -0.270  0.00  0.00    +0.030 C 
ATOM     20  C   UNL     1     -39.971  23.076  -1.501  0.00  0.00    +0.003 C 
ENDROOT
BRANCH   2  21
ATOM     21  O   UNL     1     -35.852  27.202   3.521  0.00  0.00    -0.387 OA
ATOM     22  H   UNL     1     -36.300  27.711   4.215  0.00  0.00    +0.210 HD
ENDBRANCH   2  21
BRANCH   9  23
ATOM     23  O   UNL     1     -38.246  22.342   3.069  0.00  0.00    -0.381 OA
ATOM     24  H   UNL     1     -38.058  21.418   3.296  0.00  0.00    +0.210 HD
ENDBRANCH   9  23
BRANCH  15  25
ATOM     25  O   UNL     1     -37.408  20.177   1.556  0.00  0.00    -0.378 OA
ATOM     26  H   UNL     1     -37.089  19.509   0.929  0.00  0.00    +0.211 HD
ENDBRANCH  15  25
BRANCH  16  27
ATOM     27  O   UNL     1     -40.464  22.743   1.632  0.00  0.00    -0.382 OA
ATOM     28  H   UNL     1     -40.195  23.036   2.517  0.00  0.00    +0.210 HD
ENDBRANCH  16  27
BRANCH  18  29
ATOM     29  C   UNL     1     -34.611  20.293   1.027  0.00  0.00    +0.161 C 
BRANCH  29  30
ATOM     30  O   UNL     1     -34.505  19.352   2.075  0.00  0.00    -0.377 OA
ATOM     31  H   UNL     1     -35.203  19.514   2.727  0.00  0.00    +0.211 HD
ENDBRANCH  29  30
ENDBRANCH  18  29
TORSDOF 6
ENDMDL
MODEL 7
REMARK VINA RESULT:      -5.9      8.270     11.803
REMARK  Name = 59053144
REMARK  6 active torsions:
REMARK  status: ('A' for Active; 'I' for Inactive)
REMARK    1  A    between atoms: C_2  and  O_21
REMARK    2  A    between atoms: C_9  and  O_23
REMARK    3  A    between atoms: C_15  and  O_25
REMARK    4  A    between atoms: C_16  and  O_27
REMARK    5  A    between atoms: C_18  and  C_29
REMARK    6  A    between atoms: C_29  and  O_30
REMARK                            x       y       z     vdW  Elec       q    Type
REMARK                         _______ _______ _______ _____ _____    ______ ____
ROOT
ATOM      1  O   UNL     1     -46.931  28.755   3.604  0.00  0.00    -0.296 OA
ATOM      2  C   UNL     1     -43.809  27.916   2.051  0.00  0.00    +0.089 C 
ATOM      3  C   UNL     1     -44.625  27.009   2.966  0.00  0.00    +0.038 C 
ATOM      4  C   UNL     1     -43.258  26.586   2.503  0.00  0.00    +0.025 C 
ATOM      5  C   UNL     1     -44.890  27.653   4.274  0.00  0.00    +0.081 C 
ATOM      6  C   UNL     1     -43.143  29.192   2.567  0.00  0.00    +0.027 C 
ATOM      7  C   UNL     1     -45.061  30.168   4.205  0.00  0.00    +0.079 C 
ATOM      8  C   UNL     1     -44.090  30.374   2.967  0.00  0.00    +0.011 C 
ATOM      9  C   UNL     1     -44.452  30.165   5.670  0.00  0.00    +0.147 C 
ATOM     10  C   UNL     1     -45.771  28.858   3.999  0.00  0.00    +0.156 C 
ATOM     11  C   UNL     1     -43.134  25.433   1.563  0.00  0.00    +0.002 C 
ATOM     12  C   UNL     1     -42.171  26.593   3.527  0.00  0.00    +0.002 C 
ATOM     13  C   UNL     1     -45.473  27.040   5.481  0.00  0.00    -0.023 C 
ATOM     14  C   UNL     1     -46.062  31.294   4.345  0.00  0.00    +0.012 C 
ATOM     15  C   UNL     1     -45.256  29.286   6.756  0.00  0.00    +0.158 C 
ATOM     16  C   UNL     1     -44.545  31.667   6.089  0.00  0.00    +0.138 C 
ATOM     17  C   UNL     1     -44.844  30.824   1.697  0.00  0.00    +0.001 C 
ATOM     18  C   UNL     1     -45.617  27.784   6.602  0.00  0.00    +0.010 C 
ATOM     19  C   UNL     1     -45.767  32.120   5.356  0.00  0.00    +0.030 C 
ATOM     20  C   UNL     1     -46.495  33.357   5.741  0.00  0.00    +0.003 C 
ENDROOT
BRANCH   2  21
ATOM     21  O   UNL     1     -44.261  28.000   0.689  0.00  0.00    -0.387 OA
ATOM     22  H   UNL     1     -43.657  28.564   0.181  0.00  0.00    +0.210 HD
ENDBRANCH   2  21
BRANCH   9  23
ATOM     23  O   UNL     1     -43.078  29.790   5.684  0.00  0.00    -0.381 OA
ATOM     24  H   UNL     1     -42.667  30.099   6.506  0.00  0.00    +0.210 HD
ENDBRANCH   9  23
BRANCH  15  25
ATOM     25  O   UNL     1     -44.551  29.430   8.004  0.00  0.00    -0.378 OA
ATOM     26  H   UNL     1     -45.082  29.047   8.720  0.00  0.00    +0.211 HD
ENDBRANCH  15  25
BRANCH  16  27
ATOM     27  O   UNL     1     -43.444  32.437   5.625  0.00  0.00    -0.382 OA
ATOM     28  H   UNL     1     -42.897  32.707   6.380  0.00  0.00    +0.210 HD
ENDBRANCH  16  27
BRANCH  18  29
ATOM     29  C   UNL     1     -46.252  27.152   7.817  0.00  0.00    +0.161 C 
BRANCH  29  30
ATOM     30  O   UNL     1     -45.250  26.545   8.606  0.00  0.00    -0.377 OA
ATOM     31  H   UNL     1     -44.810  25.851   8.092  0.00  0.00    +0.211 HD
ENDBRANCH  29  30
ENDBRANCH  18  29
TORSDOF 6
ENDMDL
MODEL 8
REMARK VINA RESULT:      -5.8      1.852      2.618
REMARK  Name = 59053144
REMARK  6 active torsions:
REMARK  status: ('A' for Active; 'I' for Inactive)
REMARK    1  A    between atoms: C_2  and  O_21
REMARK    2  A    between atoms: C_9  and  O_23
REMARK    3  A    between atoms: C_15  and  O_25
REMARK    4  A    between atoms: C_16  and  O_27
REMARK    5  A    between atoms: C_18  and  C_29
REMARK    6  A    between atoms: C_29  and  O_30
REMARK                            x       y       z     vdW  Elec       q    Type
REMARK                         _______ _______ _______ _____ _____    ______ ____
ROOT
ATOM      1  O   UNL     1     -37.040  24.373  -0.282  0.00  0.00    -0.296 OA
ATOM      2  C   UNL     1     -40.200  23.840   1.329  0.00  0.00    +0.089 C 
ATOM      3  C   UNL     1     -39.417  25.150   1.305  0.00  0.00    +0.038 C 
ATOM      4  C   UNL     1     -40.658  25.024   2.145  0.00  0.00    +0.025 C 
ATOM      5  C   UNL     1     -38.044  24.971   1.831  0.00  0.00    +0.081 C 
ATOM      6  C   UNL     1     -39.682  22.606   2.066  0.00  0.00    +0.027 C 
ATOM      7  C   UNL     1     -37.049  22.685   1.452  0.00  0.00    +0.079 C 
ATOM      8  C   UNL     1     -38.424  21.893   1.460  0.00  0.00    +0.011 C 
ATOM      9  C   UNL     1     -36.269  22.890   2.818  0.00  0.00    +0.147 C 
ATOM     10  C   UNL     1     -37.323  24.044   0.869  0.00  0.00    +0.156 C 
ATOM     11  C   UNL     1     -41.872  25.807   1.770  0.00  0.00    +0.002 C 
ATOM     12  C   UNL     1     -40.463  24.968   3.625  0.00  0.00    +0.002 C 
ATOM     13  C   UNL     1     -37.053  26.016   2.144  0.00  0.00    -0.023 C 
ATOM     14  C   UNL     1     -35.981  21.973   0.650  0.00  0.00    +0.012 C 
ATOM     15  C   UNL     1     -35.354  24.214   2.905  0.00  0.00    +0.158 C 
ATOM     16  C   UNL     1     -35.333  21.641   2.877  0.00  0.00    +0.138 C 
ATOM     17  C   UNL     1     -38.810  21.368   0.060  0.00  0.00    +0.001 C 
ATOM     18  C   UNL     1     -35.847  25.663   2.647  0.00  0.00    +0.010 C 
ATOM     19  C   UNL     1     -35.061  21.387   1.428  0.00  0.00    +0.030 C 
ATOM     20  C   UNL     1     -33.912  20.558   0.983  0.00  0.00    +0.003 C 
ENDROOT
BRANCH   2  21
ATOM     21  O   UNL     1     -40.955  23.542   0.143  0.00  0.00    -0.387 OA
ATOM     22  H   UNL     1     -41.859  23.879   0.241  0.00  0.00    +0.210 HD
ENDBRANCH   2  21
BRANCH   9  23
ATOM     23  O   UNL     1     -37.136  22.842   3.948  0.00  0.00    -0.381 OA
ATOM     24  H   UNL     1     -37.963  23.302   3.739  0.00  0.00    +0.210 HD
ENDBRANCH   9  23
BRANCH  15  25
ATOM     25  O   UNL     1     -34.734  24.200   4.205  0.00  0.00    -0.378 OA
ATOM     26  H   UNL     1     -34.132  24.956   4.284  0.00  0.00    +0.211 HD
ENDBRANCH  15  25
BRANCH  16  27
ATOM     27  O   UNL     1     -35.979  20.492   3.409  0.00  0.00    -0.382 OA
ATOM     28  H   UNL     1     -36.623  20.156   2.766  0.00  0.00    +0.210 HD
ENDBRANCH  16  27
BRANCH  18  29
ATOM     29  C   UNL     1     -34.830  26.743   2.925  0.00  0.00    +0.161 C 
BRANCH  29  30
ATOM     30  O   UNL     1     -35.085  27.309   4.194  0.00  0.00    -0.377 OA
ATOM     31  H   UNL     1     -35.277  26.603   4.830  0.00  0.00    +0.211 HD
ENDBRANCH  29  30
ENDBRANCH  18  29
TORSDOF 6
ENDMDL
MODEL 9
REMARK VINA RESULT:      -5.8      9.172     13.131
REMARK  Name = 59053144
REMARK  6 active torsions:
REMARK  status: ('A' for Active; 'I' for Inactive)
REMARK    1  A    between atoms: C_2  and  O_21
REMARK    2  A    between atoms: C_9  and  O_23
REMARK    3  A    between atoms: C_15  and  O_25
REMARK    4  A    between atoms: C_16  and  O_27
REMARK    5  A    between atoms: C_18  and  C_29
REMARK    6  A    between atoms: C_29  and  O_30
REMARK                            x       y       z     vdW  Elec       q    Type
REMARK                         _______ _______ _______ _____ _____    ______ ____
ROOT
ATOM      1  O   UNL     1     -47.132  29.943   4.055  0.00  0.00    -0.296 OA
ATOM      2  C   UNL     1     -46.344  33.403   3.531  0.00  0.00    +0.089 C 
ATOM      3  C   UNL     1     -46.018  32.257   2.578  0.00  0.00    +0.038 C 
ATOM      4  C   UNL     1     -45.497  33.641   2.305  0.00  0.00    +0.025 C 
ATOM      5  C   UNL     1     -45.232  31.198   3.252  0.00  0.00    +0.081 C 
ATOM      6  C   UNL     1     -45.685  33.521   4.904  0.00  0.00    +0.027 C 
ATOM      7  C   UNL     1     -45.688  30.942   5.719  0.00  0.00    +0.079 C 
ATOM      8  C   UNL     1     -46.090  32.455   5.979  0.00  0.00    +0.011 C 
ATOM      9  C   UNL     1     -44.168  30.511   5.870  0.00  0.00    +0.147 C 
ATOM     10  C   UNL     1     -46.127  30.600   4.322  0.00  0.00    +0.156 C 
ATOM     11  C   UNL     1     -46.022  34.395   1.128  0.00  0.00    +0.002 C 
ATOM     12  C   UNL     1     -44.032  33.856   2.501  0.00  0.00    +0.002 C 
ATOM     13  C   UNL     1     -44.570  30.033   2.637  0.00  0.00    -0.023 C 
ATOM     14  C   UNL     1     -46.322  29.999   6.718  0.00  0.00    +0.012 C 
ATOM     15  C   UNL     1     -43.703  29.267   4.956  0.00  0.00    +0.158 C 
ATOM     16  C   UNL     1     -44.074  30.081   7.369  0.00  0.00    +0.138 C 
ATOM     17  C   UNL     1     -47.597  32.623   6.264  0.00  0.00    +0.001 C 
ATOM     18  C   UNL     1     -43.866  29.178   3.415  0.00  0.00    +0.010 C 
ATOM     19  C   UNL     1     -45.448  29.549   7.627  0.00  0.00    +0.030 C 
ATOM     20  C   UNL     1     -45.736  28.661   8.782  0.00  0.00    +0.003 C 
ENDROOT
BRANCH   2  21
ATOM     21  O   UNL     1     -47.697  33.887   3.485  0.00  0.00    -0.387 OA
ATOM     22  H   UNL     1     -48.000  33.917   2.564  0.00  0.00    +0.210 HD
ENDBRANCH   2  21
BRANCH   9  23
ATOM     23  O   UNL     1     -43.274  31.602   5.669  0.00  0.00    -0.381 OA
ATOM     24  H   UNL     1     -42.365  31.310   5.837  0.00  0.00    +0.210 HD
ENDBRANCH   9  23
BRANCH  15  25
ATOM     25  O   UNL     1     -42.313  29.037   5.252  0.00  0.00    -0.378 OA
ATOM     26  H   UNL     1     -42.169  28.091   5.412  0.00  0.00    +0.211 HD
ENDBRANCH  15  25
BRANCH  16  27
ATOM     27  O   UNL     1     -43.857  31.180   8.244  0.00  0.00    -0.382 OA
ATOM     28  H   UNL     1     -42.934  31.472   8.174  0.00  0.00    +0.210 HD
ENDBRANCH  16  27
BRANCH  18  29
ATOM     29  C   UNL     1     -43.227  27.970   2.774  0.00  0.00    +0.161 C 
BRANCH  29  30
ATOM     30  O   UNL     1     -41.917  28.298   2.361  0.00  0.00    -0.377 OA
ATOM     31  H   UNL     1     -41.791  29.257   2.416  0.00  0.00    +0.211 HD
ENDBRANCH  29  30
ENDBRANCH  18  29
TORSDOF 6
ENDMDL
