MODEL 1
REMARK VINA RESULT:      -5.7      0.000      0.000
REMARK  Name = 54758653
REMARK  7 active torsions:
REMARK  status: ('A' for Active; 'I' for Inactive)
REMARK    1  A    between atoms: C_2  and  O_12
REMARK    2  A    between atoms: C_3  and  N_8
REMARK    3  A    between atoms: C_4  and  O_14
REMARK    4  A    between atoms: C_5  and  C_18
REMARK    5  A    between atoms: C_6  and  O_16
REMARK    6  A    between atoms: C_18  and  O_19
REMARK    7  A    between atoms: O_19  and  P_20
REMARK                            x       y       z     vdW  Elec       q    Type
REMARK                         _______ _______ _______ _____ _____    ______ ____
ROOT
ATOM      1  O   UNL     1     -35.204  23.035   3.712  0.00  0.00    -0.327 OA
ATOM      2  C   UNL     1     -36.321  25.237   5.178  0.00  0.00    +0.162 C 
ATOM      3  C   UNL     1     -34.823  24.918   5.217  0.00  0.00    +0.158 C 
ATOM      4  C   UNL     1     -36.968  24.719   3.893  0.00  0.00    +0.169 C 
ATOM      5  C   UNL     1     -36.621  23.239   3.684  0.00  0.00    +0.177 C 
ATOM      6  C   UNL     1     -34.578  23.432   4.934  0.00  0.00    +0.253 C 
ENDROOT
BRANCH   3   8
ATOM      7  O   UNL     1     -33.325  27.343   5.770  0.00  0.00    -0.275 OA
ATOM      8  N   UNL     1     -34.082  25.730   4.273  0.00  0.00    -0.299 N 
ATOM      9  C   UNL     1     -33.398  26.875   4.637  0.00  0.00    +0.223 C 
ATOM     10  C   UNL     1     -32.696  27.512   3.467  0.00  0.00    +0.095 C 
ATOM     11  H   UNL     1     -34.066  25.454   3.328  0.00  0.00    +0.150 HD
ENDBRANCH   3   8
BRANCH   2  12
ATOM     12  O   UNL     1     -36.515  26.643   5.305  0.00  0.00    -0.380 OA
ATOM     13  H   UNL     1     -35.668  27.099   5.190  0.00  0.00    +0.211 HD
ENDBRANCH   2  12
BRANCH   4  14
ATOM     14  O   UNL     1     -38.379  24.883   4.012  0.00  0.00    -0.379 OA
ATOM     15  H   UNL     1     -38.818  24.036   3.837  0.00  0.00    +0.211 HD
ENDBRANCH   4  14
BRANCH   6  16
ATOM     16  O   UNL     1     -35.017  22.658   6.046  0.00  0.00    -0.359 OA
ATOM     17  H   UNL     1     -35.390  21.820   5.730  0.00  0.00    +0.213 HD
ENDBRANCH   6  16
BRANCH   5  18
ATOM     18  C   UNL     1     -37.121  22.718   2.339  0.00  0.00    +0.186 C 
BRANCH  18  19
ATOM     19  O   UNL     1     -38.370  22.083   2.541  0.00  0.00    -0.268 OA
BRANCH  19  20
ATOM     20  P   UNL     1     -39.599  22.381   1.474  0.00  0.00    +0.533 P 
ATOM     21  O   UNL     1     -40.372  23.524   2.126  0.00  0.00    -0.115 OA
ATOM     22  O   UNL     1     -40.374  21.069   1.402  0.00  0.00    -0.115 OA
ATOM     23  O   UNL     1     -38.896  22.769   0.177  0.00  0.00    -0.222 OA
ENDBRANCH  19  20
ENDBRANCH  18  19
ENDBRANCH   5  18
TORSDOF 7
ENDMDL
MODEL 2
REMARK VINA RESULT:      -5.4      3.085      5.631
REMARK  Name = 54758653
REMARK  7 active torsions:
REMARK  status: ('A' for Active; 'I' for Inactive)
REMARK    1  A    between atoms: C_2  and  O_12
REMARK    2  A    between atoms: C_3  and  N_8
REMARK    3  A    between atoms: C_4  and  O_14
REMARK    4  A    between atoms: C_5  and  C_18
REMARK    5  A    between atoms: C_6  and  O_16
REMARK    6  A    between atoms: C_18  and  O_19
REMARK    7  A    between atoms: O_19  and  P_20
REMARK                            x       y       z     vdW  Elec       q    Type
REMARK                         _______ _______ _______ _____ _____    ______ ____
ROOT
ATOM      1  O   UNL     1     -34.886  24.359   2.206  0.00  0.00    -0.327 OA
ATOM      2  C   UNL     1     -37.637  24.563   3.002  0.00  0.00    +0.162 C 
ATOM      3  C   UNL     1     -36.840  23.266   3.175  0.00  0.00    +0.158 C 
ATOM      4  C   UNL     1     -36.716  25.784   2.980  0.00  0.00    +0.169 C 
ATOM      5  C   UNL     1     -35.590  25.580   1.958  0.00  0.00    +0.177 C 
ATOM      6  C   UNL     1     -35.703  23.188   2.151  0.00  0.00    +0.253 C 
ENDROOT
BRANCH   3   8
ATOM      7  O   UNL     1     -35.354  21.034   4.290  0.00  0.00    -0.275 OA
ATOM      8  N   UNL     1     -36.308  23.144   4.517  0.00  0.00    -0.299 N 
ATOM      9  C   UNL     1     -35.610  22.034   4.955  0.00  0.00    +0.223 C 
ATOM     10  C   UNL     1     -35.150  22.180   6.381  0.00  0.00    +0.095 C 
ATOM     11  H   UNL     1     -36.450  23.889   5.147  0.00  0.00    +0.150 HD
ENDBRANCH   3   8
BRANCH   2  12
ATOM     12  O   UNL     1     -38.597  24.680   4.049  0.00  0.00    -0.380 OA
ATOM     13  H   UNL     1     -38.803  25.615   4.196  0.00  0.00    +0.211 HD
ENDBRANCH   2  12
BRANCH   4  14
ATOM     14  O   UNL     1     -37.500  26.922   2.631  0.00  0.00    -0.379 OA
ATOM     15  H   UNL     1     -37.930  27.274   3.426  0.00  0.00    +0.211 HD
ENDBRANCH   4  14
BRANCH   6  16
ATOM     16  O   UNL     1     -36.247  22.964   0.853  0.00  0.00    -0.359 OA
ATOM     17  H   UNL     1     -36.910  23.644   0.659  0.00  0.00    +0.213 HD
ENDBRANCH   6  16
BRANCH   5  18
ATOM     18  C   UNL     1     -34.563  26.707   2.005  0.00  0.00    +0.186 C 
BRANCH  18  19
ATOM     19  O   UNL     1     -34.549  27.247   3.314  0.00  0.00    -0.268 OA
BRANCH  19  20
ATOM     20  P   UNL     1     -33.213  27.009   4.260  0.00  0.00    +0.533 P 
ATOM     21  O   UNL     1     -33.620  25.858   5.175  0.00  0.00    -0.115 OA
ATOM     22  O   UNL     1     -33.013  28.337   4.986  0.00  0.00    -0.115 OA
ATOM     23  O   UNL     1     -32.102  26.656   3.277  0.00  0.00    -0.222 OA
ENDBRANCH  19  20
ENDBRANCH  18  19
ENDBRANCH   5  18
TORSDOF 7
ENDMDL
MODEL 3
REMARK VINA RESULT:      -5.4      3.519      6.589
REMARK  Name = 54758653
REMARK  7 active torsions:
REMARK  status: ('A' for Active; 'I' for Inactive)
REMARK    1  A    between atoms: C_2  and  O_12
REMARK    2  A    between atoms: C_3  and  N_8
REMARK    3  A    between atoms: C_4  and  O_14
REMARK    4  A    between atoms: C_5  and  C_18
REMARK    5  A    between atoms: C_6  and  O_16
REMARK    6  A    between atoms: C_18  and  O_19
REMARK    7  A    between atoms: O_19  and  P_20
REMARK                            x       y       z     vdW  Elec       q    Type
REMARK                         _______ _______ _______ _____ _____    ______ ____
ROOT
ATOM      1  O   UNL     1     -33.447  25.257   2.935  0.00  0.00    -0.327 OA
ATOM      2  C   UNL     1     -36.198  26.010   3.272  0.00  0.00    +0.162 C 
ATOM      3  C   UNL     1     -35.762  24.542   3.231  0.00  0.00    +0.158 C 
ATOM      4  C   UNL     1     -35.056  26.918   3.731  0.00  0.00    +0.169 C 
ATOM      5  C   UNL     1     -33.795  26.645   2.900  0.00  0.00    +0.177 C 
ATOM      6  C   UNL     1     -34.463  24.385   2.434  0.00  0.00    +0.253 C 
ENDROOT
BRANCH   3   8
ATOM      7  O   UNL     1     -35.700  21.744   4.006  0.00  0.00    -0.275 OA
ATOM      8  N   UNL     1     -35.593  24.000   4.564  0.00  0.00    -0.299 N 
ATOM      9  C   UNL     1     -35.578  22.644   4.833  0.00  0.00    +0.223 C 
ATOM     10  C   UNL     1     -35.364  22.357   6.295  0.00  0.00    +0.095 C 
ATOM     11  H   UNL     1     -35.485  24.629   5.315  0.00  0.00    +0.150 HD
ENDBRANCH   3   8
BRANCH   2  12
ATOM     12  O   UNL     1     -37.325  26.152   4.132  0.00  0.00    -0.380 OA
ATOM     13  H   UNL     1     -37.045  26.548   4.971  0.00  0.00    +0.211 HD
ENDBRANCH   2  12
BRANCH   4  14
ATOM     14  O   UNL     1     -35.473  28.271   3.565  0.00  0.00    -0.379 OA
ATOM     15  H   UNL     1     -36.382  28.290   3.229  0.00  0.00    +0.211 HD
ENDBRANCH   4  14
BRANCH   6  16
ATOM     16  O   UNL     1     -34.727  24.595   1.050  0.00  0.00    -0.359 OA
ATOM     17  H   UNL     1     -35.133  23.799   0.673  0.00  0.00    +0.213 HD
ENDBRANCH   6  16
BRANCH   5  18
ATOM     18  C   UNL     1     -32.588  27.422   3.419  0.00  0.00    +0.186 C 
BRANCH  18  19
ATOM     19  O   UNL     1     -32.977  28.132   4.581  0.00  0.00    -0.268 OA
BRANCH  19  20
ATOM     20  P   UNL     1     -31.942  28.177   5.871  0.00  0.00    +0.533 P 
ATOM     21  O   UNL     1     -30.570  27.962   5.240  0.00  0.00    -0.115 OA
ATOM     22  O   UNL     1     -32.397  27.031   6.771  0.00  0.00    -0.115 OA
ATOM     23  O   UNL     1     -32.137  29.565   6.472  0.00  0.00    -0.222 OA
ENDBRANCH  19  20
ENDBRANCH  18  19
ENDBRANCH   5  18
TORSDOF 7
ENDMDL
MODEL 4
REMARK VINA RESULT:      -5.4      1.680      2.259
REMARK  Name = 54758653
REMARK  7 active torsions:
REMARK  status: ('A' for Active; 'I' for Inactive)
REMARK    1  A    between atoms: C_2  and  O_12
REMARK    2  A    between atoms: C_3  and  N_8
REMARK    3  A    between atoms: C_4  and  O_14
REMARK    4  A    between atoms: C_5  and  C_18
REMARK    5  A    between atoms: C_6  and  O_16
REMARK    6  A    between atoms: C_18  and  O_19
REMARK    7  A    between atoms: O_19  and  P_20
REMARK                            x       y       z     vdW  Elec       q    Type
REMARK                         _______ _______ _______ _____ _____    ______ ____
ROOT
ATOM      1  O   UNL     1     -35.154  23.175   3.817  0.00  0.00    -0.327 OA
ATOM      2  C   UNL     1     -36.399  25.298   5.296  0.00  0.00    +0.162 C 
ATOM      3  C   UNL     1     -34.896  25.018   5.395  0.00  0.00    +0.158 C 
ATOM      4  C   UNL     1     -36.971  24.804   3.966  0.00  0.00    +0.169 C 
ATOM      5  C   UNL     1     -36.572  23.342   3.728  0.00  0.00    +0.177 C 
ATOM      6  C   UNL     1     -34.596  23.550   5.079  0.00  0.00    +0.253 C 
ENDROOT
BRANCH   3   8
ATOM      7  O   UNL     1     -33.126  27.194   6.148  0.00  0.00    -0.275 OA
ATOM      8  N   UNL     1     -34.136  25.880   4.514  0.00  0.00    -0.299 N 
ATOM      9  C   UNL     1     -33.316  26.895   4.972  0.00  0.00    +0.223 C 
ATOM     10  C   UNL     1     -32.626  27.619   3.847  0.00  0.00    +0.095 C 
ATOM     11  H   UNL     1     -34.207  25.736   3.542  0.00  0.00    +0.150 HD
ENDBRANCH   3   8
BRANCH   2  12
ATOM     12  O   UNL     1     -36.640  26.693   5.456  0.00  0.00    -0.380 OA
ATOM     13  H   UNL     1     -36.834  27.090   4.593  0.00  0.00    +0.211 HD
ENDBRANCH   2  12
BRANCH   4  14
ATOM     14  O   UNL     1     -38.390  24.926   4.022  0.00  0.00    -0.379 OA
ATOM     15  H   UNL     1     -38.642  25.849   3.860  0.00  0.00    +0.211 HD
ENDBRANCH   4  14
BRANCH   6  16
ATOM     16  O   UNL     1     -35.064  22.728   6.145  0.00  0.00    -0.359 OA
ATOM     17  H   UNL     1     -34.729  23.070   6.988  0.00  0.00    +0.213 HD
ENDBRANCH   6  16
BRANCH   5  18
ATOM     18  C   UNL     1     -36.995  22.851   2.346  0.00  0.00    +0.186 C 
BRANCH  18  19
ATOM     19  O   UNL     1     -37.095  21.440   2.382  0.00  0.00    -0.268 OA
BRANCH  19  20
ATOM     20  P   UNL     1     -35.938  20.538   1.618  0.00  0.00    +0.533 P 
ATOM     21  O   UNL     1     -35.302  21.521   0.640  0.00  0.00    -0.115 OA
ATOM     22  O   UNL     1     -36.712  19.407   0.946  0.00  0.00    -0.115 OA
ATOM     23  O   UNL     1     -35.004  20.084   2.735  0.00  0.00    -0.222 OA
ENDBRANCH  19  20
ENDBRANCH  18  19
ENDBRANCH   5  18
TORSDOF 7
ENDMDL
MODEL 5
REMARK VINA RESULT:      -5.3      3.814      6.463
REMARK  Name = 54758653
REMARK  7 active torsions:
REMARK  status: ('A' for Active; 'I' for Inactive)
REMARK    1  A    between atoms: C_2  and  O_12
REMARK    2  A    between atoms: C_3  and  N_8
REMARK    3  A    between atoms: C_4  and  O_14
REMARK    4  A    between atoms: C_5  and  C_18
REMARK    5  A    between atoms: C_6  and  O_16
REMARK    6  A    between atoms: C_18  and  O_19
REMARK    7  A    between atoms: O_19  and  P_20
REMARK                            x       y       z     vdW  Elec       q    Type
REMARK                         _______ _______ _______ _____ _____    ______ ____
ROOT
ATOM      1  O   UNL     1     -34.523  22.657   0.883  0.00  0.00    -0.327 OA
ATOM      2  C   UNL     1     -36.483  20.816   1.892  0.00  0.00    +0.162 C 
ATOM      3  C   UNL     1     -35.505  20.424   0.779  0.00  0.00    +0.158 C 
ATOM      4  C   UNL     1     -35.919  21.942   2.759  0.00  0.00    +0.169 C 
ATOM      5  C   UNL     1     -35.449  23.106   1.877  0.00  0.00    +0.177 C 
ATOM      6  C   UNL     1     -35.047  21.661  -0.000  0.00  0.00    +0.253 C 
ENDROOT
BRANCH   3   8
ATOM      7  O   UNL     1     -34.156  18.129  -0.381  0.00  0.00    -0.275 OA
ATOM      8  N   UNL     1     -34.355  19.719   1.307  0.00  0.00    -0.299 N 
ATOM      9  C   UNL     1     -33.782  18.630   0.677  0.00  0.00    +0.223 C 
ATOM     10  C   UNL     1     -32.588  18.103   1.427  0.00  0.00    +0.095 C 
ATOM     11  H   UNL     1     -33.964  20.029   2.156  0.00  0.00    +0.150 HD
ENDBRANCH   3   8
BRANCH   2  12
ATOM     12  O   UNL     1     -36.786  19.675   2.689  0.00  0.00    -0.380 OA
ATOM     13  H   UNL     1     -36.183  19.640   3.447  0.00  0.00    +0.211 HD
ENDBRANCH   2  12
BRANCH   4  14
ATOM     14  O   UNL     1     -36.948  22.377   3.644  0.00  0.00    -0.379 OA
ATOM     15  H   UNL     1     -36.773  23.291   3.918  0.00  0.00    +0.211 HD
ENDBRANCH   4  14
BRANCH   6  16
ATOM     16  O   UNL     1     -36.127  22.151  -0.791  0.00  0.00    -0.359 OA
ATOM     17  H   UNL     1     -36.950  22.102  -0.281  0.00  0.00    +0.213 HD
ENDBRANCH   6  16
BRANCH   5  18
ATOM     18  C   UNL     1     -34.743  24.190   2.687  0.00  0.00    +0.186 C 
BRANCH  18  19
ATOM     19  O   UNL     1     -35.694  24.808   3.535  0.00  0.00    -0.268 OA
BRANCH  19  20
ATOM     20  P   UNL     1     -35.305  25.055   5.124  0.00  0.00    +0.533 P 
ATOM     21  O   UNL     1     -33.781  25.099   5.119  0.00  0.00    -0.115 OA
ATOM     22  O   UNL     1     -35.889  23.849   5.855  0.00  0.00    -0.115 OA
ATOM     23  O   UNL     1     -35.963  26.385   5.478  0.00  0.00    -0.222 OA
ENDBRANCH  19  20
ENDBRANCH  18  19
ENDBRANCH   5  18
TORSDOF 7
ENDMDL
MODEL 6
REMARK VINA RESULT:      -5.3      3.078      6.339
REMARK  Name = 54758653
REMARK  7 active torsions:
REMARK  status: ('A' for Active; 'I' for Inactive)
REMARK    1  A    between atoms: C_2  and  O_12
REMARK    2  A    between atoms: C_3  and  N_8
REMARK    3  A    between atoms: C_4  and  O_14
REMARK    4  A    between atoms: C_5  and  C_18
REMARK    5  A    between atoms: C_6  and  O_16
REMARK    6  A    between atoms: C_18  and  O_19
REMARK    7  A    between atoms: O_19  and  P_20
REMARK                            x       y       z     vdW  Elec       q    Type
REMARK                         _______ _______ _______ _____ _____    ______ ____
ROOT
ATOM      1  O   UNL     1     -35.708  23.876   5.668  0.00  0.00    -0.327 OA
ATOM      2  C   UNL     1     -35.005  23.155   2.979  0.00  0.00    +0.162 C 
ATOM      3  C   UNL     1     -36.103  22.417   3.752  0.00  0.00    +0.158 C 
ATOM      4  C   UNL     1     -34.816  24.579   3.502  0.00  0.00    +0.169 C 
ATOM      5  C   UNL     1     -34.630  24.564   5.025  0.00  0.00    +0.177 C 
ATOM      6  C   UNL     1     -35.860  22.514   5.261  0.00  0.00    +0.253 C 
ENDROOT
BRANCH   3   8
ATOM      7  O   UNL     1     -37.938  21.419   1.735  0.00  0.00    -0.275 OA
ATOM      8  N   UNL     1     -37.418  22.930   3.427  0.00  0.00    -0.299 N 
ATOM      9  C   UNL     1     -38.220  22.383   2.443  0.00  0.00    +0.223 C 
ATOM     10  C   UNL     1     -39.543  23.092   2.330  0.00  0.00    +0.095 C 
ATOM     11  H   UNL     1     -37.756  23.706   3.931  0.00  0.00    +0.150 HD
ENDBRANCH   3   8
BRANCH   2  12
ATOM     12  O   UNL     1     -35.324  23.171   1.590  0.00  0.00    -0.380 OA
ATOM     13  H   UNL     1     -35.180  24.061   1.235  0.00  0.00    +0.211 HD
ENDBRANCH   2  12
BRANCH   4  14
ATOM     14  O   UNL     1     -33.665  25.134   2.869  0.00  0.00    -0.379 OA
ATOM     15  H   UNL     1     -33.861  25.303   1.934  0.00  0.00    +0.211 HD
ENDBRANCH   4  14
BRANCH   6  16
ATOM     16  O   UNL     1     -34.737  21.712   5.615  0.00  0.00    -0.359 OA
ATOM     17  H   UNL     1     -35.016  20.788   5.707  0.00  0.00    +0.213 HD
ENDBRANCH   6  16
BRANCH   5  18
ATOM     18  C   UNL     1     -34.585  25.973   5.610  0.00  0.00    +0.186 C 
BRANCH  18  19
ATOM     19  O   UNL     1     -33.237  26.403   5.644  0.00  0.00    -0.268 OA
BRANCH  19  20
ATOM     20  P   UNL     1     -32.802  27.733   4.762  0.00  0.00    +0.533 P 
ATOM     21  O   UNL     1     -34.063  28.071   3.974  0.00  0.00    -0.115 OA
ATOM     22  O   UNL     1     -31.638  27.259   3.897  0.00  0.00    -0.115 OA
ATOM     23  O   UNL     1     -32.424  28.780   5.806  0.00  0.00    -0.222 OA
ENDBRANCH  19  20
ENDBRANCH  18  19
ENDBRANCH   5  18
TORSDOF 7
ENDMDL
MODEL 7
REMARK VINA RESULT:      -5.1      3.136      6.848
REMARK  Name = 54758653
REMARK  7 active torsions:
REMARK  status: ('A' for Active; 'I' for Inactive)
REMARK    1  A    between atoms: C_2  and  O_12
REMARK    2  A    between atoms: C_3  and  N_8
REMARK    3  A    between atoms: C_4  and  O_14
REMARK    4  A    between atoms: C_5  and  C_18
REMARK    5  A    between atoms: C_6  and  O_16
REMARK    6  A    between atoms: C_18  and  O_19
REMARK    7  A    between atoms: O_19  and  P_20
REMARK                            x       y       z     vdW  Elec       q    Type
REMARK                         _______ _______ _______ _____ _____    ______ ____
ROOT
ATOM      1  O   UNL     1     -35.061  26.496   2.413  0.00  0.00    -0.327 OA
ATOM      2  C   UNL     1     -36.234  25.157   4.666  0.00  0.00    +0.162 C 
ATOM      3  C   UNL     1     -36.605  24.789   3.226  0.00  0.00    +0.158 C 
ATOM      4  C   UNL     1     -34.840  25.781   4.741  0.00  0.00    +0.169 C 
ATOM      5  C   UNL     1     -34.720  26.931   3.733  0.00  0.00    +0.177 C 
ATOM      6  C   UNL     1     -36.390  25.982   2.290  0.00  0.00    +0.253 C 
ENDROOT
BRANCH   3   8
ATOM      7  O   UNL     1     -37.617  22.158   2.529  0.00  0.00    -0.275 OA
ATOM      8  N   UNL     1     -35.844  23.648   2.757  0.00  0.00    -0.299 N 
ATOM      9  C   UNL     1     -36.422  22.430   2.450  0.00  0.00    +0.223 C 
ATOM     10  C   UNL     1     -35.409  21.428   1.964  0.00  0.00    +0.095 C 
ATOM     11  H   UNL     1     -34.870  23.746   2.653  0.00  0.00    +0.150 HD
ENDBRANCH   3   8
BRANCH   2  12
ATOM     12  O   UNL     1     -36.308  23.998   5.492  0.00  0.00    -0.380 OA
ATOM     13  H   UNL     1     -37.179  23.585   5.394  0.00  0.00    +0.211 HD
ENDBRANCH   2  12
BRANCH   4  14
ATOM     14  O   UNL     1     -34.643  26.265   6.068  0.00  0.00    -0.379 OA
ATOM     15  H   UNL     1     -35.459  26.685   6.382  0.00  0.00    +0.211 HD
ENDBRANCH   4  14
BRANCH   6  16
ATOM     16  O   UNL     1     -37.382  26.972   2.547  0.00  0.00    -0.359 OA
ATOM     17  H   UNL     1     -38.207  26.541   2.817  0.00  0.00    +0.213 HD
ENDBRANCH   6  16
BRANCH   5  18
ATOM     18  C   UNL     1     -33.301  27.489   3.667  0.00  0.00    +0.186 C 
BRANCH  18  19
ATOM     19  O   UNL     1     -33.145  28.444   4.700  0.00  0.00    -0.268 OA
BRANCH  19  20
ATOM     20  P   UNL     1     -31.787  28.386   5.642  0.00  0.00    +0.533 P 
ATOM     21  O   UNL     1     -32.078  27.257   6.625  0.00  0.00    -0.115 OA
ATOM     22  O   UNL     1     -31.707  29.766   6.289  0.00  0.00    -0.115 OA
ATOM     23  O   UNL     1     -30.654  28.082   4.666  0.00  0.00    -0.222 OA
ENDBRANCH  19  20
ENDBRANCH  18  19
ENDBRANCH   5  18
TORSDOF 7
ENDMDL
MODEL 8
REMARK VINA RESULT:      -5.1      3.038      6.725
REMARK  Name = 54758653
REMARK  7 active torsions:
REMARK  status: ('A' for Active; 'I' for Inactive)
REMARK    1  A    between atoms: C_2  and  O_12
REMARK    2  A    between atoms: C_3  and  N_8
REMARK    3  A    between atoms: C_4  and  O_14
REMARK    4  A    between atoms: C_5  and  C_18
REMARK    5  A    between atoms: C_6  and  O_16
REMARK    6  A    between atoms: C_18  and  O_19
REMARK    7  A    between atoms: O_19  and  P_20
REMARK                            x       y       z     vdW  Elec       q    Type
REMARK                         _______ _______ _______ _____ _____    ______ ____
ROOT
ATOM      1  O   UNL     1     -35.695  26.155   2.783  0.00  0.00    -0.327 OA
ATOM      2  C   UNL     1     -35.792  24.691   5.252  0.00  0.00    +0.162 C 
ATOM      3  C   UNL     1     -36.556  24.227   4.008  0.00  0.00    +0.158 C 
ATOM      4  C   UNL     1     -34.583  25.550   4.876  0.00  0.00    +0.169 C 
ATOM      5  C   UNL     1     -35.010  26.677   3.926  0.00  0.00    +0.177 C 
ATOM      6  C   UNL     1     -36.878  25.416   3.096  0.00  0.00    +0.253 C 
ENDROOT
BRANCH   3   8
ATOM      7  O   UNL     1     -37.630  21.997   2.490  0.00  0.00    -0.275 OA
ATOM      8  N   UNL     1     -35.814  23.225   3.271  0.00  0.00    -0.299 N 
ATOM      9  C   UNL     1     -36.420  22.195   2.576  0.00  0.00    +0.223 C 
ATOM     10  C   UNL     1     -35.419  21.312   1.882  0.00  0.00    +0.095 C 
ATOM     11  H   UNL     1     -34.830  23.279   3.266  0.00  0.00    +0.150 HD
ENDBRANCH   3   8
BRANCH   2  12
ATOM     12  O   UNL     1     -35.382  23.559   6.013  0.00  0.00    -0.380 OA
ATOM     13  H   UNL     1     -34.629  23.801   6.574  0.00  0.00    +0.211 HD
ENDBRANCH   2  12
BRANCH   4  14
ATOM     14  O   UNL     1     -34.037  26.095   6.075  0.00  0.00    -0.379 OA
ATOM     15  H   UNL     1     -33.233  26.595   5.865  0.00  0.00    +0.211 HD
ENDBRANCH   4  14
BRANCH   6  16
ATOM     16  O   UNL     1     -37.880  26.225   3.705  0.00  0.00    -0.359 OA
ATOM     17  H   UNL     1     -37.844  26.113   4.668  0.00  0.00    +0.213 HD
ENDBRANCH   6  16
BRANCH   5  18
ATOM     18  C   UNL     1     -33.814  27.471   3.406  0.00  0.00    +0.186 C 
BRANCH  18  19
ATOM     19  O   UNL     1     -33.630  28.602   4.238  0.00  0.00    -0.268 OA
BRANCH  19  20
ATOM     20  P   UNL     1     -32.109  28.951   4.784  0.00  0.00    +0.533 P 
ATOM     21  O   UNL     1     -31.367  29.395   3.527  0.00  0.00    -0.115 OA
ATOM     22  O   UNL     1     -31.600  27.639   5.373  0.00  0.00    -0.115 OA
ATOM     23  O   UNL     1     -32.313  30.063   5.809  0.00  0.00    -0.222 OA
ENDBRANCH  19  20
ENDBRANCH  18  19
ENDBRANCH   5  18
TORSDOF 7
ENDMDL
MODEL 9
REMARK VINA RESULT:      -5.0      2.968      6.053
REMARK  Name = 54758653
REMARK  7 active torsions:
REMARK  status: ('A' for Active; 'I' for Inactive)
REMARK    1  A    between atoms: C_2  and  O_12
REMARK    2  A    between atoms: C_3  and  N_8
REMARK    3  A    between atoms: C_4  and  O_14
REMARK    4  A    between atoms: C_5  and  C_18
REMARK    5  A    between atoms: C_6  and  O_16
REMARK    6  A    between atoms: C_18  and  O_19
REMARK    7  A    between atoms: O_19  and  P_20
REMARK                            x       y       z     vdW  Elec       q    Type
REMARK                         _______ _______ _______ _____ _____    ______ ____
ROOT
ATOM      1  O   UNL     1     -35.975  24.866   3.652  0.00  0.00    -0.327 OA
ATOM      2  C   UNL     1     -35.999  22.062   4.271  0.00  0.00    +0.162 C 
ATOM      3  C   UNL     1     -36.313  22.581   2.864  0.00  0.00    +0.158 C 
ATOM      4  C   UNL     1     -35.122  23.047   5.046  0.00  0.00    +0.169 C 
ATOM      5  C   UNL     1     -35.736  24.452   5.001  0.00  0.00    +0.177 C 
ATOM      6  C   UNL     1     -36.859  24.011   2.924  0.00  0.00    +0.253 C 
ENDROOT
BRANCH   3   8
ATOM      7  O   UNL     1     -35.554  20.459   1.033  0.00  0.00    -0.275 OA
ATOM      8  N   UNL     1     -35.145  22.532   2.008  0.00  0.00    -0.299 N 
ATOM      9  C   UNL     1     -34.870  21.471   1.166  0.00  0.00    +0.223 C 
ATOM     10  C   UNL     1     -33.610  21.688   0.372  0.00  0.00    +0.095 C 
ATOM     11  H   UNL     1     -34.518  23.292   2.027  0.00  0.00    +0.150 HD
ENDBRANCH   3   8
BRANCH   2  12
ATOM     12  O   UNL     1     -35.365  20.790   4.183  0.00  0.00    -0.380 OA
ATOM     13  H   UNL     1     -34.834  20.748   3.374  0.00  0.00    +0.211 HD
ENDBRANCH   2  12
BRANCH   4  14
ATOM     14  O   UNL     1     -35.030  22.591   6.394  0.00  0.00    -0.379 OA
ATOM     15  H   UNL     1     -35.081  21.623   6.411  0.00  0.00    +0.211 HD
ENDBRANCH   4  14
BRANCH   6  16
ATOM     16  O   UNL     1     -38.175  23.995   3.472  0.00  0.00    -0.359 OA
ATOM     17  H   UNL     1     -38.287  24.753   4.066  0.00  0.00    +0.213 HD
ENDBRANCH   6  16
BRANCH   5  18
ATOM     18  C   UNL     1     -34.822  25.497   5.634  0.00  0.00    +0.186 C 
BRANCH  18  19
ATOM     19  O   UNL     1     -33.675  25.644   4.817  0.00  0.00    -0.268 OA
BRANCH  19  20
ATOM     20  P   UNL     1     -33.154  27.169   4.442  0.00  0.00    +0.533 P 
ATOM     21  O   UNL     1     -32.744  27.753   5.790  0.00  0.00    -0.115 OA
ATOM     22  O   UNL     1     -34.369  27.848   3.815  0.00  0.00    -0.115 OA
ATOM     23  O   UNL     1     -31.989  26.952   3.481  0.00  0.00    -0.222 OA
ENDBRANCH  19  20
ENDBRANCH  18  19
ENDBRANCH   5  18
TORSDOF 7
ENDMDL
