MODEL 1
REMARK VINA RESULT:      -6.2      0.000      0.000
REMARK  Name = 54692128
REMARK  2 active torsions:
REMARK  status: ('A' for Active; 'I' for Inactive)
REMARK    1  A    between atoms: C_7  and  C_16
REMARK    2  A    between atoms: C_8  and  O_19
REMARK                            x       y       z     vdW  Elec       q    Type
REMARK                         _______ _______ _______ _____ _____    ______ ____
ROOT
ATOM      1  S   UNL     1     -37.339  23.598   2.203  0.00  0.00    +0.077 S 
ATOM      2  O   UNL     1     -37.433  24.730   1.302  0.00  0.00    -0.150 OA
ATOM      3  O   UNL     1     -38.523  22.870   2.617  0.00  0.00    -0.150 OA
ATOM      4  N   UNL     1     -36.145  22.496   1.615  0.00  0.00    -0.181 N 
ATOM      5  C   UNL     1     -36.556  24.141   3.680  0.00  0.00    +0.128 C 
ATOM      6  C   UNL     1     -35.757  23.218   4.364  0.00  0.00    +0.054 C 
ATOM      7  C   UNL     1     -35.777  21.486   2.576  0.00  0.00    +0.155 C 
ATOM      8  C   UNL     1     -35.594  21.831   3.867  0.00  0.00    +0.154 C 
ATOM      9  C   UNL     1     -36.729  25.455   4.113  0.00  0.00    +0.020 C 
ATOM     10  C   UNL     1     -35.002  23.088   0.861  0.00  0.00    +0.139 C 
ATOM     11  C   UNL     1     -35.131  23.658   5.540  0.00  0.00    +0.004 C 
ATOM     12  C   UNL     1     -36.094  25.867   5.280  0.00  0.00    +0.001 C 
ATOM     13  C   UNL     1     -35.297  24.970   5.993  0.00  0.00    +0.000 C 
ENDROOT
BRANCH   7  16
ATOM     14  O   UNL     1     -34.450  19.649   1.952  0.00  0.00    -0.269 OA
ATOM     15  N   UNL     1     -36.731  19.544   1.608  0.00  0.00    -0.324 N 
ATOM     16  C   UNL     1     -35.569  20.146   2.021  0.00  0.00    +0.261 C 
ATOM     17  H   UNL     1     -36.706  18.640   1.219  0.00  0.00    +0.145 HD
ATOM     18  H   UNL     1     -37.589  20.016   1.702  0.00  0.00    +0.145 HD
ENDBRANCH   7  16
BRANCH   8  19
ATOM     19  O   UNL     1     -35.220  20.935   4.851  0.00  0.00    -0.504 OA
ATOM     20  H   UNL     1     -35.738  20.170   5.009  0.00  0.00    +0.292 HD
ENDBRANCH   8  19
TORSDOF 2
ENDMDL
MODEL 2
REMARK VINA RESULT:      -5.9      1.537      1.570
REMARK  Name = 54692128
REMARK  2 active torsions:
REMARK  status: ('A' for Active; 'I' for Inactive)
REMARK    1  A    between atoms: C_7  and  C_16
REMARK    2  A    between atoms: C_8  and  O_19
REMARK                            x       y       z     vdW  Elec       q    Type
REMARK                         _______ _______ _______ _____ _____    ______ ____
ROOT
ATOM      1  S   UNL     1     -37.856  24.862   2.990  0.00  0.00    +0.077 S 
ATOM      2  O   UNL     1     -37.908  26.118   2.268  0.00  0.00    -0.150 OA
ATOM      3  O   UNL     1     -38.970  24.423   3.809  0.00  0.00    -0.150 OA
ATOM      4  N   UNL     1     -37.387  23.599   1.908  0.00  0.00    -0.181 N 
ATOM      5  C   UNL     1     -36.453  24.899   4.048  0.00  0.00    +0.128 C 
ATOM      6  C   UNL     1     -35.801  23.687   4.297  0.00  0.00    +0.054 C 
ATOM      7  C   UNL     1     -37.035  22.373   2.580  0.00  0.00    +0.155 C 
ATOM      8  C   UNL     1     -36.288  22.419   3.701  0.00  0.00    +0.154 C 
ATOM      9  C   UNL     1     -36.023  26.112   4.584  0.00  0.00    +0.020 C 
ATOM     10  C   UNL     1     -36.479  23.981   0.788  0.00  0.00    +0.139 C 
ATOM     11  C   UNL     1     -34.679  23.723   5.139  0.00  0.00    +0.004 C 
ATOM     12  C   UNL     1     -34.905  26.120   5.412  0.00  0.00    +0.001 C 
ATOM     13  C   UNL     1     -34.235  24.929   5.690  0.00  0.00    +0.000 C 
ENDROOT
BRANCH   7  16
ATOM     14  O   UNL     1     -36.696  20.373   1.393  0.00  0.00    -0.269 OA
ATOM     15  N   UNL     1     -38.851  20.984   1.955  0.00  0.00    -0.324 N 
ATOM     16  C   UNL     1     -37.489  21.147   1.916  0.00  0.00    +0.261 C 
ATOM     17  H   UNL     1     -39.264  20.193   1.538  0.00  0.00    +0.145 HD
ATOM     18  H   UNL     1     -39.415  21.657   2.398  0.00  0.00    +0.145 HD
ENDBRANCH   7  16
BRANCH   8  19
ATOM     19  O   UNL     1     -35.886  21.296   4.399  0.00  0.00    -0.504 OA
ATOM     20  H   UNL     1     -36.498  20.836   4.939  0.00  0.00    +0.292 HD
ENDBRANCH   8  19
TORSDOF 2
ENDMDL
MODEL 3
REMARK VINA RESULT:      -5.8      2.936      5.077
REMARK  Name = 54692128
REMARK  2 active torsions:
REMARK  status: ('A' for Active; 'I' for Inactive)
REMARK    1  A    between atoms: C_7  and  C_16
REMARK    2  A    between atoms: C_8  and  O_19
REMARK                            x       y       z     vdW  Elec       q    Type
REMARK                         _______ _______ _______ _____ _____    ______ ____
ROOT
ATOM      1  S   UNL     1     -36.004  22.795   3.728  0.00  0.00    +0.077 S 
ATOM      2  O   UNL     1     -35.246  21.740   3.085  0.00  0.00    -0.150 OA
ATOM      3  O   UNL     1     -36.320  22.735   5.143  0.00  0.00    -0.150 OA
ATOM      4  N   UNL     1     -35.295  24.323   3.348  0.00  0.00    -0.181 N 
ATOM      5  C   UNL     1     -37.541  22.950   2.889  0.00  0.00    +0.128 C 
ATOM      6  C   UNL     1     -38.113  24.225   2.822  0.00  0.00    +0.054 C 
ATOM      7  C   UNL     1     -36.130  25.445   3.703  0.00  0.00    +0.155 C 
ATOM      8  C   UNL     1     -37.454  25.394   3.451  0.00  0.00    +0.154 C 
ATOM      9  C   UNL     1     -38.127  21.828   2.306  0.00  0.00    +0.020 C 
ATOM     10  C   UNL     1     -34.625  24.438   2.020  0.00  0.00    +0.139 C 
ATOM     11  C   UNL     1     -39.338  24.344   2.147  0.00  0.00    +0.004 C 
ATOM     12  C   UNL     1     -39.339  21.974   1.639  0.00  0.00    +0.001 C 
ATOM     13  C   UNL     1     -39.944  23.229   1.561  0.00  0.00    +0.000 C 
ENDROOT
BRANCH   7  16
ATOM     14  O   UNL     1     -34.829  26.525   5.335  0.00  0.00    -0.269 OA
ATOM     15  N   UNL     1     -35.491  27.715   3.471  0.00  0.00    -0.324 N 
ATOM     16  C   UNL     1     -35.418  26.597   4.263  0.00  0.00    +0.261 C 
ATOM     17  H   UNL     1     -35.047  28.548   3.752  0.00  0.00    +0.145 HD
ATOM     18  H   UNL     1     -35.987  27.685   2.622  0.00  0.00    +0.145 HD
ENDBRANCH   7  16
BRANCH   8  19
ATOM     19  O   UNL     1     -38.326  26.428   3.737  0.00  0.00    -0.504 OA
ATOM     20  H   UNL     1     -39.240  26.253   3.844  0.00  0.00    +0.292 HD
ENDBRANCH   8  19
TORSDOF 2
ENDMDL
MODEL 4
REMARK VINA RESULT:      -5.7      2.275      4.415
REMARK  Name = 54692128
REMARK  2 active torsions:
REMARK  status: ('A' for Active; 'I' for Inactive)
REMARK    1  A    between atoms: C_7  and  C_16
REMARK    2  A    between atoms: C_8  and  O_19
REMARK                            x       y       z     vdW  Elec       q    Type
REMARK                         _______ _______ _______ _____ _____    ______ ____
ROOT
ATOM      1  S   UNL     1     -36.428  22.897   1.930  0.00  0.00    +0.077 S 
ATOM      2  O   UNL     1     -36.986  21.627   1.510  0.00  0.00    -0.150 OA
ATOM      3  O   UNL     1     -35.304  23.491   1.230  0.00  0.00    -0.150 OA
ATOM      4  N   UNL     1     -37.699  24.056   2.090  0.00  0.00    -0.181 N 
ATOM      5  C   UNL     1     -35.934  22.746   3.610  0.00  0.00    +0.128 C 
ATOM      6  C   UNL     1     -36.026  23.887   4.415  0.00  0.00    +0.054 C 
ATOM      7  C   UNL     1     -37.291  25.262   2.769  0.00  0.00    +0.155 C 
ATOM      8  C   UNL     1     -36.507  25.177   3.862  0.00  0.00    +0.154 C 
ATOM      9  C   UNL     1     -35.493  21.515   4.094  0.00  0.00    +0.020 C 
ATOM     10  C   UNL     1     -39.035  23.532   2.497  0.00  0.00    +0.139 C 
ATOM     11  C   UNL     1     -35.635  23.760   5.756  0.00  0.00    +0.004 C 
ATOM     12  C   UNL     1     -35.115  21.415   5.429  0.00  0.00    +0.001 C 
ATOM     13  C   UNL     1     -35.185  22.535   6.258  0.00  0.00    +0.000 C 
ENDROOT
BRANCH   7  16
ATOM     14  O   UNL     1     -39.049  26.639   2.035  0.00  0.00    -0.269 OA
ATOM     15  N   UNL     1     -36.887  27.448   1.950  0.00  0.00    -0.324 N 
ATOM     16  C   UNL     1     -37.844  26.502   2.219  0.00  0.00    +0.261 C 
ATOM     17  H   UNL     1     -37.150  28.321   1.577  0.00  0.00    +0.145 HD
ATOM     18  H   UNL     1     -35.940  27.255   2.129  0.00  0.00    +0.145 HD
ENDBRANCH   7  16
BRANCH   8  19
ATOM     19  O   UNL     1     -36.085  26.275   4.587  0.00  0.00    -0.504 OA
ATOM     20  H   UNL     1     -35.174  26.393   4.772  0.00  0.00    +0.292 HD
ENDBRANCH   8  19
TORSDOF 2
ENDMDL
MODEL 5
REMARK VINA RESULT:      -5.6      1.681      2.186
REMARK  Name = 54692128
REMARK  2 active torsions:
REMARK  status: ('A' for Active; 'I' for Inactive)
REMARK    1  A    between atoms: C_7  and  C_16
REMARK    2  A    between atoms: C_8  and  O_19
REMARK                            x       y       z     vdW  Elec       q    Type
REMARK                         _______ _______ _______ _____ _____    ______ ____
ROOT
ATOM      1  S   UNL     1     -37.247  24.134   2.794  0.00  0.00    +0.077 S 
ATOM      2  O   UNL     1     -36.824  25.520   2.787  0.00  0.00    -0.150 OA
ATOM      3  O   UNL     1     -38.632  23.774   3.034  0.00  0.00    -0.150 OA
ATOM      4  N   UNL     1     -36.677  23.354   1.362  0.00  0.00    -0.181 N 
ATOM      5  C   UNL     1     -36.301  23.282   4.006  0.00  0.00    +0.128 C 
ATOM      6  C   UNL     1     -36.001  21.937   3.762  0.00  0.00    +0.054 C 
ATOM      7  C   UNL     1     -36.801  21.918   1.405  0.00  0.00    +0.155 C 
ATOM      8  C   UNL     1     -36.480  21.256   2.535  0.00  0.00    +0.154 C 
ATOM      9  C   UNL     1     -35.866  23.958   5.144  0.00  0.00    +0.020 C 
ATOM     10  C   UNL     1     -35.391  23.854   0.794  0.00  0.00    +0.139 C 
ATOM     11  C   UNL     1     -35.242  21.263   4.731  0.00  0.00    +0.004 C 
ATOM     12  C   UNL     1     -35.111  23.267   6.087  0.00  0.00    +0.001 C 
ATOM     13  C   UNL     1     -34.801  21.923   5.882  0.00  0.00    +0.000 C 
ENDROOT
BRANCH   7  16
ATOM     14  O   UNL     1     -36.637  20.308  -0.301  0.00  0.00    -0.269 OA
ATOM     15  N   UNL     1     -38.290  21.915  -0.438  0.00  0.00    -0.324 N 
ATOM     16  C   UNL     1     -37.217  21.291   0.147  0.00  0.00    +0.261 C 
ATOM     17  H   UNL     1     -38.653  21.575  -1.289  0.00  0.00    +0.145 HD
ATOM     18  H   UNL     1     -38.698  22.700  -0.009  0.00  0.00    +0.145 HD
ENDBRANCH   7  16
BRANCH   8  19
ATOM     19  O   UNL     1     -36.547  19.882   2.661  0.00  0.00    -0.504 OA
ATOM     20  H   UNL     1     -37.372  19.444   2.588  0.00  0.00    +0.292 HD
ENDBRANCH   8  19
TORSDOF 2
ENDMDL
MODEL 6
REMARK VINA RESULT:      -5.5      2.531      2.976
REMARK  Name = 54692128
REMARK  2 active torsions:
REMARK  status: ('A' for Active; 'I' for Inactive)
REMARK    1  A    between atoms: C_7  and  C_16
REMARK    2  A    between atoms: C_8  and  O_19
REMARK                            x       y       z     vdW  Elec       q    Type
REMARK                         _______ _______ _______ _____ _____    ______ ____
ROOT
ATOM      1  S   UNL     1     -38.640  25.058   2.981  0.00  0.00    +0.077 S 
ATOM      2  O   UNL     1     -38.387  26.478   2.830  0.00  0.00    -0.150 OA
ATOM      3  O   UNL     1     -39.800  24.577   3.709  0.00  0.00    -0.150 OA
ATOM      4  N   UNL     1     -38.558  24.294   1.434  0.00  0.00    -0.181 N 
ATOM      5  C   UNL     1     -37.239  24.335   3.757  0.00  0.00    +0.128 C 
ATOM      6  C   UNL     1     -36.919  23.017   3.412  0.00  0.00    +0.054 C 
ATOM      7  C   UNL     1     -38.516  22.854   1.509  0.00  0.00    +0.155 C 
ATOM      8  C   UNL     1     -37.743  22.259   2.439  0.00  0.00    +0.154 C 
ATOM      9  C   UNL     1     -36.487  25.081   4.663  0.00  0.00    +0.020 C 
ATOM     10  C   UNL     1     -37.623  24.895   0.440  0.00  0.00    +0.139 C 
ATOM     11  C   UNL     1     -35.797  22.445   4.031  0.00  0.00    +0.004 C 
ATOM     12  C   UNL     1     -35.377  24.492   5.260  0.00  0.00    +0.001 C 
ATOM     13  C   UNL     1     -35.033  23.177   4.945  0.00  0.00    +0.000 C 
ENDROOT
BRANCH   7  16
ATOM     14  O   UNL     1     -38.775  21.365  -0.290  0.00  0.00    -0.269 OA
ATOM     15  N   UNL     1     -40.632  22.482   0.509  0.00  0.00    -0.324 N 
ATOM     16  C   UNL     1     -39.299  22.155   0.486  0.00  0.00    +0.261 C 
ATOM     17  H   UNL     1     -41.251  22.069  -0.137  0.00  0.00    +0.145 HD
ATOM     18  H   UNL     1     -40.970  23.127   1.169  0.00  0.00    +0.145 HD
ENDBRANCH   7  16
BRANCH   8  19
ATOM     19  O   UNL     1     -37.624  20.888   2.571  0.00  0.00    -0.504 OA
ATOM     20  H   UNL     1     -38.374  20.340   2.448  0.00  0.00    +0.292 HD
ENDBRANCH   8  19
TORSDOF 2
ENDMDL
MODEL 7
REMARK VINA RESULT:      -5.5     10.818     12.645
REMARK  Name = 54692128
REMARK  2 active torsions:
REMARK  status: ('A' for Active; 'I' for Inactive)
REMARK    1  A    between atoms: C_7  and  C_16
REMARK    2  A    between atoms: C_8  and  O_19
REMARK                            x       y       z     vdW  Elec       q    Type
REMARK                         _______ _______ _______ _____ _____    ______ ____
ROOT
ATOM      1  S   UNL     1     -44.834  29.698   7.859  0.00  0.00    +0.077 S 
ATOM      2  O   UNL     1     -45.641  28.845   8.708  0.00  0.00    -0.150 OA
ATOM      3  O   UNL     1     -43.552  30.206   8.309  0.00  0.00    -0.150 OA
ATOM      4  N   UNL     1     -44.662  28.962   6.305  0.00  0.00    -0.181 N 
ATOM      5  C   UNL     1     -45.796  31.105   7.429  0.00  0.00    +0.128 C 
ATOM      6  C   UNL     1     -45.574  31.678   6.172  0.00  0.00    +0.054 C 
ATOM      7  C   UNL     1     -44.120  29.851   5.308  0.00  0.00    +0.155 C 
ATOM      8  C   UNL     1     -44.553  31.127   5.248  0.00  0.00    +0.154 C 
ATOM      9  C   UNL     1     -46.749  31.591   8.322  0.00  0.00    +0.020 C 
ATOM     10  C   UNL     1     -45.798  28.116   5.837  0.00  0.00    +0.139 C 
ATOM     11  C   UNL     1     -46.347  32.799   5.831  0.00  0.00    +0.004 C 
ATOM     12  C   UNL     1     -47.505  32.701   7.959  0.00  0.00    +0.001 C 
ATOM     13  C   UNL     1     -47.304  33.304   6.717  0.00  0.00    +0.000 C 
ENDROOT
BRANCH   7  16
ATOM     14  O   UNL     1     -42.051  28.883   4.756  0.00  0.00    -0.269 OA
ATOM     15  N   UNL     1     -43.648  29.117   3.105  0.00  0.00    -0.324 N 
ATOM     16  C   UNL     1     -43.163  29.239   4.383  0.00  0.00    +0.261 C 
ATOM     17  H   UNL     1     -43.087  28.718   2.401  0.00  0.00    +0.145 HD
ATOM     18  H   UNL     1     -44.556  29.428   2.891  0.00  0.00    +0.145 HD
ENDBRANCH   7  16
BRANCH   8  19
ATOM     19  O   UNL     1     -44.107  32.042   4.314  0.00  0.00    -0.504 OA
ATOM     20  H   UNL     1     -44.712  32.437   3.718  0.00  0.00    +0.292 HD
ENDBRANCH   8  19
TORSDOF 2
ENDMDL
MODEL 8
REMARK VINA RESULT:      -5.5     12.660     13.764
REMARK  Name = 54692128
REMARK  2 active torsions:
REMARK  status: ('A' for Active; 'I' for Inactive)
REMARK    1  A    between atoms: C_7  and  C_16
REMARK    2  A    between atoms: C_8  and  O_19
REMARK                            x       y       z     vdW  Elec       q    Type
REMARK                         _______ _______ _______ _____ _____    ______ ____
ROOT
ATOM      1  S   UNL     1     -42.004  35.143  -0.433  0.00  0.00    +0.077 S 
ATOM      2  O   UNL     1     -41.682  34.584  -1.732  0.00  0.00    -0.150 OA
ATOM      3  O   UNL     1     -42.849  36.316  -0.311  0.00  0.00    -0.150 OA
ATOM      4  N   UNL     1     -42.585  33.889   0.602  0.00  0.00    -0.181 N 
ATOM      5  C   UNL     1     -40.495  35.539   0.378  0.00  0.00    +0.128 C 
ATOM      6  C   UNL     1     -40.464  35.425   1.772  0.00  0.00    +0.054 C 
ATOM      7  C   UNL     1     -42.665  34.283   1.988  0.00  0.00    +0.155 C 
ATOM      8  C   UNL     1     -41.665  35.003   2.533  0.00  0.00    +0.154 C 
ATOM      9  C   UNL     1     -39.387  35.927  -0.373  0.00  0.00    +0.020 C 
ATOM     10  C   UNL     1     -42.034  32.522   0.372  0.00  0.00    +0.139 C 
ATOM     11  C   UNL     1     -39.256  35.738   2.415  0.00  0.00    +0.004 C 
ATOM     12  C   UNL     1     -38.200  36.228   0.289  0.00  0.00    +0.001 C 
ATOM     13  C   UNL     1     -38.135  36.134   1.679  0.00  0.00    +0.000 C 
ENDROOT
BRANCH   7  16
ATOM     14  O   UNL     1     -43.730  33.130   3.738  0.00  0.00    -0.269 OA
ATOM     15  N   UNL     1     -45.027  34.135   2.113  0.00  0.00    -0.324 N 
ATOM     16  C   UNL     1     -43.841  33.786   2.708  0.00  0.00    +0.261 C 
ATOM     17  H   UNL     1     -45.881  33.853   2.514  0.00  0.00    +0.145 HD
ATOM     18  H   UNL     1     -45.025  34.667   1.285  0.00  0.00    +0.145 HD
ENDBRANCH   7  16
BRANCH   8  19
ATOM     19  O   UNL     1     -41.646  35.406   3.855  0.00  0.00    -0.504 OA
ATOM     20  H   UNL     1     -42.372  35.880   4.210  0.00  0.00    +0.292 HD
ENDBRANCH   8  19
TORSDOF 2
ENDMDL
MODEL 9
REMARK VINA RESULT:      -5.4      2.507      4.624
REMARK  Name = 54692128
REMARK  2 active torsions:
REMARK  status: ('A' for Active; 'I' for Inactive)
REMARK    1  A    between atoms: C_7  and  C_16
REMARK    2  A    between atoms: C_8  and  O_19
REMARK                            x       y       z     vdW  Elec       q    Type
REMARK                         _______ _______ _______ _____ _____    ______ ____
ROOT
ATOM      1  S   UNL     1     -34.937  24.310   0.984  0.00  0.00    +0.077 S 
ATOM      2  O   UNL     1     -34.805  24.527  -0.443  0.00  0.00    -0.150 OA
ATOM      3  O   UNL     1     -34.067  24.985   1.928  0.00  0.00    -0.150 OA
ATOM      4  N   UNL     1     -36.588  24.528   1.446  0.00  0.00    -0.181 N 
ATOM      5  C   UNL     1     -34.755  22.590   1.292  0.00  0.00    +0.128 C 
ATOM      6  C   UNL     1     -35.478  22.045   2.359  0.00  0.00    +0.054 C 
ATOM      7  C   UNL     1     -36.874  24.063   2.781  0.00  0.00    +0.155 C 
ATOM      8  C   UNL     1     -36.352  22.895   3.205  0.00  0.00    +0.154 C 
ATOM      9  C   UNL     1     -33.928  21.823   0.472  0.00  0.00    +0.020 C 
ATOM     10  C   UNL     1     -37.619  24.176   0.428  0.00  0.00    +0.139 C 
ATOM     11  C   UNL     1     -35.333  20.670   2.599  0.00  0.00    +0.004 C 
ATOM     12  C   UNL     1     -33.805  20.461   0.729  0.00  0.00    +0.001 C 
ATOM     13  C   UNL     1     -34.504  19.886   1.790  0.00  0.00    +0.000 C 
ENDROOT
BRANCH   7  16
ATOM     14  O   UNL     1     -38.939  24.553   3.791  0.00  0.00    -0.269 OA
ATOM     15  N   UNL     1     -37.226  26.094   3.951  0.00  0.00    -0.324 N 
ATOM     16  C   UNL     1     -37.791  24.909   3.551  0.00  0.00    +0.261 C 
ATOM     17  H   UNL     1     -37.755  26.738   4.476  0.00  0.00    +0.145 HD
ATOM     18  H   UNL     1     -36.294  26.300   3.715  0.00  0.00    +0.145 HD
ENDBRANCH   7  16
BRANCH   8  19
ATOM     19  O   UNL     1     -36.588  22.362   4.458  0.00  0.00    -0.504 OA
ATOM     20  H   UNL     1     -37.442  22.423   4.840  0.00  0.00    +0.292 HD
ENDBRANCH   8  19
TORSDOF 2
ENDMDL
