MODEL 1
REMARK VINA RESULT:      -7.1      0.000      0.000
REMARK  Name = 51419157
REMARK  3 active torsions:
REMARK  status: ('A' for Active; 'I' for Inactive)
REMARK    1  A    between atoms: C_4  and  O_22
REMARK    2  A    between atoms: C_18  and  O_24
REMARK    3  A    between atoms: C_21  and  O_26
REMARK                            x       y       z     vdW  Elec       q    Type
REMARK                         _______ _______ _______ _____ _____    ______ ____
ROOT
ATOM      1  O   UNL     1     -35.725  22.574   4.061  0.00  0.00    -0.449 OA
ATOM      2  O   UNL     1     -34.886  28.476   3.385  0.00  0.00    -0.296 OA
ATOM      3  O   UNL     1     -37.853  23.262   3.427  0.00  0.00    -0.245 OA
ATOM      4  C   UNL     1     -35.209  25.455   4.568  0.00  0.00    +0.121 C 
ATOM      5  C   UNL     1     -34.905  24.315   5.549  0.00  0.00    +0.073 C 
ATOM      6  C   UNL     1     -35.847  23.108   5.399  0.00  0.00    +0.172 C 
ATOM      7  C   UNL     1     -34.185  26.581   4.677  0.00  0.00    +0.094 C 
ATOM      8  C   UNL     1     -33.402  26.952   2.240  0.00  0.00    +0.065 C 
ATOM      9  C   UNL     1     -34.226  27.437   3.422  0.00  0.00    +0.153 C 
ATOM     10  C   UNL     1     -33.943  27.414   0.885  0.00  0.00    +0.012 C 
ATOM     11  C   UNL     1     -35.459  21.993   6.364  0.00  0.00    +0.047 C 
ATOM     12  C   UNL     1     -35.292  26.798   0.486  0.00  0.00    +0.026 C 
ATOM     13  C   UNL     1     -36.383  22.176   1.916  0.00  0.00    +0.109 C 
ATOM     14  C   UNL     1     -35.244  25.303   0.333  0.00  0.00    -0.026 C 
ATOM     15  C   UNL     1     -36.774  22.736   3.217  0.00  0.00    +0.344 C 
ATOM     16  C   UNL     1     -36.076  23.003   0.818  0.00  0.00    +0.012 C 
ATOM     17  C   UNL     1     -36.125  24.474   0.916  0.00  0.00    -0.004 C 
ATOM     18  C   UNL     1     -36.341  20.780   1.813  0.00  0.00    +0.143 C 
ATOM     19  C   UNL     1     -35.748  22.380  -0.397  0.00  0.00    +0.037 C 
ATOM     20  C   UNL     1     -35.998  20.188   0.600  0.00  0.00    +0.073 C 
ATOM     21  C   UNL     1     -35.705  20.985  -0.502  0.00  0.00    +0.137 C 
ENDROOT
BRANCH   4  22
ATOM     22  O   UNL     1     -36.496  26.004   4.846  0.00  0.00    -0.384 OA
ATOM     23  H   UNL     1     -36.708  25.873   5.783  0.00  0.00    +0.210 HD
ENDBRANCH   4  22
BRANCH  18  24
ATOM     24  O   UNL     1     -36.644  19.977   2.872  0.00  0.00    -0.505 OA
ATOM     25  H   UNL     1     -37.483  19.562   2.920  0.00  0.00    +0.292 HD
ENDBRANCH  18  24
BRANCH  21  26
ATOM     26  O   UNL     1     -35.381  20.406  -1.692  0.00  0.00    -0.505 OA
ATOM     27  H   UNL     1     -35.355  20.923  -2.473  0.00  0.00    +0.292 HD
ENDBRANCH  21  26
TORSDOF 3
ENDMDL
MODEL 2
REMARK VINA RESULT:      -6.4      2.693      6.444
REMARK  Name = 51419157
REMARK  3 active torsions:
REMARK  status: ('A' for Active; 'I' for Inactive)
REMARK    1  A    between atoms: C_4  and  O_22
REMARK    2  A    between atoms: C_18  and  O_24
REMARK    3  A    between atoms: C_21  and  O_26
REMARK                            x       y       z     vdW  Elec       q    Type
REMARK                         _______ _______ _______ _____ _____    ______ ____
ROOT
ATOM      1  O   UNL     1     -33.673  24.546   1.496  0.00  0.00    -0.449 OA
ATOM      2  O   UNL     1     -32.402  19.813  -1.965  0.00  0.00    -0.296 OA
ATOM      3  O   UNL     1     -35.757  24.090   0.573  0.00  0.00    -0.245 OA
ATOM      4  C   UNL     1     -32.609  22.789  -0.650  0.00  0.00    +0.121 C 
ATOM      5  C   UNL     1     -32.081  24.188  -0.307  0.00  0.00    +0.073 C 
ATOM      6  C   UNL     1     -33.154  25.123   0.277  0.00  0.00    +0.172 C 
ATOM      7  C   UNL     1     -31.490  21.864  -1.122  0.00  0.00    +0.094 C 
ATOM      8  C   UNL     1     -31.752  19.760   0.360  0.00  0.00    +0.065 C 
ATOM      9  C   UNL     1     -31.934  20.416  -1.000  0.00  0.00    +0.153 C 
ATOM     10  C   UNL     1     -32.740  18.623   0.630  0.00  0.00    +0.012 C 
ATOM     11  C   UNL     1     -32.554  26.476   0.643  0.00  0.00    +0.047 C 
ATOM     12  C   UNL     1     -34.202  19.065   0.789  0.00  0.00    +0.026 C 
ATOM     13  C   UNL     1     -35.212  23.484   2.800  0.00  0.00    +0.109 C 
ATOM     14  C   UNL     1     -34.425  19.985   1.957  0.00  0.00    -0.026 C 
ATOM     15  C   UNL     1     -34.946  24.077   1.482  0.00  0.00    +0.344 C 
ATOM     16  C   UNL     1     -35.281  22.090   2.983  0.00  0.00    +0.012 C 
ATOM     17  C   UNL     1     -35.086  21.149   1.863  0.00  0.00    -0.004 C 
ATOM     18  C   UNL     1     -35.406  24.371   3.867  0.00  0.00    +0.143 C 
ATOM     19  C   UNL     1     -35.578  21.614   4.271  0.00  0.00    +0.037 C 
ATOM     20  C   UNL     1     -35.683  23.872   5.137  0.00  0.00    +0.073 C 
ATOM     21  C   UNL     1     -35.771  22.498   5.338  0.00  0.00    +0.137 C 
ENDROOT
BRANCH   4  22
ATOM     22  O   UNL     1     -33.575  22.877  -1.695  0.00  0.00    -0.384 OA
ATOM     23  H   UNL     1     -33.168  23.277  -2.479  0.00  0.00    +0.210 HD
ENDBRANCH   4  22
BRANCH  18  24
ATOM     24  O   UNL     1     -35.346  25.722   3.692  0.00  0.00    -0.505 OA
ATOM     25  H   UNL     1     -35.648  26.105   2.892  0.00  0.00    +0.292 HD
ENDBRANCH  18  24
BRANCH  21  26
ATOM     26  O   UNL     1     -36.054  22.009   6.578  0.00  0.00    -0.505 OA
ATOM     27  H   UNL     1     -36.943  21.864   6.832  0.00  0.00    +0.292 HD
ENDBRANCH  21  26
TORSDOF 3
ENDMDL
MODEL 3
REMARK VINA RESULT:      -6.1      3.147      6.974
REMARK  Name = 51419157
REMARK  3 active torsions:
REMARK  status: ('A' for Active; 'I' for Inactive)
REMARK    1  A    between atoms: C_4  and  O_22
REMARK    2  A    between atoms: C_18  and  O_24
REMARK    3  A    between atoms: C_21  and  O_26
REMARK                            x       y       z     vdW  Elec       q    Type
REMARK                         _______ _______ _______ _____ _____    ______ ____
ROOT
ATOM      1  O   UNL     1     -39.593  22.286   0.223  0.00  0.00    -0.449 OA
ATOM      2  O   UNL     1     -35.392  18.026  -0.227  0.00  0.00    -0.296 OA
ATOM      3  O   UNL     1     -40.052  21.000   2.103  0.00  0.00    -0.245 OA
ATOM      4  C   UNL     1     -37.979  19.959  -0.675  0.00  0.00    +0.121 C 
ATOM      5  C   UNL     1     -39.028  20.689  -1.524  0.00  0.00    +0.073 C 
ATOM      6  C   UNL     1     -40.159  21.321  -0.693  0.00  0.00    +0.172 C 
ATOM      7  C   UNL     1     -36.823  19.445  -1.528  0.00  0.00    +0.094 C 
ATOM      8  C   UNL     1     -34.714  20.342  -0.328  0.00  0.00    +0.065 C 
ATOM      9  C   UNL     1     -35.619  19.162  -0.645  0.00  0.00    +0.153 C 
ATOM     10  C   UNL     1     -33.959  20.199   0.995  0.00  0.00    +0.012 C 
ATOM     11  C   UNL     1     -41.136  22.073  -1.589  0.00  0.00    +0.047 C 
ATOM     12  C   UNL     1     -34.843  20.250   2.250  0.00  0.00    +0.026 C 
ATOM     13  C   UNL     1     -38.918  23.078   2.250  0.00  0.00    +0.109 C 
ATOM     14  C   UNL     1     -35.565  21.558   2.418  0.00  0.00    -0.026 C 
ATOM     15  C   UNL     1     -39.602  21.985   1.544  0.00  0.00    +0.344 C 
ATOM     16  C   UNL     1     -37.623  22.918   2.781  0.00  0.00    +0.012 C 
ATOM     17  C   UNL     1     -36.884  21.648   2.654  0.00  0.00    -0.004 C 
ATOM     18  C   UNL     1     -39.617  24.284   2.381  0.00  0.00    +0.143 C 
ATOM     19  C   UNL     1     -37.062  24.004   3.472  0.00  0.00    +0.037 C 
ATOM     20  C   UNL     1     -39.031  25.351   3.057  0.00  0.00    +0.073 C 
ATOM     21  C   UNL     1     -37.758  25.210   3.604  0.00  0.00    +0.137 C 
ENDROOT
BRANCH   4  22
ATOM     22  O   UNL     1     -38.575  18.839  -0.024  0.00  0.00    -0.384 OA
ATOM     23  H   UNL     1     -37.898  18.167   0.149  0.00  0.00    +0.210 HD
ENDBRANCH   4  22
BRANCH  18  24
ATOM     24  O   UNL     1     -40.872  24.440   1.873  0.00  0.00    -0.505 OA
ATOM     25  H   UNL     1     -41.533  24.869   2.381  0.00  0.00    +0.292 HD
ENDBRANCH  18  24
BRANCH  21  26
ATOM     26  O   UNL     1     -37.190  26.250   4.276  0.00  0.00    -0.505 OA
ATOM     27  H   UNL     1     -36.278  26.435   4.167  0.00  0.00    +0.292 HD
ENDBRANCH  21  26
TORSDOF 3
ENDMDL
MODEL 4
REMARK VINA RESULT:      -6.0      3.000      6.975
REMARK  Name = 51419157
REMARK  3 active torsions:
REMARK  status: ('A' for Active; 'I' for Inactive)
REMARK    1  A    between atoms: C_4  and  O_22
REMARK    2  A    between atoms: C_18  and  O_24
REMARK    3  A    between atoms: C_21  and  O_26
REMARK                            x       y       z     vdW  Elec       q    Type
REMARK                         _______ _______ _______ _____ _____    ______ ____
ROOT
ATOM      1  O   UNL     1     -33.355  28.369   4.844  0.00  0.00    -0.449 OA
ATOM      2  O   UNL     1     -36.153  23.162   3.814  0.00  0.00    -0.296 OA
ATOM      3  O   UNL     1     -32.305  27.671   2.891  0.00  0.00    -0.245 OA
ATOM      4  C   UNL     1     -34.322  25.566   5.037  0.00  0.00    +0.121 C 
ATOM      5  C   UNL     1     -33.648  26.351   6.170  0.00  0.00    +0.073 C 
ATOM      6  C   UNL     1     -32.655  27.416   5.674  0.00  0.00    +0.172 C 
ATOM      7  C   UNL     1     -35.377  24.600   5.569  0.00  0.00    +0.094 C 
ATOM      8  C   UNL     1     -37.484  25.146   4.171  0.00  0.00    +0.065 C 
ATOM      9  C   UNL     1     -36.323  24.204   4.448  0.00  0.00    +0.153 C 
ATOM     10  C   UNL     1     -37.989  25.090   2.728  0.00  0.00    +0.012 C 
ATOM     11  C   UNL     1     -32.062  28.192   6.845  0.00  0.00    +0.047 C 
ATOM     12  C   UNL     1     -37.006  25.632   1.680  0.00  0.00    +0.026 C 
ATOM     13  C   UNL     1     -33.968  29.363   2.886  0.00  0.00    +0.109 C 
ATOM     14  C   UNL     1     -36.681  27.089   1.864  0.00  0.00    -0.026 C 
ATOM     15  C   UNL     1     -33.090  28.365   3.514  0.00  0.00    +0.344 C 
ATOM     16  C   UNL     1     -35.080  28.985   2.110  0.00  0.00    +0.012 C 
ATOM     17  C   UNL     1     -35.427  27.568   1.889  0.00  0.00    -0.004 C 
ATOM     18  C   UNL     1     -33.640  30.709   3.085  0.00  0.00    +0.143 C 
ATOM     19  C   UNL     1     -35.840  30.006   1.518  0.00  0.00    +0.037 C 
ATOM     20  C   UNL     1     -34.420  31.703   2.500  0.00  0.00    +0.073 C 
ATOM     21  C   UNL     1     -35.515  31.352   1.716  0.00  0.00    +0.137 C 
ENDROOT
BRANCH   4  22
ATOM     22  O   UNL     1     -33.347  24.803   4.329  0.00  0.00    -0.384 OA
ATOM     23  H   UNL     1     -33.762  24.379   3.562  0.00  0.00    +0.210 HD
ENDBRANCH   4  22
BRANCH  18  24
ATOM     24  O   UNL     1     -32.560  31.079   3.831  0.00  0.00    -0.505 OA
ATOM     25  H   UNL     1     -32.300  31.979   3.865  0.00  0.00    +0.292 HD
ENDBRANCH  18  24
BRANCH  21  26
ATOM     26  O   UNL     1     -36.272  32.324   1.133  0.00  0.00    -0.505 OA
ATOM     27  H   UNL     1     -35.883  33.143   0.898  0.00  0.00    +0.292 HD
ENDBRANCH  21  26
TORSDOF 3
ENDMDL
MODEL 5
REMARK VINA RESULT:      -6.0      2.474      5.332
REMARK  Name = 51419157
REMARK  3 active torsions:
REMARK  status: ('A' for Active; 'I' for Inactive)
REMARK    1  A    between atoms: C_4  and  O_22
REMARK    2  A    between atoms: C_18  and  O_24
REMARK    3  A    between atoms: C_21  and  O_26
REMARK                            x       y       z     vdW  Elec       q    Type
REMARK                         _______ _______ _______ _____ _____    ______ ____
ROOT
ATOM      1  O   UNL     1     -33.495  25.788   3.285  0.00  0.00    -0.449 OA
ATOM      2  O   UNL     1     -32.770  24.144  -2.439  0.00  0.00    -0.296 OA
ATOM      3  O   UNL     1     -35.664  25.994   2.479  0.00  0.00    -0.245 OA
ATOM      4  C   UNL     1     -32.700  25.701   0.425  0.00  0.00    +0.121 C 
ATOM      5  C   UNL     1     -32.065  26.601   1.493  0.00  0.00    +0.073 C 
ATOM      6  C   UNL     1     -33.034  26.988   2.624  0.00  0.00    +0.172 C 
ATOM      7  C   UNL     1     -31.676  25.254  -0.616  0.00  0.00    +0.094 C 
ATOM      8  C   UNL     1     -31.952  22.683  -0.698  0.00  0.00    +0.065 C 
ATOM      9  C   UNL     1     -32.196  24.033  -1.356  0.00  0.00    +0.153 C 
ATOM     10  C   UNL     1     -32.983  21.620  -1.080  0.00  0.00    +0.012 C 
ATOM     11  C   UNL     1     -32.328  27.836   3.676  0.00  0.00    +0.047 C 
ATOM     12  C   UNL     1     -34.401  21.876  -0.548  0.00  0.00    +0.026 C 
ATOM     13  C   UNL     1     -34.992  24.155   3.818  0.00  0.00    +0.109 C 
ATOM     14  C   UNL     1     -34.481  21.893   0.954  0.00  0.00    -0.026 C 
ATOM     15  C   UNL     1     -34.790  25.428   3.112  0.00  0.00    +0.344 C 
ATOM     16  C   UNL     1     -35.131  22.938   3.122  0.00  0.00    +0.012 C 
ATOM     17  C   UNL     1     -35.076  22.875   1.649  0.00  0.00    -0.004 C 
ATOM     18  C   UNL     1     -35.053  24.208   5.216  0.00  0.00    +0.143 C 
ATOM     19  C   UNL     1     -35.359  21.777   3.878  0.00  0.00    +0.037 C 
ATOM     20  C   UNL     1     -35.264  23.039   5.942  0.00  0.00    +0.073 C 
ATOM     21  C   UNL     1     -35.419  21.827   5.275  0.00  0.00    +0.137 C 
ENDROOT
BRANCH   4  22
ATOM     22  O   UNL     1     -33.734  26.410  -0.255  0.00  0.00    -0.384 OA
ATOM     23  H   UNL     1     -33.400  27.273  -0.543  0.00  0.00    +0.210 HD
ENDBRANCH   4  22
BRANCH  18  24
ATOM     24  O   UNL     1     -34.926  25.385   5.892  0.00  0.00    -0.505 OA
ATOM     25  H   UNL     1     -35.675  25.931   6.027  0.00  0.00    +0.292 HD
ENDBRANCH  18  24
BRANCH  21  26
ATOM     26  O   UNL     1     -35.637  20.684   5.984  0.00  0.00    -0.505 OA
ATOM     27  H   UNL     1     -36.365  20.630   6.572  0.00  0.00    +0.292 HD
ENDBRANCH  21  26
TORSDOF 3
ENDMDL
MODEL 6
REMARK VINA RESULT:      -6.0      1.791      3.250
REMARK  Name = 51419157
REMARK  3 active torsions:
REMARK  status: ('A' for Active; 'I' for Inactive)
REMARK    1  A    between atoms: C_4  and  O_22
REMARK    2  A    between atoms: C_18  and  O_24
REMARK    3  A    between atoms: C_21  and  O_26
REMARK                            x       y       z     vdW  Elec       q    Type
REMARK                         _______ _______ _______ _____ _____    ______ ____
ROOT
ATOM      1  O   UNL     1     -34.254  25.416   4.960  0.00  0.00    -0.449 OA
ATOM      2  O   UNL     1     -34.537  29.047   0.193  0.00  0.00    -0.296 OA
ATOM      3  O   UNL     1     -36.544  25.775   4.803  0.00  0.00    -0.245 OA
ATOM      4  C   UNL     1     -34.009  27.747   3.136  0.00  0.00    +0.121 C 
ATOM      5  C   UNL     1     -33.231  27.562   4.445  0.00  0.00    +0.073 C 
ATOM      6  C   UNL     1     -33.988  26.731   5.496  0.00  0.00    +0.172 C 
ATOM      7  C   UNL     1     -33.178  28.481   2.086  0.00  0.00    +0.094 C 
ATOM      8  C   UNL     1     -33.332  26.963  -0.004  0.00  0.00    +0.065 C 
ATOM      9  C   UNL     1     -33.764  28.237   0.705  0.00  0.00    +0.153 C 
ATOM     10  C   UNL     1     -34.360  26.441  -1.009  0.00  0.00    +0.012 C 
ATOM     11  C   UNL     1     -33.141  26.542   6.750  0.00  0.00    +0.047 C 
ATOM     12  C   UNL     1     -35.664  25.920  -0.386  0.00  0.00    +0.026 C 
ATOM     13  C   UNL     1     -35.538  23.754   4.075  0.00  0.00    +0.109 C 
ATOM     14  C   UNL     1     -35.460  24.741   0.525  0.00  0.00    -0.026 C 
ATOM     15  C   UNL     1     -35.539  25.102   4.662  0.00  0.00    +0.344 C 
ATOM     16  C   UNL     1     -35.743  23.549   2.696  0.00  0.00    +0.012 C 
ATOM     17  C   UNL     1     -35.963  24.673   1.768  0.00  0.00    -0.004 C 
ATOM     18  C   UNL     1     -35.338  22.681   4.951  0.00  0.00    +0.143 C 
ATOM     19  C   UNL     1     -35.764  22.224   2.230  0.00  0.00    +0.037 C 
ATOM     20  C   UNL     1     -35.347  21.378   4.460  0.00  0.00    +0.073 C 
ATOM     21  C   UNL     1     -35.562  21.150   3.104  0.00  0.00    +0.137 C 
ENDROOT
BRANCH   4  22
ATOM     22  O   UNL     1     -35.188  28.513   3.375  0.00  0.00    -0.384 OA
ATOM     23  H   UNL     1     -35.248  29.226   2.721  0.00  0.00    +0.210 HD
ENDBRANCH   4  22
BRANCH  18  24
ATOM     24  O   UNL     1     -35.145  22.876   6.287  0.00  0.00    -0.505 OA
ATOM     25  H   UNL     1     -34.399  23.357   6.587  0.00  0.00    +0.292 HD
ENDBRANCH  18  24
BRANCH  21  26
ATOM     26  O   UNL     1     -35.584  19.875   2.625  0.00  0.00    -0.505 OA
ATOM     27  H   UNL     1     -35.326  19.702   1.741  0.00  0.00    +0.292 HD
ENDBRANCH  21  26
TORSDOF 3
ENDMDL
MODEL 7
REMARK VINA RESULT:      -5.9     10.196     11.703
REMARK  Name = 51419157
REMARK  3 active torsions:
REMARK  status: ('A' for Active; 'I' for Inactive)
REMARK    1  A    between atoms: C_4  and  O_22
REMARK    2  A    between atoms: C_18  and  O_24
REMARK    3  A    between atoms: C_21  and  O_26
REMARK                            x       y       z     vdW  Elec       q    Type
REMARK                         _______ _______ _______ _____ _____    ______ ____
ROOT
ATOM      1  O   UNL     1     -44.869  28.154   3.130  0.00  0.00    -0.449 OA
ATOM      2  O   UNL     1     -44.235  30.886   8.433  0.00  0.00    -0.296 OA
ATOM      3  O   UNL     1     -43.272  26.804   4.144  0.00  0.00    -0.245 OA
ATOM      4  C   UNL     1     -44.218  30.112   5.266  0.00  0.00    +0.121 C 
ATOM      5  C   UNL     1     -44.284  30.428   3.766  0.00  0.00    +0.073 C 
ATOM      6  C   UNL     1     -43.935  29.226   2.870  0.00  0.00    +0.172 C 
ATOM      7  C   UNL     1     -44.676  31.297   6.112  0.00  0.00    +0.094 C 
ATOM      8  C   UNL     1     -46.454  30.283   7.694  0.00  0.00    +0.065 C 
ATOM      9  C   UNL     1     -45.044  30.820   7.507  0.00  0.00    +0.153 C 
ATOM     10  C   UNL     1     -46.578  29.269   8.833  0.00  0.00    +0.012 C 
ATOM     11  C   UNL     1     -44.070  29.592   1.396  0.00  0.00    +0.047 C 
ATOM     12  C   UNL     1     -45.860  27.933   8.587  0.00  0.00    +0.026 C 
ATOM     13  C   UNL     1     -45.544  26.147   3.971  0.00  0.00    +0.109 C 
ATOM     14  C   UNL     1     -46.398  27.175   7.405  0.00  0.00    -0.026 C 
ATOM     15  C   UNL     1     -44.403  27.050   3.765  0.00  0.00    +0.344 C 
ATOM     16  C   UNL     1     -46.122  25.965   5.243  0.00  0.00    +0.012 C 
ATOM     17  C   UNL     1     -45.618  26.675   6.433  0.00  0.00    -0.004 C 
ATOM     18  C   UNL     1     -46.023  25.463   2.847  0.00  0.00    +0.143 C 
ATOM     19  C   UNL     1     -47.185  25.054   5.352  0.00  0.00    +0.037 C 
ATOM     20  C   UNL     1     -47.089  24.577   2.980  0.00  0.00    +0.073 C 
ATOM     21  C   UNL     1     -47.666  24.371   4.230  0.00  0.00    +0.137 C 
ENDROOT
BRANCH   4  22
ATOM     22  O   UNL     1     -42.876  29.802   5.638  0.00  0.00    -0.384 OA
ATOM     23  H   UNL     1     -42.868  29.418   6.528  0.00  0.00    +0.210 HD
ENDBRANCH   4  22
BRANCH  18  24
ATOM     24  O   UNL     1     -45.462  25.632   1.616  0.00  0.00    -0.505 OA
ATOM     25  H   UNL     1     -45.188  24.886   1.120  0.00  0.00    +0.292 HD
ENDBRANCH  18  24
BRANCH  21  26
ATOM     26  O   UNL     1     -48.701  23.494   4.364  0.00  0.00    -0.505 OA
ATOM     27  H   UNL     1     -48.930  23.166   5.210  0.00  0.00    +0.292 HD
ENDBRANCH  21  26
TORSDOF 3
ENDMDL
MODEL 8
REMARK VINA RESULT:      -5.8      1.824      2.543
REMARK  Name = 51419157
REMARK  3 active torsions:
REMARK  status: ('A' for Active; 'I' for Inactive)
REMARK    1  A    between atoms: C_4  and  O_22
REMARK    2  A    between atoms: C_18  and  O_24
REMARK    3  A    between atoms: C_21  and  O_26
REMARK                            x       y       z     vdW  Elec       q    Type
REMARK                         _______ _______ _______ _____ _____    ______ ____
ROOT
ATOM      1  O   UNL     1     -35.781  23.880   3.599  0.00  0.00    -0.449 OA
ATOM      2  O   UNL     1     -37.770  28.188  -0.072  0.00  0.00    -0.296 OA
ATOM      3  O   UNL     1     -38.006  23.262   3.342  0.00  0.00    -0.245 OA
ATOM      4  C   UNL     1     -36.630  26.493   2.468  0.00  0.00    +0.121 C 
ATOM      5  C   UNL     1     -35.804  26.308   3.748  0.00  0.00    +0.073 C 
ATOM      6  C   UNL     1     -36.091  24.985   4.478  0.00  0.00    +0.172 C 
ATOM      7  C   UNL     1     -36.235  27.763   1.720  0.00  0.00    +0.094 C 
ATOM      8  C   UNL     1     -35.791  26.952  -0.696  0.00  0.00    +0.065 C 
ATOM      9  C   UNL     1     -36.706  27.678   0.278  0.00  0.00    +0.153 C 
ATOM     10  C   UNL     1     -36.528  26.337  -1.887  0.00  0.00    +0.012 C 
ATOM     11  C   UNL     1     -35.202  24.841   5.709  0.00  0.00    +0.047 C 
ATOM     12  C   UNL     1     -37.456  25.165  -1.535  0.00  0.00    +0.026 C 
ATOM     13  C   UNL     1     -36.253  22.139   2.206  0.00  0.00    +0.109 C 
ATOM     14  C   UNL     1     -36.731  23.986  -0.946  0.00  0.00    -0.026 C 
ATOM     15  C   UNL     1     -36.814  23.145   3.120  0.00  0.00    +0.344 C 
ATOM     16  C   UNL     1     -36.396  22.248   0.810  0.00  0.00    +0.012 C 
ATOM     17  C   UNL     1     -37.112  23.378   0.188  0.00  0.00    -0.004 C 
ATOM     18  C   UNL     1     -35.578  21.060   2.790  0.00  0.00    +0.143 C 
ATOM     19  C   UNL     1     -35.859  21.220   0.017  0.00  0.00    +0.037 C 
ATOM     20  C   UNL     1     -35.041  20.063   1.979  0.00  0.00    +0.073 C 
ATOM     21  C   UNL     1     -35.184  20.142   0.597  0.00  0.00    +0.137 C 
ENDROOT
BRANCH   4  22
ATOM     22  O   UNL     1     -38.015  26.590   2.795  0.00  0.00    -0.384 OA
ATOM     23  H   UNL     1     -38.118  26.636   3.757  0.00  0.00    +0.210 HD
ENDBRANCH   4  22
BRANCH  18  24
ATOM     24  O   UNL     1     -35.442  20.949   4.142  0.00  0.00    -0.505 OA
ATOM     25  H   UNL     1     -35.531  21.707   4.685  0.00  0.00    +0.292 HD
ENDBRANCH  18  24
BRANCH  21  26
ATOM     26  O   UNL     1     -34.669  19.160  -0.196  0.00  0.00    -0.505 OA
ATOM     27  H   UNL     1     -33.973  18.619   0.121  0.00  0.00    +0.292 HD
ENDBRANCH  21  26
TORSDOF 3
ENDMDL
MODEL 9
REMARK VINA RESULT:      -5.7      2.670      7.374
REMARK  Name = 51419157
REMARK  3 active torsions:
REMARK  status: ('A' for Active; 'I' for Inactive)
REMARK    1  A    between atoms: C_4  and  O_22
REMARK    2  A    between atoms: C_18  and  O_24
REMARK    3  A    between atoms: C_21  and  O_26
REMARK                            x       y       z     vdW  Elec       q    Type
REMARK                         _______ _______ _______ _____ _____    ______ ____
ROOT
ATOM      1  O   UNL     1     -32.246  26.459   1.681  0.00  0.00    -0.449 OA
ATOM      2  O   UNL     1     -36.944  23.018   3.124  0.00  0.00    -0.296 OA
ATOM      3  O   UNL     1     -33.943  28.042   1.806  0.00  0.00    -0.245 OA
ATOM      4  C   UNL     1     -34.446  24.463   1.609  0.00  0.00    +0.121 C 
ATOM      5  C   UNL     1     -33.262  24.512   0.634  0.00  0.00    +0.073 C 
ATOM      6  C   UNL     1     -32.704  25.929   0.416  0.00  0.00    +0.172 C 
ATOM      7  C   UNL     1     -34.895  23.030   1.879  0.00  0.00    +0.094 C 
ATOM      8  C   UNL     1     -34.938  22.865   4.460  0.00  0.00    +0.065 C 
ATOM      9  C   UNL     1     -35.714  22.981   3.157  0.00  0.00    +0.153 C 
ATOM     10  C   UNL     1     -35.674  23.450   5.667  0.00  0.00    +0.012 C 
ATOM     11  C   UNL     1     -31.500  25.900  -0.520  0.00  0.00    +0.047 C 
ATOM     12  C   UNL     1     -35.843  24.977   5.641  0.00  0.00    +0.026 C 
ATOM     13  C   UNL     1     -32.338  27.783   3.533  0.00  0.00    +0.109 C 
ATOM     14  C   UNL     1     -34.537  25.722   5.654  0.00  0.00    -0.026 C 
ATOM     15  C   UNL     1     -32.955  27.472   2.236  0.00  0.00    +0.344 C 
ATOM     16  C   UNL     1     -32.950  27.418   4.748  0.00  0.00    +0.012 C 
ATOM     17  C   UNL     1     -34.238  26.700   4.785  0.00  0.00    -0.004 C 
ATOM     18  C   UNL     1     -31.119  28.470   3.507  0.00  0.00    +0.143 C 
ATOM     19  C   UNL     1     -32.306  27.789   5.940  0.00  0.00    +0.037 C 
ATOM     20  C   UNL     1     -30.494  28.813   4.703  0.00  0.00    +0.073 C 
ATOM     21  C   UNL     1     -31.087  28.475   5.916  0.00  0.00    +0.137 C 
ENDROOT
BRANCH   4  22
ATOM     22  O   UNL     1     -35.554  25.174   1.061  0.00  0.00    -0.384 OA
ATOM     23  H   UNL     1     -36.090  24.573   0.522  0.00  0.00    +0.210 HD
ENDBRANCH   4  22
BRANCH  18  24
ATOM     24  O   UNL     1     -30.528  28.830   2.332  0.00  0.00    -0.505 OA
ATOM     25  H   UNL     1     -29.663  28.530   2.132  0.00  0.00    +0.292 HD
ENDBRANCH  18  24
BRANCH  21  26
ATOM     26  O   UNL     1     -30.482  28.820   7.087  0.00  0.00    -0.505 OA
ATOM     27  H   UNL     1     -29.547  28.837   7.144  0.00  0.00    +0.292 HD
ENDBRANCH  21  26
TORSDOF 3
ENDMDL
