MODEL 1
REMARK VINA RESULT:      -6.8      0.000      0.000
REMARK  Name = 216294
REMARK  9 active torsions:
REMARK  status: ('A' for Active; 'I' for Inactive)
REMARK    1  A    between atoms: N_2  and  C_5
REMARK    2  A    between atoms: C_3  and  C_20
REMARK    3  A    between atoms: C_5  and  C_6
REMARK    4  A    between atoms: C_5  and  C_10
REMARK    5  A    between atoms: C_10  and  C_15
REMARK    6  A    between atoms: C_14  and  C_16
REMARK    7  A    between atoms: C_20  and  N_22
REMARK    8  A    between atoms: C_24  and  C_28
REMARK    9  A    between atoms: C_26  and  N_34
REMARK                            x       y       z     vdW  Elec       q    Type
REMARK                         _______ _______ _______ _____ _____    ______ ____
ROOT
ATOM      1  O   UNL     1     -35.108  27.013   4.613  0.00  0.00    -0.273 OA
ATOM      2  N   UNL     1     -33.961  27.721   2.719  0.00  0.00    -0.298 N 
ATOM      3  C   UNL     1     -34.707  26.820   3.468  0.00  0.00    +0.243 C 
ATOM      4  H   UNL     1     -33.693  27.461   1.809  0.00  0.00    +0.150 HD
ENDROOT
BRANCH   2   5
ATOM      5  C   UNL     1     -33.560  29.019   3.209  0.00  0.00    +0.139 C 
BRANCH   5   6
ATOM      6  C   UNL     1     -34.107  30.180   2.353  0.00  0.00    +0.026 C 
ATOM      7  C   UNL     1     -35.303  30.848   3.040  0.00  0.00    +0.002 C 
ATOM      8  C   UNL     1     -34.494  29.762   0.930  0.00  0.00    +0.002 C 
ENDBRANCH   5   6
BRANCH   5  10
ATOM      9  O   UNL     1     -31.376  29.430   2.321  0.00  0.00    -0.285 OA
ATOM     10  C   UNL     1     -32.027  29.025   3.289  0.00  0.00    +0.245 C 
BRANCH  10  15
ATOM     11  O   UNL     1     -30.096  28.903   4.721  0.00  0.00    -0.417 OA
ATOM     12  N   UNL     1     -30.961  27.685   6.385  0.00  0.00    -0.111 NA
ATOM     13  N   UNL     1     -31.947  27.869   5.433  0.00  0.00    -0.104 NA
ATOM     14  C   UNL     1     -29.899  28.305   5.928  0.00  0.00    +0.226 A 
ATOM     15  C   UNL     1     -31.372  28.568   4.529  0.00  0.00    +0.286 A 
BRANCH  14  16
ATOM     16  C   UNL     1     -28.563  28.440   6.522  0.00  0.00    +0.070 C 
ATOM     17  C   UNL     1     -27.999  27.071   7.054  0.00  0.00    +0.009 C 
ATOM     18  C   UNL     1     -28.541  29.434   7.741  0.00  0.00    +0.009 C 
ATOM     19  C   UNL     1     -27.432  28.978   5.564  0.00  0.00    +0.009 C 
ENDBRANCH  14  16
ENDBRANCH  10  15
ENDBRANCH   5  10
ENDBRANCH   2   5
BRANCH   3  20
ATOM     20  C   UNL     1     -35.024  25.569   2.678  0.00  0.00    +0.185 C 
BRANCH  20  22
ATOM     21  O   UNL     1     -36.694  27.125   1.055  0.00  0.00    -0.268 OA
ATOM     22  N   UNL     1     -36.477  25.390   2.606  0.00  0.00    -0.230 N 
ATOM     23  N   UNL     1     -38.427  24.239   3.351  0.00  0.00    -0.227 NA
ATOM     24  C   UNL     1     -37.139  24.398   3.342  0.00  0.00    +0.138 C 
ATOM     25  C   UNL     1     -37.192  26.259   1.771  0.00  0.00    +0.269 C 
ATOM     26  C   UNL     1     -38.674  26.072   1.795  0.00  0.00    +0.116 C 
ATOM     27  C   UNL     1     -39.155  25.095   2.575  0.00  0.00    +0.119 C 
BRANCH  24  28
ATOM     28  C   UNL     1     -36.337  23.469   4.160  0.00  0.00    +0.032 C 
ATOM     29  C   UNL     1     -35.967  22.234   3.637  0.00  0.00    +0.003 C 
ATOM     30  C   UNL     1     -35.957  23.835   5.446  0.00  0.00    +0.003 C 
ATOM     31  C   UNL     1     -35.208  21.356   4.410  0.00  0.00    +0.000 C 
ATOM     32  C   UNL     1     -35.198  22.957   6.220  0.00  0.00    +0.000 C 
ATOM     33  C   UNL     1     -34.824  21.717   5.701  0.00  0.00    +0.000 C 
ENDBRANCH  24  28
BRANCH  26  34
ATOM     34  N   UNL     1     -39.419  26.910   1.020  0.00  0.00    -0.352 N 
ATOM     35  H   UNL     1     -39.743  27.763   1.390  0.00  0.00    +0.143 HD
ATOM     36  H   UNL     1     -39.632  26.663   0.092  0.00  0.00    +0.143 HD
ENDBRANCH  26  34
ENDBRANCH  20  22
ENDBRANCH   3  20
TORSDOF 9
ENDMDL
MODEL 2
REMARK VINA RESULT:      -6.8      3.895      6.846
REMARK  Name = 216294
REMARK  9 active torsions:
REMARK  status: ('A' for Active; 'I' for Inactive)
REMARK    1  A    between atoms: N_2  and  C_5
REMARK    2  A    between atoms: C_3  and  C_20
REMARK    3  A    between atoms: C_5  and  C_6
REMARK    4  A    between atoms: C_5  and  C_10
REMARK    5  A    between atoms: C_10  and  C_15
REMARK    6  A    between atoms: C_14  and  C_16
REMARK    7  A    between atoms: C_20  and  N_22
REMARK    8  A    between atoms: C_24  and  C_28
REMARK    9  A    between atoms: C_26  and  N_34
REMARK                            x       y       z     vdW  Elec       q    Type
REMARK                         _______ _______ _______ _____ _____    ______ ____
ROOT
ATOM      1  O   UNL     1     -34.637  22.815   1.722  0.00  0.00    -0.273 OA
ATOM      2  N   UNL     1     -36.026  22.767   3.585  0.00  0.00    -0.298 N 
ATOM      3  C   UNL     1     -35.358  22.204   2.506  0.00  0.00    +0.243 C 
ATOM      4  H   UNL     1     -36.578  22.181   4.149  0.00  0.00    +0.150 HD
ENDROOT
BRANCH   2   5
ATOM      5  C   UNL     1     -35.950  24.170   3.920  0.00  0.00    +0.139 C 
BRANCH   5   6
ATOM      6  C   UNL     1     -35.679  24.417   5.419  0.00  0.00    +0.026 C 
ATOM      7  C   UNL     1     -34.621  25.509   5.609  0.00  0.00    +0.002 C 
ATOM      8  C   UNL     1     -35.262  23.155   6.181  0.00  0.00    +0.002 C 
ENDBRANCH   5   6
BRANCH   5  10
ATOM      9  O   UNL     1     -38.334  24.311   3.759  0.00  0.00    -0.285 OA
ATOM     10  C   UNL     1     -37.255  24.825   3.448  0.00  0.00    +0.245 C 
BRANCH  10  15
ATOM     11  O   UNL     1     -36.062  26.778   2.701  0.00  0.00    -0.417 OA
ATOM     12  N   UNL     1     -37.630  27.672   1.380  0.00  0.00    -0.111 NA
ATOM     13  N   UNL     1     -38.140  26.505   1.919  0.00  0.00    -0.104 NA
ATOM     14  C   UNL     1     -36.416  27.791   1.863  0.00  0.00    +0.226 A 
ATOM     15  C   UNL     1     -37.188  26.066   2.653  0.00  0.00    +0.286 A 
BRANCH  14  16
ATOM     16  C   UNL     1     -35.413  28.838   1.631  0.00  0.00    +0.070 C 
ATOM     17  C   UNL     1     -34.822  28.795   0.173  0.00  0.00    +0.009 C 
ATOM     18  C   UNL     1     -34.188  28.730   2.612  0.00  0.00    +0.009 C 
ATOM     19  C   UNL     1     -35.914  30.324   1.801  0.00  0.00    +0.009 C 
ENDBRANCH  14  16
ENDBRANCH  10  15
ENDBRANCH   5  10
ENDBRANCH   2   5
BRANCH   3  20
ATOM     20  C   UNL     1     -35.578  20.708   2.435  0.00  0.00    +0.185 C 
BRANCH  20  22
ATOM     21  O   UNL     1     -38.258  21.276   1.854  0.00  0.00    -0.268 OA
ATOM     22  N   UNL     1     -36.219  20.366   1.163  0.00  0.00    -0.230 N 
ATOM     23  N   UNL     1     -36.058  19.370  -0.996  0.00  0.00    -0.227 NA
ATOM     24  C   UNL     1     -35.518  19.739   0.124  0.00  0.00    +0.138 C 
ATOM     25  C   UNL     1     -37.576  20.686   1.019  0.00  0.00    +0.269 C 
ATOM     26  C   UNL     1     -38.188  20.249  -0.272  0.00  0.00    +0.116 C 
ATOM     27  C   UNL     1     -37.388  19.633  -1.152  0.00  0.00    +0.119 C 
BRANCH  24  28
ATOM     28  C   UNL     1     -34.077  19.477   0.300  0.00  0.00    +0.032 C 
ATOM     29  C   UNL     1     -33.660  18.312   0.935  0.00  0.00    +0.003 C 
ATOM     30  C   UNL     1     -33.147  20.397  -0.173  0.00  0.00    +0.003 C 
ATOM     31  C   UNL     1     -32.297  18.064   1.100  0.00  0.00    +0.000 C 
ATOM     32  C   UNL     1     -31.784  20.150  -0.007  0.00  0.00    +0.000 C 
ATOM     33  C   UNL     1     -31.360  18.984   0.630  0.00  0.00    +0.000 C 
ENDBRANCH  24  28
BRANCH  26  34
ATOM     34  N   UNL     1     -39.514  20.512  -0.451  0.00  0.00    -0.352 N 
ATOM     35  H   UNL     1     -40.168  20.227   0.228  0.00  0.00    +0.143 HD
ATOM     36  H   UNL     1     -39.816  20.986  -1.258  0.00  0.00    +0.143 HD
ENDBRANCH  26  34
ENDBRANCH  20  22
ENDBRANCH   3  20
TORSDOF 9
ENDMDL
MODEL 3
REMARK VINA RESULT:      -6.4      7.498     11.552
REMARK  Name = 216294
REMARK  9 active torsions:
REMARK  status: ('A' for Active; 'I' for Inactive)
REMARK    1  A    between atoms: N_2  and  C_5
REMARK    2  A    between atoms: C_3  and  C_20
REMARK    3  A    between atoms: C_5  and  C_6
REMARK    4  A    between atoms: C_5  and  C_10
REMARK    5  A    between atoms: C_10  and  C_15
REMARK    6  A    between atoms: C_14  and  C_16
REMARK    7  A    between atoms: C_20  and  N_22
REMARK    8  A    between atoms: C_24  and  C_28
REMARK    9  A    between atoms: C_26  and  N_34
REMARK                            x       y       z     vdW  Elec       q    Type
REMARK                         _______ _______ _______ _____ _____    ______ ____
ROOT
ATOM      1  O   UNL     1     -46.504  29.137   2.450  0.00  0.00    -0.273 OA
ATOM      2  N   UNL     1     -44.839  29.069   4.070  0.00  0.00    -0.298 N 
ATOM      3  C   UNL     1     -45.964  29.598   3.452  0.00  0.00    +0.243 C 
ATOM      4  H   UNL     1     -44.490  29.522   4.871  0.00  0.00    +0.150 HD
ENDROOT
BRANCH   2   5
ATOM      5  C   UNL     1     -44.156  27.888   3.598  0.00  0.00    +0.139 C 
BRANCH   5   6
ATOM      6  C   UNL     1     -44.601  26.603   4.327  0.00  0.00    +0.026 C 
ATOM      7  C   UNL     1     -45.489  25.743   3.421  0.00  0.00    +0.002 C 
ATOM      8  C   UNL     1     -45.319  26.869   5.653  0.00  0.00    +0.002 C 
ENDBRANCH   5   6
BRANCH   5  10
ATOM      9  O   UNL     1     -42.240  28.855   4.660  0.00  0.00    -0.285 OA
ATOM     10  C   UNL     1     -42.648  28.144   3.736  0.00  0.00    +0.245 C 
BRANCH  10  15
ATOM     11  O   UNL     1     -40.983  26.491   3.197  0.00  0.00    -0.417 OA
ATOM     12  N   UNL     1     -40.628  27.027   1.055  0.00  0.00    -0.111 NA
ATOM     13  N   UNL     1     -41.584  27.890   1.558  0.00  0.00    -0.104 NA
ATOM     14  C   UNL     1     -40.307  26.229   2.045  0.00  0.00    +0.226 A 
ATOM     15  C   UNL     1     -41.724  27.516   2.774  0.00  0.00    +0.286 A 
BRANCH  14  16
ATOM     16  C   UNL     1     -39.344  25.121   2.082  0.00  0.00    +0.070 C 
ATOM     17  C   UNL     1     -40.040  23.713   1.984  0.00  0.00    +0.009 C 
ATOM     18  C   UNL     1     -38.490  25.105   3.402  0.00  0.00    +0.009 C 
ATOM     19  C   UNL     1     -38.269  25.101   0.927  0.00  0.00    +0.009 C 
ENDBRANCH  14  16
ENDBRANCH  10  15
ENDBRANCH   5  10
ENDBRANCH   2   5
BRANCH   3  20
ATOM     20  C   UNL     1     -46.495  30.802   4.201  0.00  0.00    +0.185 C 
BRANCH  20  22
ATOM     21  O   UNL     1     -46.180  32.346   1.886  0.00  0.00    -0.268 OA
ATOM     22  N   UNL     1     -45.540  31.908   4.091  0.00  0.00    -0.230 N 
ATOM     23  N   UNL     1     -43.823  33.224   5.092  0.00  0.00    -0.227 NA
ATOM     24  C   UNL     1     -44.719  32.288   5.162  0.00  0.00    +0.138 C 
ATOM     25  C   UNL     1     -45.469  32.578   2.862  0.00  0.00    +0.269 C 
ATOM     26  C   UNL     1     -44.429  33.648   2.791  0.00  0.00    +0.116 C 
ATOM     27  C   UNL     1     -43.704  33.871   3.895  0.00  0.00    +0.119 C 
BRANCH  24  28
ATOM     28  C   UNL     1     -44.873  31.593   6.453  0.00  0.00    +0.032 C 
ATOM     29  C   UNL     1     -46.052  31.737   7.178  0.00  0.00    +0.003 C 
ATOM     30  C   UNL     1     -43.839  30.798   6.936  0.00  0.00    +0.003 C 
ATOM     31  C   UNL     1     -46.197  31.079   8.399  0.00  0.00    +0.000 C 
ATOM     32  C   UNL     1     -43.984  30.141   8.157  0.00  0.00    +0.000 C 
ATOM     33  C   UNL     1     -45.163  30.282   8.889  0.00  0.00    +0.000 C 
ENDBRANCH  24  28
BRANCH  26  34
ATOM     34  N   UNL     1     -44.301  34.311   1.608  0.00  0.00    -0.352 N 
ATOM     35  H   UNL     1     -44.904  35.060   1.395  0.00  0.00    +0.143 HD
ATOM     36  H   UNL     1     -43.606  34.042   0.966  0.00  0.00    +0.143 HD
ENDBRANCH  26  34
ENDBRANCH  20  22
ENDBRANCH   3  20
TORSDOF 9
ENDMDL
MODEL 4
REMARK VINA RESULT:      -6.4      4.163      7.811
REMARK  Name = 216294
REMARK  9 active torsions:
REMARK  status: ('A' for Active; 'I' for Inactive)
REMARK    1  A    between atoms: N_2  and  C_5
REMARK    2  A    between atoms: C_3  and  C_20
REMARK    3  A    between atoms: C_5  and  C_6
REMARK    4  A    between atoms: C_5  and  C_10
REMARK    5  A    between atoms: C_10  and  C_15
REMARK    6  A    between atoms: C_14  and  C_16
REMARK    7  A    between atoms: C_20  and  N_22
REMARK    8  A    between atoms: C_24  and  C_28
REMARK    9  A    between atoms: C_26  and  N_34
REMARK                            x       y       z     vdW  Elec       q    Type
REMARK                         _______ _______ _______ _____ _____    ______ ____
ROOT
ATOM      1  O   UNL     1     -34.334  23.580   1.431  0.00  0.00    -0.273 OA
ATOM      2  N   UNL     1     -35.828  23.662   3.211  0.00  0.00    -0.298 N 
ATOM      3  C   UNL     1     -35.217  23.068   2.115  0.00  0.00    +0.243 C 
ATOM      4  H   UNL     1     -36.525  23.158   3.687  0.00  0.00    +0.150 HD
ENDROOT
BRANCH   2   5
ATOM      5  C   UNL     1     -35.490  24.983   3.687  0.00  0.00    +0.139 C 
BRANCH   5   6
ATOM      6  C   UNL     1     -35.405  25.065   5.226  0.00  0.00    +0.026 C 
ATOM      7  C   UNL     1     -34.223  25.938   5.660  0.00  0.00    +0.002 C 
ATOM      8  C   UNL     1     -35.312  23.695   5.907  0.00  0.00    +0.002 C 
ENDBRANCH   5   6
BRANCH   5  10
ATOM      9  O   UNL     1     -36.142  27.025   2.620  0.00  0.00    -0.285 OA
ATOM     10  C   UNL     1     -36.526  25.957   3.109  0.00  0.00    +0.245 C 
BRANCH  10  15
ATOM     11  O   UNL     1     -38.786  26.252   2.335  0.00  0.00    -0.417 OA
ATOM     12  N   UNL     1     -39.793  24.675   3.562  0.00  0.00    -0.111 NA
ATOM     13  N   UNL     1     -38.445  24.663   3.872  0.00  0.00    -0.104 NA
ATOM     14  C   UNL     1     -39.946  25.617   2.661  0.00  0.00    +0.226 A 
ATOM     15  C   UNL     1     -37.953  25.585   3.134  0.00  0.00    +0.286 A 
BRANCH  14  16
ATOM     16  C   UNL     1     -41.162  26.069   1.974  0.00  0.00    +0.070 C 
ATOM     17  C   UNL     1     -42.239  26.641   2.968  0.00  0.00    +0.009 C 
ATOM     18  C   UNL     1     -41.867  24.915   1.170  0.00  0.00    +0.009 C 
ATOM     19  C   UNL     1     -40.969  27.218   0.911  0.00  0.00    +0.009 C 
ENDBRANCH  14  16
ENDBRANCH  10  15
ENDBRANCH   5  10
ENDBRANCH   2   5
BRANCH   3  20
ATOM     20  C   UNL     1     -35.732  21.663   1.885  0.00  0.00    +0.185 C 
BRANCH  20  22
ATOM     21  O   UNL     1     -37.982  22.946   0.818  0.00  0.00    -0.268 OA
ATOM     22  N   UNL     1     -36.159  21.520   0.491  0.00  0.00    -0.230 N 
ATOM     23  N   UNL     1     -35.819  20.534  -1.652  0.00  0.00    -0.227 NA
ATOM     24  C   UNL     1     -35.448  20.732  -0.425  0.00  0.00    +0.138 C 
ATOM     25  C   UNL     1     -37.321  22.198   0.100  0.00  0.00    +0.269 C 
ATOM     26  C   UNL     1     -37.742  21.956  -1.313  0.00  0.00    +0.116 C 
ATOM     27  C   UNL     1     -36.968  21.152  -2.053  0.00  0.00    +0.119 C 
BRANCH  24  28
ATOM     28  C   UNL     1     -34.198  20.086   0.018  0.00  0.00    +0.032 C 
ATOM     29  C   UNL     1     -32.975  20.683  -0.269  0.00  0.00    +0.003 C 
ATOM     30  C   UNL     1     -34.253  18.886   0.718  0.00  0.00    +0.003 C 
ATOM     31  C   UNL     1     -31.792  20.073   0.151  0.00  0.00    +0.000 C 
ATOM     32  C   UNL     1     -33.071  18.275   1.136  0.00  0.00    +0.000 C 
ATOM     33  C   UNL     1     -31.841  18.868   0.852  0.00  0.00    +0.000 C 
ENDBRANCH  24  28
BRANCH  26  34
ATOM     34  N   UNL     1     -38.882  22.572  -1.735  0.00  0.00    -0.352 N 
ATOM     35  H   UNL     1     -39.729  22.071  -1.770  0.00  0.00    +0.143 HD
ATOM     36  H   UNL     1     -38.858  23.518  -2.006  0.00  0.00    +0.143 HD
ENDBRANCH  26  34
ENDBRANCH  20  22
ENDBRANCH   3  20
TORSDOF 9
ENDMDL
MODEL 5
REMARK VINA RESULT:      -6.3      4.980      8.252
REMARK  Name = 216294
REMARK  9 active torsions:
REMARK  status: ('A' for Active; 'I' for Inactive)
REMARK    1  A    between atoms: N_2  and  C_5
REMARK    2  A    between atoms: C_3  and  C_20
REMARK    3  A    between atoms: C_5  and  C_6
REMARK    4  A    between atoms: C_5  and  C_10
REMARK    5  A    between atoms: C_10  and  C_15
REMARK    6  A    between atoms: C_14  and  C_16
REMARK    7  A    between atoms: C_20  and  N_22
REMARK    8  A    between atoms: C_24  and  C_28
REMARK    9  A    between atoms: C_26  and  N_34
REMARK                            x       y       z     vdW  Elec       q    Type
REMARK                         _______ _______ _______ _____ _____    ______ ____
ROOT
ATOM      1  O   UNL     1     -34.567  22.401   1.772  0.00  0.00    -0.273 OA
ATOM      2  N   UNL     1     -36.232  22.339   3.394  0.00  0.00    -0.298 N 
ATOM      3  C   UNL     1     -35.418  21.788   2.413  0.00  0.00    +0.243 C 
ATOM      4  H   UNL     1     -36.881  21.753   3.845  0.00  0.00    +0.150 HD
ENDROOT
BRANCH   2   5
ATOM      5  C   UNL     1     -36.173  23.728   3.785  0.00  0.00    +0.139 C 
BRANCH   5   6
ATOM      6  C   UNL     1     -35.824  23.919   5.276  0.00  0.00    +0.026 C 
ATOM      7  C   UNL     1     -34.710  24.958   5.445  0.00  0.00    +0.002 C 
ATOM      8  C   UNL     1     -35.430  22.619   5.984  0.00  0.00    +0.002 C 
ENDBRANCH   5   6
BRANCH   5  10
ATOM      9  O   UNL     1     -38.142  24.998   4.276  0.00  0.00    -0.285 OA
ATOM     10  C   UNL     1     -37.520  24.365   3.417  0.00  0.00    +0.245 C 
BRANCH  10  15
ATOM     11  O   UNL     1     -37.140  24.190   1.046  0.00  0.00    -0.417 OA
ATOM     12  N   UNL     1     -39.259  24.015   0.355  0.00  0.00    -0.111 NA
ATOM     13  N   UNL     1     -39.267  24.128   1.733  0.00  0.00    -0.104 NA
ATOM     14  C   UNL     1     -37.997  24.056  -0.002  0.00  0.00    +0.226 A 
ATOM     15  C   UNL     1     -38.028  24.223   2.039  0.00  0.00    +0.286 A 
BRANCH  14  16
ATOM     16  C   UNL     1     -37.399  23.978  -1.341  0.00  0.00    +0.070 C 
ATOM     17  C   UNL     1     -38.379  23.359  -2.405  0.00  0.00    +0.009 C 
ATOM     18  C   UNL     1     -36.096  23.098  -1.370  0.00  0.00    +0.009 C 
ATOM     19  C   UNL     1     -36.952  25.350  -1.978  0.00  0.00    +0.009 C 
ENDBRANCH  14  16
ENDBRANCH  10  15
ENDBRANCH   5  10
ENDBRANCH   2   5
BRANCH   3  20
ATOM     20  C   UNL     1     -35.663  20.303   2.258  0.00  0.00    +0.185 C 
BRANCH  20  22
ATOM     21  O   UNL     1     -38.305  20.850   1.506  0.00  0.00    -0.268 OA
ATOM     22  N   UNL     1     -36.195  20.031   0.920  0.00  0.00    -0.230 N 
ATOM     23  N   UNL     1     -35.843  19.181  -1.279  0.00  0.00    -0.227 NA
ATOM     24  C   UNL     1     -35.400  19.488  -0.099  0.00  0.00    +0.138 C 
ATOM     25  C   UNL     1     -37.545  20.330   0.691  0.00  0.00    +0.269 C 
ATOM     26  C   UNL     1     -38.046  19.966  -0.669  0.00  0.00    +0.116 C 
ATOM     27  C   UNL     1     -37.165  19.426  -1.521  0.00  0.00    +0.119 C 
BRANCH  24  28
ATOM     28  C   UNL     1     -33.971  19.246   0.172  0.00  0.00    +0.032 C 
ATOM     29  C   UNL     1     -33.028  20.198  -0.204  0.00  0.00    +0.003 C 
ATOM     30  C   UNL     1     -33.577  18.070   0.800  0.00  0.00    +0.003 C 
ATOM     31  C   UNL     1     -31.676  19.970   0.052  0.00  0.00    +0.000 C 
ATOM     32  C   UNL     1     -32.225  17.842   1.055  0.00  0.00    +0.000 C 
ATOM     33  C   UNL     1     -31.274  18.792   0.681  0.00  0.00    +0.000 C 
ENDBRANCH  24  28
BRANCH  26  34
ATOM     34  N   UNL     1     -39.360  20.212  -0.932  0.00  0.00    -0.352 N 
ATOM     35  H   UNL     1     -39.616  20.993  -1.474  0.00  0.00    +0.143 HD
ATOM     36  H   UNL     1     -40.053  19.608  -0.581  0.00  0.00    +0.143 HD
ENDBRANCH  26  34
ENDBRANCH  20  22
ENDBRANCH   3  20
TORSDOF 9
ENDMDL
MODEL 6
REMARK VINA RESULT:      -6.3      1.461      1.763
REMARK  Name = 216294
REMARK  9 active torsions:
REMARK  status: ('A' for Active; 'I' for Inactive)
REMARK    1  A    between atoms: N_2  and  C_5
REMARK    2  A    between atoms: C_3  and  C_20
REMARK    3  A    between atoms: C_5  and  C_6
REMARK    4  A    between atoms: C_5  and  C_10
REMARK    5  A    between atoms: C_10  and  C_15
REMARK    6  A    between atoms: C_14  and  C_16
REMARK    7  A    between atoms: C_20  and  N_22
REMARK    8  A    between atoms: C_24  and  C_28
REMARK    9  A    between atoms: C_26  and  N_34
REMARK                            x       y       z     vdW  Elec       q    Type
REMARK                         _______ _______ _______ _____ _____    ______ ____
ROOT
ATOM      1  O   UNL     1     -35.913  27.804   2.584  0.00  0.00    -0.273 OA
ATOM      2  N   UNL     1     -33.876  26.712   2.838  0.00  0.00    -0.298 N 
ATOM      3  C   UNL     1     -35.210  26.804   2.462  0.00  0.00    +0.243 C 
ATOM      4  H   UNL     1     -33.408  25.859   2.694  0.00  0.00    +0.150 HD
ENDROOT
BRANCH   2   5
ATOM      5  C   UNL     1     -33.142  27.806   3.429  0.00  0.00    +0.139 C 
BRANCH   5   6
ATOM      6  C   UNL     1     -31.908  28.220   2.600  0.00  0.00    +0.026 C 
ATOM      7  C   UNL     1     -32.314  29.129   1.435  0.00  0.00    +0.002 C 
ATOM      8  C   UNL     1     -31.099  27.031   2.071  0.00  0.00    +0.002 C 
ENDBRANCH   5   6
BRANCH   5  10
ATOM      9  O   UNL     1     -33.268  26.366   5.337  0.00  0.00    -0.285 OA
ATOM     10  C   UNL     1     -32.770  27.390   4.859  0.00  0.00    +0.245 C 
BRANCH  10  15
ATOM     11  O   UNL     1     -30.548  27.792   5.692  0.00  0.00    -0.417 OA
ATOM     12  N   UNL     1     -30.914  29.712   6.778  0.00  0.00    -0.111 NA
ATOM     13  N   UNL     1     -32.109  29.306   6.213  0.00  0.00    -0.104 NA
ATOM     14  C   UNL     1     -30.032  28.799   6.448  0.00  0.00    +0.226 A 
ATOM     15  C   UNL     1     -31.811  28.213   5.618  0.00  0.00    +0.286 A 
BRANCH  14  16
ATOM     16  C   UNL     1     -28.602  28.715   6.774  0.00  0.00    +0.070 C 
ATOM     17  C   UNL     1     -28.144  27.247   7.108  0.00  0.00    +0.009 C 
ATOM     18  C   UNL     1     -28.213  29.597   8.016  0.00  0.00    +0.009 C 
ATOM     19  C   UNL     1     -27.608  29.182   5.642  0.00  0.00    +0.009 C 
ENDBRANCH  14  16
ENDBRANCH  10  15
ENDBRANCH   5  10
ENDBRANCH   2   5
BRANCH   3  20
ATOM     20  C   UNL     1     -35.696  25.522   1.821  0.00  0.00    +0.185 C 
BRANCH  20  22
ATOM     21  O   UNL     1     -37.651  26.728   0.219  0.00  0.00    -0.268 OA
ATOM     22  N   UNL     1     -37.135  25.373   2.052  0.00  0.00    -0.230 N 
ATOM     23  N   UNL     1     -38.903  24.470   3.371  0.00  0.00    -0.227 NA
ATOM     24  C   UNL     1     -37.640  24.587   3.097  0.00  0.00    +0.138 C 
ATOM     25  C   UNL     1     -38.000  26.055   1.188  0.00  0.00    +0.269 C 
ATOM     26  C   UNL     1     -39.451  25.920   1.517  0.00  0.00    +0.116 C 
ATOM     27  C   UNL     1     -39.771  25.155   2.569  0.00  0.00    +0.119 C 
BRANCH  24  28
ATOM     28  C   UNL     1     -36.692  23.839   3.944  0.00  0.00    +0.032 C 
ATOM     29  C   UNL     1     -36.310  22.552   3.579  0.00  0.00    +0.003 C 
ATOM     30  C   UNL     1     -36.188  24.426   5.098  0.00  0.00    +0.003 C 
ATOM     31  C   UNL     1     -35.413  21.844   4.379  0.00  0.00    +0.000 C 
ATOM     32  C   UNL     1     -35.291  23.718   5.899  0.00  0.00    +0.000 C 
ATOM     33  C   UNL     1     -34.904  22.427   5.539  0.00  0.00    +0.000 C 
ENDBRANCH  24  28
BRANCH  26  34
ATOM     34  N   UNL     1     -40.333  26.588   0.722  0.00  0.00    -0.352 N 
ATOM     35  H   UNL     1     -40.709  26.149  -0.075  0.00  0.00    +0.143 HD
ATOM     36  H   UNL     1     -40.594  27.511   0.945  0.00  0.00    +0.143 HD
ENDBRANCH  26  34
ENDBRANCH  20  22
ENDBRANCH   3  20
TORSDOF 9
ENDMDL
MODEL 7
REMARK VINA RESULT:      -6.3      2.940      4.041
REMARK  Name = 216294
REMARK  9 active torsions:
REMARK  status: ('A' for Active; 'I' for Inactive)
REMARK    1  A    between atoms: N_2  and  C_5
REMARK    2  A    between atoms: C_3  and  C_20
REMARK    3  A    between atoms: C_5  and  C_6
REMARK    4  A    between atoms: C_5  and  C_10
REMARK    5  A    between atoms: C_10  and  C_15
REMARK    6  A    between atoms: C_14  and  C_16
REMARK    7  A    between atoms: C_20  and  N_22
REMARK    8  A    between atoms: C_24  and  C_28
REMARK    9  A    between atoms: C_26  and  N_34
REMARK                            x       y       z     vdW  Elec       q    Type
REMARK                         _______ _______ _______ _____ _____    ______ ____
ROOT
ATOM      1  O   UNL     1     -34.497  24.342   1.410  0.00  0.00    -0.273 OA
ATOM      2  N   UNL     1     -35.564  25.076   3.340  0.00  0.00    -0.298 N 
ATOM      3  C   UNL     1     -35.085  24.112   2.464  0.00  0.00    +0.243 C 
ATOM      4  H   UNL     1     -36.021  24.777   4.159  0.00  0.00    +0.150 HD
ENDROOT
BRANCH   2   5
ATOM      5  C   UNL     1     -35.426  26.495   3.111  0.00  0.00    +0.139 C 
BRANCH   5   6
ATOM      6  C   UNL     1     -36.080  26.958   1.792  0.00  0.00    +0.026 C 
ATOM      7  C   UNL     1     -35.997  28.482   1.649  0.00  0.00    +0.002 C 
ATOM      8  C   UNL     1     -37.535  26.503   1.638  0.00  0.00    +0.002 C 
ENDBRANCH   5   6
BRANCH   5  10
ATOM      9  O   UNL     1     -33.280  26.854   2.115  0.00  0.00    -0.285 OA
ATOM     10  C   UNL     1     -33.928  26.825   3.165  0.00  0.00    +0.245 C 
BRANCH  10  15
ATOM     11  O   UNL     1     -32.696  28.295   4.619  0.00  0.00    -0.417 OA
ATOM     12  N   UNL     1     -32.621  27.011   6.448  0.00  0.00    -0.111 NA
ATOM     13  N   UNL     1     -33.311  26.320   5.468  0.00  0.00    -0.104 NA
ATOM     14  C   UNL     1     -32.282  28.158   5.909  0.00  0.00    +0.226 A 
ATOM     15  C   UNL     1     -33.306  27.119   4.469  0.00  0.00    +0.286 A 
BRANCH  14  16
ATOM     16  C   UNL     1     -31.537  29.283   6.488  0.00  0.00    +0.070 C 
ATOM     17  C   UNL     1     -31.945  30.665   5.856  0.00  0.00    +0.009 C 
ATOM     18  C   UNL     1     -29.983  29.145   6.291  0.00  0.00    +0.009 C 
ATOM     19  C   UNL     1     -31.712  29.501   8.040  0.00  0.00    +0.009 C 
ENDBRANCH  14  16
ENDBRANCH  10  15
ENDBRANCH   5  10
ENDBRANCH   2   5
BRANCH   3  20
ATOM     20  C   UNL     1     -35.323  22.714   2.992  0.00  0.00    +0.185 C 
BRANCH  20  22
ATOM     21  O   UNL     1     -37.999  23.465   3.333  0.00  0.00    -0.268 OA
ATOM     22  N   UNL     1     -36.435  22.098   2.263  0.00  0.00    -0.230 N 
ATOM     23  N   UNL     1     -37.188  20.475   0.687  0.00  0.00    -0.227 NA
ATOM     24  C   UNL     1     -36.230  21.086   1.315  0.00  0.00    +0.138 C 
ATOM     25  C   UNL     1     -37.727  22.554   2.554  0.00  0.00    +0.269 C 
ATOM     26  C   UNL     1     -38.822  21.839   1.831  0.00  0.00    +0.116 C 
ATOM     27  C   UNL     1     -38.462  20.873   0.977  0.00  0.00    +0.119 C 
BRANCH  24  28
ATOM     28  C   UNL     1     -34.848  20.681   0.998  0.00  0.00    +0.032 C 
ATOM     29  C   UNL     1     -34.099  21.432   0.099  0.00  0.00    +0.003 C 
ATOM     30  C   UNL     1     -34.305  19.552   1.602  0.00  0.00    +0.003 C 
ATOM     31  C   UNL     1     -32.791  21.050  -0.199  0.00  0.00    +0.000 C 
ATOM     32  C   UNL     1     -32.998  19.169   1.303  0.00  0.00    +0.000 C 
ATOM     33  C   UNL     1     -32.241  19.918   0.402  0.00  0.00    +0.000 C 
ENDBRANCH  24  28
BRANCH  26  34
ATOM     34  N   UNL     1     -40.100  22.227   2.100  0.00  0.00    -0.352 N 
ATOM     35  H   UNL     1     -40.828  21.564   2.094  0.00  0.00    +0.143 HD
ATOM     36  H   UNL     1     -40.296  23.171   2.299  0.00  0.00    +0.143 HD
ENDBRANCH  26  34
ENDBRANCH  20  22
ENDBRANCH   3  20
TORSDOF 9
ENDMDL
MODEL 8
REMARK VINA RESULT:      -6.2      2.457      8.114
REMARK  Name = 216294
REMARK  9 active torsions:
REMARK  status: ('A' for Active; 'I' for Inactive)
REMARK    1  A    between atoms: N_2  and  C_5
REMARK    2  A    between atoms: C_3  and  C_20
REMARK    3  A    between atoms: C_5  and  C_6
REMARK    4  A    between atoms: C_5  and  C_10
REMARK    5  A    between atoms: C_10  and  C_15
REMARK    6  A    between atoms: C_14  and  C_16
REMARK    7  A    between atoms: C_20  and  N_22
REMARK    8  A    between atoms: C_24  and  C_28
REMARK    9  A    between atoms: C_26  and  N_34
REMARK                            x       y       z     vdW  Elec       q    Type
REMARK                         _______ _______ _______ _____ _____    ______ ____
ROOT
ATOM      1  O   UNL     1     -31.492  27.301   3.950  0.00  0.00    -0.273 OA
ATOM      2  N   UNL     1     -33.650  27.522   4.786  0.00  0.00    -0.298 N 
ATOM      3  C   UNL     1     -32.292  27.805   4.735  0.00  0.00    +0.243 C 
ATOM      4  H   UNL     1     -34.199  27.986   5.458  0.00  0.00    +0.150 HD
ENDROOT
BRANCH   2   5
ATOM      5  C   UNL     1     -34.298  26.581   3.903  0.00  0.00    +0.139 C 
BRANCH   5   6
ATOM      6  C   UNL     1     -34.848  27.240   2.620  0.00  0.00    +0.026 C 
ATOM      7  C   UNL     1     -33.926  26.963   1.427  0.00  0.00    +0.002 C 
ATOM      8  C   UNL     1     -35.076  28.749   2.757  0.00  0.00    +0.002 C 
ENDBRANCH   5   6
BRANCH   5  10
ATOM      9  O   UNL     1     -36.039  26.519   5.544  0.00  0.00    -0.285 OA
ATOM     10  C   UNL     1     -35.395  25.874   4.710  0.00  0.00    +0.245 C 
BRANCH  10  15
ATOM     11  O   UNL     1     -35.527  23.999   3.206  0.00  0.00    -0.417 OA
ATOM     12  N   UNL     1     -36.165  22.421   4.657  0.00  0.00    -0.111 NA
ATOM     13  N   UNL     1     -36.031  23.610   5.351  0.00  0.00    -0.104 NA
ATOM     14  C   UNL     1     -35.861  22.695   3.410  0.00  0.00    +0.226 A 
ATOM     15  C   UNL     1     -35.668  24.448   4.454  0.00  0.00    +0.286 A 
BRANCH  14  16
ATOM     16  C   UNL     1     -35.832  21.814   2.236  0.00  0.00    +0.070 C 
ATOM     17  C   UNL     1     -35.107  20.447   2.526  0.00  0.00    +0.009 C 
ATOM     18  C   UNL     1     -35.089  22.462   1.012  0.00  0.00    +0.009 C 
ATOM     19  C   UNL     1     -37.236  21.391   1.656  0.00  0.00    +0.009 C 
ENDBRANCH  14  16
ENDBRANCH  10  15
ENDBRANCH   5  10
ENDBRANCH   2   5
BRANCH   3  20
ATOM     20  C   UNL     1     -31.908  28.868   5.741  0.00  0.00    +0.185 C 
BRANCH  20  22
ATOM     21  O   UNL     1     -33.345  30.813   4.329  0.00  0.00    -0.268 OA
ATOM     22  N   UNL     1     -31.277  29.994   5.048  0.00  0.00    -0.230 N 
ATOM     23  N   UNL     1     -29.285  31.140   4.416  0.00  0.00    -0.227 NA
ATOM     24  C   UNL     1     -29.889  30.189   5.060  0.00  0.00    +0.138 C 
ATOM     25  C   UNL     1     -32.117  30.877   4.357  0.00  0.00    +0.269 C 
ATOM     26  C   UNL     1     -31.410  31.963   3.613  0.00  0.00    +0.116 C 
ATOM     27  C   UNL     1     -30.074  31.995   3.702  0.00  0.00    +0.119 C 
BRANCH  24  28
ATOM     28  C   UNL     1     -29.051  29.268   5.851  0.00  0.00    +0.032 C 
ATOM     29  C   UNL     1     -28.523  28.130   5.250  0.00  0.00    +0.003 C 
ATOM     30  C   UNL     1     -28.795  29.546   7.189  0.00  0.00    +0.003 C 
ATOM     31  C   UNL     1     -27.729  27.260   5.998  0.00  0.00    +0.000 C 
ATOM     32  C   UNL     1     -28.003  28.675   7.937  0.00  0.00    +0.000 C 
ATOM     33  C   UNL     1     -27.470  27.532   7.341  0.00  0.00    +0.000 C 
ENDBRANCH  24  28
BRANCH  26  34
ATOM     34  N   UNL     1     -32.181  32.833   2.902  0.00  0.00    -0.352 N 
ATOM     35  H   UNL     1     -32.858  32.491   2.275  0.00  0.00    +0.143 HD
ATOM     36  H   UNL     1     -32.060  33.803   3.016  0.00  0.00    +0.143 HD
ENDBRANCH  26  34
ENDBRANCH  20  22
ENDBRANCH   3  20
TORSDOF 9
ENDMDL
MODEL 9
REMARK VINA RESULT:      -6.2      2.705      5.891
REMARK  Name = 216294
REMARK  9 active torsions:
REMARK  status: ('A' for Active; 'I' for Inactive)
REMARK    1  A    between atoms: N_2  and  C_5
REMARK    2  A    between atoms: C_3  and  C_20
REMARK    3  A    between atoms: C_5  and  C_6
REMARK    4  A    between atoms: C_5  and  C_10
REMARK    5  A    between atoms: C_10  and  C_15
REMARK    6  A    between atoms: C_14  and  C_16
REMARK    7  A    between atoms: C_20  and  N_22
REMARK    8  A    between atoms: C_24  and  C_28
REMARK    9  A    between atoms: C_26  and  N_34
REMARK                            x       y       z     vdW  Elec       q    Type
REMARK                         _______ _______ _______ _____ _____    ______ ____
ROOT
ATOM      1  O   UNL     1     -37.566  25.585   1.983  0.00  0.00    -0.273 OA
ATOM      2  N   UNL     1     -37.219  24.349   3.920  0.00  0.00    -0.298 N 
ATOM      3  C   UNL     1     -37.998  24.942   2.936  0.00  0.00    +0.243 C 
ATOM      4  H   UNL     1     -37.673  23.855   4.640  0.00  0.00    +0.150 HD
ENDROOT
BRANCH   2   5
ATOM      5  C   UNL     1     -35.777  24.419   3.940  0.00  0.00    +0.139 C 
BRANCH   5   6
ATOM      6  C   UNL     1     -35.120  23.139   4.498  0.00  0.00    +0.026 C 
ATOM      7  C   UNL     1     -35.445  21.930   3.614  0.00  0.00    +0.002 C 
ATOM      8  C   UNL     1     -35.504  22.837   5.950  0.00  0.00    +0.002 C 
ENDBRANCH   5   6
BRANCH   5  10
ATOM      9  O   UNL     1     -36.161  26.092   5.608  0.00  0.00    -0.285 OA
ATOM     10  C   UNL     1     -35.389  25.669   4.741  0.00  0.00    +0.245 C 
BRANCH  10  15
ATOM     11  O   UNL     1     -33.744  27.356   5.235  0.00  0.00    -0.417 OA
ATOM     12  N   UNL     1     -32.230  26.849   3.669  0.00  0.00    -0.111 NA
ATOM     13  N   UNL     1     -33.286  25.963   3.546  0.00  0.00    -0.104 NA
ATOM     14  C   UNL     1     -32.541  27.642   4.667  0.00  0.00    +0.226 A 
ATOM     15  C   UNL     1     -34.095  26.322   4.469  0.00  0.00    +0.286 A 
BRANCH  14  16
ATOM     16  C   UNL     1     -31.789  28.766   5.240  0.00  0.00    +0.070 C 
ATOM     17  C   UNL     1     -30.252  28.694   4.911  0.00  0.00    +0.009 C 
ATOM     18  C   UNL     1     -31.907  28.835   6.807  0.00  0.00    +0.009 C 
ATOM     19  C   UNL     1     -32.221  30.204   4.757  0.00  0.00    +0.009 C 
ENDBRANCH  14  16
ENDBRANCH  10  15
ENDBRANCH   5  10
ENDBRANCH   2   5
BRANCH   3  20
ATOM     20  C   UNL     1     -39.470  24.654   3.144  0.00  0.00    +0.185 C 
BRANCH  20  22
ATOM     21  O   UNL     1     -38.609  22.042   2.617  0.00  0.00    -0.268 OA
ATOM     22  N   UNL     1     -39.973  23.847   2.030  0.00  0.00    -0.230 N 
ATOM     23  N   UNL     1     -41.386  23.669   0.118  0.00  0.00    -0.227 NA
ATOM     24  C   UNL     1     -40.951  24.327   1.148  0.00  0.00    +0.138 C 
ATOM     25  C   UNL     1     -39.433  22.564   1.868  0.00  0.00    +0.269 C 
ATOM     26  C   UNL     1     -39.936  21.818   0.675  0.00  0.00    +0.116 C 
ATOM     27  C   UNL     1     -40.851  22.429  -0.087  0.00  0.00    +0.119 C 
BRANCH  24  28
ATOM     28  C   UNL     1     -41.534  25.660   1.394  0.00  0.00    +0.032 C 
ATOM     29  C   UNL     1     -42.565  25.802   2.317  0.00  0.00    +0.003 C 
ATOM     30  C   UNL     1     -41.046  26.763   0.703  0.00  0.00    +0.003 C 
ATOM     31  C   UNL     1     -43.115  27.062   2.550  0.00  0.00    +0.000 C 
ATOM     32  C   UNL     1     -41.596  28.024   0.935  0.00  0.00    +0.000 C 
ATOM     33  C   UNL     1     -42.631  28.173   1.859  0.00  0.00    +0.000 C 
ENDBRANCH  24  28
BRANCH  26  34
ATOM     34  N   UNL     1     -39.421  20.575   0.458  0.00  0.00    -0.352 N 
ATOM     35  H   UNL     1     -39.678  20.069  -0.346  0.00  0.00    +0.143 HD
ATOM     36  H   UNL     1     -38.792  20.184   1.106  0.00  0.00    +0.143 HD
ENDBRANCH  26  34
ENDBRANCH  20  22
ENDBRANCH   3  20
TORSDOF 9
ENDMDL
