MODEL 1
REMARK VINA RESULT:      -7.2      0.000      0.000
REMARK  Name = 195691
REMARK  8 active torsions:
REMARK  status: ('A' for Active; 'I' for Inactive)
REMARK    1  A    between atoms: N_1  and  C_19
REMARK    2  A    between atoms: C_16  and  O_32
REMARK    3  A    between atoms: C_18  and  O_22
REMARK    4  A    between atoms: C_21  and  C_29
REMARK    5  A    between atoms: O_22  and  P_23
REMARK    6  A    between atoms: P_23  and  O_25
REMARK    7  A    between atoms: P_23  and  O_27
REMARK    8  A    between atoms: C_29  and  O_30
REMARK                            x       y       z     vdW  Elec       q    Type
REMARK                         _______ _______ _______ _____ _____    ______ ____
ROOT
ATOM      1  N   UNL     1     -34.632  26.302   4.391  0.00  0.00    -0.249 N 
ATOM      2  N   UNL     1     -31.439  28.232   5.683  0.00  0.00    -0.238 N 
ATOM      3  N   UNL     1     -33.478  27.324   2.762  0.00  0.00    -0.241 NA
ATOM      4  N   UNL     1     -33.293  26.895   6.335  0.00  0.00    -0.232 NA
ATOM      5  N   UNL     1     -30.915  28.899   3.608  0.00  0.00    -0.384 NA
ATOM      6  C   UNL     1     -33.576  26.913   5.004  0.00  0.00    +0.153 C 
ATOM      7  C   UNL     1     -32.897  27.525   3.971  0.00  0.00    +0.153 C 
ATOM      8  C   UNL     1     -34.529  26.579   3.047  0.00  0.00    +0.223 C 
ATOM      9  C   UNL     1     -31.763  28.223   4.341  0.00  0.00    +0.209 C 
ATOM     10  C   UNL     1     -30.292  28.974   5.819  0.00  0.00    +0.081 C 
ATOM     11  C   UNL     1     -32.213  27.566   6.653  0.00  0.00    +0.227 C 
ATOM     12  C   UNL     1     -29.987  29.377   4.514  0.00  0.00    +0.149 C 
ATOM     13  C   UNL     1     -29.508  29.326   6.923  0.00  0.00    -0.001 C 
ATOM     14  C   UNL     1     -28.849  30.169   4.290  0.00  0.00    +0.066 C 
ATOM     15  C   UNL     1     -28.379  30.114   6.677  0.00  0.00    +0.091 C 
ATOM     16  C   UNL     1     -28.053  30.529   5.385  0.00  0.00    +0.118 C 
ENDROOT
BRANCH   1  19
ATOM     17  O   UNL     1     -35.083  24.473   5.828  0.00  0.00    -0.335 OA
ATOM     18  C   UNL     1     -36.159  23.398   4.031  0.00  0.00    +0.160 C 
ATOM     19  C   UNL     1     -35.684  25.507   5.027  0.00  0.00    +0.197 C 
ATOM     20  C   UNL     1     -36.631  24.836   4.039  0.00  0.00    +0.084 C 
ATOM     21  C   UNL     1     -35.686  23.220   5.464  0.00  0.00    +0.174 C 
BRANCH  18  22
ATOM     22  O   UNL     1     -37.210  22.515   3.699  0.00  0.00    -0.273 OA
BRANCH  22  23
ATOM     23  P   UNL     1     -37.041  21.585   2.390  0.00  0.00    +0.473 P 
ATOM     24  O   UNL     1     -36.433  22.266   1.198  0.00  0.00    -0.227 OA
BRANCH  23  25
ATOM     25  O   UNL     1     -38.519  20.972   2.157  0.00  0.00    -0.303 OA
ATOM     26  H   UNL     1     -38.496  20.346   1.415  0.00  0.00    +0.222 HD
ENDBRANCH  23  25
BRANCH  23  27
ATOM     27  O   UNL     1     -36.201  20.325   2.958  0.00  0.00    -0.303 OA
ATOM     28  H   UNL     1     -36.460  19.522   2.480  0.00  0.00    +0.222 HD
ENDBRANCH  23  27
ENDBRANCH  22  23
ENDBRANCH  18  22
BRANCH  21  29
ATOM     29  C   UNL     1     -34.678  22.098   5.635  0.00  0.00    +0.169 C 
BRANCH  29  30
ATOM     30  O   UNL     1     -35.378  20.867   5.704  0.00  0.00    -0.379 OA
ATOM     31  H   UNL     1     -36.179  20.981   6.239  0.00  0.00    +0.211 HD
ENDBRANCH  29  30
ENDBRANCH  21  29
ENDBRANCH   1  19
BRANCH  16  32
ATOM     32  O   UNL     1     -26.945  31.297   5.183  0.00  0.00    -0.509 OA
ATOM     33  H   UNL     1     -26.676  31.912   5.837  0.00  0.00    +0.292 HD
ENDBRANCH  16  32
TORSDOF 8
ENDMDL
MODEL 2
REMARK VINA RESULT:      -6.6      3.109      8.696
REMARK  Name = 195691
REMARK  8 active torsions:
REMARK  status: ('A' for Active; 'I' for Inactive)
REMARK    1  A    between atoms: N_1  and  C_19
REMARK    2  A    between atoms: C_16  and  O_32
REMARK    3  A    between atoms: C_18  and  O_22
REMARK    4  A    between atoms: C_21  and  C_29
REMARK    5  A    between atoms: O_22  and  P_23
REMARK    6  A    between atoms: P_23  and  O_25
REMARK    7  A    between atoms: P_23  and  O_27
REMARK    8  A    between atoms: C_29  and  O_30
REMARK                            x       y       z     vdW  Elec       q    Type
REMARK                         _______ _______ _______ _____ _____    ______ ____
ROOT
ATOM      1  N   UNL     1     -32.847  28.999   3.741  0.00  0.00    -0.249 N 
ATOM      2  N   UNL     1     -34.160  25.358   4.520  0.00  0.00    -0.238 N 
ATOM      3  N   UNL     1     -33.456  27.852   1.912  0.00  0.00    -0.241 NA
ATOM      4  N   UNL     1     -33.307  27.358   5.479  0.00  0.00    -0.232 NA
ATOM      5  N   UNL     1     -34.524  24.947   2.346  0.00  0.00    -0.384 NA
ATOM      6  C   UNL     1     -33.268  27.779   4.186  0.00  0.00    +0.153 C 
ATOM      7  C   UNL     1     -33.632  27.111   3.035  0.00  0.00    +0.153 C 
ATOM      8  C   UNL     1     -32.977  28.993   2.371  0.00  0.00    +0.223 C 
ATOM      9  C   UNL     1     -34.104  25.826   3.221  0.00  0.00    +0.209 C 
ATOM     10  C   UNL     1     -34.654  24.077   4.470  0.00  0.00    +0.081 C 
ATOM     11  C   UNL     1     -33.760  26.137   5.623  0.00  0.00    +0.227 C 
ATOM     12  C   UNL     1     -34.872  23.848   3.106  0.00  0.00    +0.149 C 
ATOM     13  C   UNL     1     -34.926  23.121   5.452  0.00  0.00    -0.001 C 
ATOM     14  C   UNL     1     -35.385  22.606   2.695  0.00  0.00    +0.066 C 
ATOM     15  C   UNL     1     -35.437  21.893   5.021  0.00  0.00    +0.091 C 
ATOM     16  C   UNL     1     -35.664  21.638   3.667  0.00  0.00    +0.118 C 
ENDROOT
BRANCH   1  19
ATOM     17  O   UNL     1     -31.330  30.818   3.815  0.00  0.00    -0.335 OA
ATOM     18  C   UNL     1     -30.243  29.767   5.618  0.00  0.00    +0.160 C 
ATOM     19  C   UNL     1     -32.343  30.109   4.552  0.00  0.00    +0.197 C 
ATOM     20  C   UNL     1     -31.730  29.674   5.878  0.00  0.00    +0.084 C 
ATOM     21  C   UNL     1     -30.170  30.939   4.653  0.00  0.00    +0.174 C 
BRANCH  18  22
ATOM     22  O   UNL     1     -29.526  30.008   6.812  0.00  0.00    -0.273 OA
BRANCH  22  23
ATOM     23  P   UNL     1     -28.391  28.947   7.249  0.00  0.00    +0.473 P 
ATOM     24  O   UNL     1     -27.066  29.111   6.562  0.00  0.00    -0.227 OA
BRANCH  23  25
ATOM     25  O   UNL     1     -29.104  27.511   7.041  0.00  0.00    -0.303 OA
ATOM     26  H   UNL     1     -28.600  26.828   7.512  0.00  0.00    +0.222 HD
ENDBRANCH  23  25
BRANCH  23  27
ATOM     27  O   UNL     1     -28.352  29.113   8.857  0.00  0.00    -0.303 OA
ATOM     28  H   UNL     1     -28.703  28.311   9.274  0.00  0.00    +0.222 HD
ENDBRANCH  23  27
ENDBRANCH  22  23
ENDBRANCH  18  22
BRANCH  21  29
ATOM     29  C   UNL     1     -28.917  30.942   3.796  0.00  0.00    +0.169 C 
BRANCH  29  30
ATOM     30  O   UNL     1     -27.814  31.309   4.608  0.00  0.00    -0.379 OA
ATOM     31  H   UNL     1     -27.752  32.277   4.650  0.00  0.00    +0.211 HD
ENDBRANCH  29  30
ENDBRANCH  21  29
ENDBRANCH   1  19
BRANCH  16  32
ATOM     32  O   UNL     1     -36.163  20.428   3.284  0.00  0.00    -0.509 OA
ATOM     33  H   UNL     1     -36.549  19.858   3.919  0.00  0.00    +0.292 HD
ENDBRANCH  16  32
TORSDOF 8
ENDMDL
MODEL 3
REMARK VINA RESULT:      -6.5      2.233      3.769
REMARK  Name = 195691
REMARK  8 active torsions:
REMARK  status: ('A' for Active; 'I' for Inactive)
REMARK    1  A    between atoms: N_1  and  C_19
REMARK    2  A    between atoms: C_16  and  O_32
REMARK    3  A    between atoms: C_18  and  O_22
REMARK    4  A    between atoms: C_21  and  C_29
REMARK    5  A    between atoms: O_22  and  P_23
REMARK    6  A    between atoms: P_23  and  O_25
REMARK    7  A    between atoms: P_23  and  O_27
REMARK    8  A    between atoms: C_29  and  O_30
REMARK                            x       y       z     vdW  Elec       q    Type
REMARK                         _______ _______ _______ _____ _____    ______ ____
ROOT
ATOM      1  N   UNL     1     -36.385  24.884   2.794  0.00  0.00    -0.249 N 
ATOM      2  N   UNL     1     -33.227  27.011   3.840  0.00  0.00    -0.238 N 
ATOM      3  N   UNL     1     -36.210  25.207   5.007  0.00  0.00    -0.241 NA
ATOM      4  N   UNL     1     -34.413  26.074   2.006  0.00  0.00    -0.232 NA
ATOM      5  N   UNL     1     -33.765  26.875   6.012  0.00  0.00    -0.384 NA
ATOM      6  C   UNL     1     -35.254  25.627   2.978  0.00  0.00    +0.153 C 
ATOM      7  C   UNL     1     -35.186  25.801   4.344  0.00  0.00    +0.153 C 
ATOM      8  C   UNL     1     -36.922  24.658   4.041  0.00  0.00    +0.223 C 
ATOM      9  C   UNL     1     -34.106  26.537   4.794  0.00  0.00    +0.209 C 
ATOM     10  C   UNL     1     -32.245  27.706   4.502  0.00  0.00    +0.081 C 
ATOM     11  C   UNL     1     -33.401  26.769   2.464  0.00  0.00    +0.227 C 
ATOM     12  C   UNL     1     -32.604  27.606   5.851  0.00  0.00    +0.149 C 
ATOM     13  C   UNL     1     -31.107  28.396   4.071  0.00  0.00    -0.001 C 
ATOM     14  C   UNL     1     -31.795  28.219   6.823  0.00  0.00    +0.066 C 
ATOM     15  C   UNL     1     -30.317  28.999   5.054  0.00  0.00    +0.091 C 
ATOM     16  C   UNL     1     -30.653  28.914   6.406  0.00  0.00    +0.118 C 
ENDROOT
BRANCH   1  19
ATOM     17  O   UNL     1     -38.344  24.168   1.670  0.00  0.00    -0.335 OA
ATOM     18  C   UNL     1     -37.330  22.067   1.360  0.00  0.00    +0.160 C 
ATOM     19  C   UNL     1     -36.932  24.408   1.523  0.00  0.00    +0.197 C 
ATOM     20  C   UNL     1     -36.293  23.116   1.024  0.00  0.00    +0.084 C 
ATOM     21  C   UNL     1     -38.625  22.844   1.188  0.00  0.00    +0.174 C 
BRANCH  18  22
ATOM     22  O   UNL     1     -37.245  20.962   0.481  0.00  0.00    -0.273 OA
BRANCH  22  23
ATOM     23  P   UNL     1     -36.427  19.660   0.969  0.00  0.00    +0.473 P 
ATOM     24  O   UNL     1     -34.993  19.605   0.528  0.00  0.00    -0.227 OA
BRANCH  23  25
ATOM     25  O   UNL     1     -37.346  18.421   0.486  0.00  0.00    -0.303 OA
ATOM     26  H   UNL     1     -37.761  18.006   1.258  0.00  0.00    +0.222 HD
ENDBRANCH  23  25
BRANCH  23  27
ATOM     27  O   UNL     1     -36.647  19.684   2.571  0.00  0.00    -0.303 OA
ATOM     28  H   UNL     1     -35.790  19.781   3.015  0.00  0.00    +0.222 HD
ENDBRANCH  23  27
ENDBRANCH  22  23
ENDBRANCH  18  22
BRANCH  21  29
ATOM     29  C   UNL     1     -39.792  22.255   1.959  0.00  0.00    +0.169 C 
BRANCH  29  30
ATOM     30  O   UNL     1     -39.516  20.890   2.226  0.00  0.00    -0.379 OA
ATOM     31  H   UNL     1     -40.296  20.355   2.014  0.00  0.00    +0.211 HD
ENDBRANCH  29  30
ENDBRANCH  21  29
ENDBRANCH   1  19
BRANCH  16  32
ATOM     32  O   UNL     1     -29.859  29.515   7.336  0.00  0.00    -0.509 OA
ATOM     33  H   UNL     1     -29.488  30.358   7.162  0.00  0.00    +0.292 HD
ENDBRANCH  16  32
TORSDOF 8
ENDMDL
MODEL 4
REMARK VINA RESULT:      -6.4      6.167      9.198
REMARK  Name = 195691
REMARK  8 active torsions:
REMARK  status: ('A' for Active; 'I' for Inactive)
REMARK    1  A    between atoms: N_1  and  C_19
REMARK    2  A    between atoms: C_16  and  O_32
REMARK    3  A    between atoms: C_18  and  O_22
REMARK    4  A    between atoms: C_21  and  C_29
REMARK    5  A    between atoms: O_22  and  P_23
REMARK    6  A    between atoms: P_23  and  O_25
REMARK    7  A    between atoms: P_23  and  O_27
REMARK    8  A    between atoms: C_29  and  O_30
REMARK                            x       y       z     vdW  Elec       q    Type
REMARK                         _______ _______ _______ _____ _____    ______ ____
ROOT
ATOM      1  N   UNL     1     -37.233  19.164   0.057  0.00  0.00    -0.249 N 
ATOM      2  N   UNL     1     -36.122  21.854   2.725  0.00  0.00    -0.238 N 
ATOM      3  N   UNL     1     -38.643  20.901   0.225  0.00  0.00    -0.241 NA
ATOM      4  N   UNL     1     -35.556  19.781   1.709  0.00  0.00    -0.232 NA
ATOM      5  N   UNL     1     -37.914  23.129   2.291  0.00  0.00    -0.384 NA
ATOM      6  C   UNL     1     -36.706  19.986   1.011  0.00  0.00    +0.153 C 
ATOM      7  C   UNL     1     -37.599  21.034   1.081  0.00  0.00    +0.153 C 
ATOM      8  C   UNL     1     -38.395  19.756  -0.383  0.00  0.00    +0.223 C 
ATOM      9  C   UNL     1     -37.281  22.022   1.993  0.00  0.00    +0.209 C 
ATOM     10  C   UNL     1     -36.005  22.940   3.557  0.00  0.00    +0.081 C 
ATOM     11  C   UNL     1     -35.282  20.734   2.565  0.00  0.00    +0.227 C 
ATOM     12  C   UNL     1     -37.132  23.717   3.267  0.00  0.00    +0.149 C 
ATOM     13  C   UNL     1     -35.052  23.314   4.510  0.00  0.00    -0.001 C 
ATOM     14  C   UNL     1     -37.327  24.926   3.957  0.00  0.00    +0.066 C 
ATOM     15  C   UNL     1     -35.265  24.520   5.184  0.00  0.00    +0.091 C 
ATOM     16  C   UNL     1     -36.381  25.314   4.914  0.00  0.00    +0.118 C 
ENDROOT
BRANCH   1  19
ATOM     17  O   UNL     1     -36.791  17.827  -1.849  0.00  0.00    -0.335 OA
ATOM     18  C   UNL     1     -38.268  16.210  -0.988  0.00  0.00    +0.160 C 
ATOM     19  C   UNL     1     -36.685  17.892  -0.414  0.00  0.00    +0.197 C 
ATOM     20  C   UNL     1     -37.391  16.667   0.156  0.00  0.00    +0.084 C 
ATOM     21  C   UNL     1     -37.423  16.584  -2.195  0.00  0.00    +0.174 C 
BRANCH  18  22
ATOM     22  O   UNL     1     -38.520  14.821  -0.919  0.00  0.00    -0.273 OA
BRANCH  22  23
ATOM     23  P   UNL     1     -40.044  14.331  -0.713  0.00  0.00    +0.473 P 
ATOM     24  O   UNL     1     -40.254  13.354   0.408  0.00  0.00    -0.227 OA
BRANCH  23  25
ATOM     25  O   UNL     1     -40.483  13.806  -2.178  0.00  0.00    -0.303 OA
ATOM     26  H   UNL     1     -40.125  14.401  -2.855  0.00  0.00    +0.222 HD
ENDBRANCH  23  25
BRANCH  23  27
ATOM     27  O   UNL     1     -40.846  15.726  -0.562  0.00  0.00    -0.303 OA
ATOM     28  H   UNL     1     -40.693  16.094   0.322  0.00  0.00    +0.222 HD
ENDBRANCH  23  27
ENDBRANCH  22  23
ENDBRANCH  18  22
BRANCH  21  29
ATOM     29  C   UNL     1     -38.228  16.756  -3.470  0.00  0.00    +0.169 C 
BRANCH  29  30
ATOM     30  O   UNL     1     -39.607  16.671  -3.149  0.00  0.00    -0.379 OA
ATOM     31  H   UNL     1     -40.054  17.485  -3.429  0.00  0.00    +0.211 HD
ENDBRANCH  29  30
ENDBRANCH  21  29
ENDBRANCH   1  19
BRANCH  16  32
ATOM     32  O   UNL     1     -36.556  26.484   5.591  0.00  0.00    -0.509 OA
ATOM     33  H   UNL     1     -37.302  27.022   5.413  0.00  0.00    +0.292 HD
ENDBRANCH  16  32
TORSDOF 8
ENDMDL
MODEL 5
REMARK VINA RESULT:      -6.3      5.298      9.539
REMARK  Name = 195691
REMARK  8 active torsions:
REMARK  status: ('A' for Active; 'I' for Inactive)
REMARK    1  A    between atoms: N_1  and  C_19
REMARK    2  A    between atoms: C_16  and  O_32
REMARK    3  A    between atoms: C_18  and  O_22
REMARK    4  A    between atoms: C_21  and  C_29
REMARK    5  A    between atoms: O_22  and  P_23
REMARK    6  A    between atoms: P_23  and  O_25
REMARK    7  A    between atoms: P_23  and  O_27
REMARK    8  A    between atoms: C_29  and  O_30
REMARK                            x       y       z     vdW  Elec       q    Type
REMARK                         _______ _______ _______ _____ _____    ______ ____
ROOT
ATOM      1  N   UNL     1     -37.191  22.683   3.008  0.00  0.00    -0.249 N 
ATOM      2  N   UNL     1     -40.302  25.047   2.440  0.00  0.00    -0.238 N 
ATOM      3  N   UNL     1     -38.655  21.898   1.499  0.00  0.00    -0.241 NA
ATOM      4  N   UNL     1     -38.270  24.771   3.641  0.00  0.00    -0.232 NA
ATOM      5  N   UNL     1     -41.179  23.649   0.924  0.00  0.00    -0.384 NA
ATOM      6  C   UNL     1     -38.191  23.610   2.936  0.00  0.00    +0.153 C 
ATOM      7  C   UNL     1     -39.063  23.090   2.002  0.00  0.00    +0.153 C 
ATOM      8  C   UNL     1     -37.516  21.675   2.128  0.00  0.00    +0.223 C 
ATOM      9  C   UNL     1     -40.181  23.860   1.745  0.00  0.00    +0.209 C 
ATOM     10  C   UNL     1     -41.471  25.641   2.031  0.00  0.00    +0.081 C 
ATOM     11  C   UNL     1     -39.341  25.477   3.375  0.00  0.00    +0.227 C 
ATOM     12  C   UNL     1     -41.996  24.750   1.088  0.00  0.00    +0.149 C 
ATOM     13  C   UNL     1     -42.107  26.837   2.380  0.00  0.00    -0.001 C 
ATOM     14  C   UNL     1     -43.214  25.059   0.459  0.00  0.00    +0.066 C 
ATOM     15  C   UNL     1     -43.317  27.124   1.741  0.00  0.00    +0.091 C 
ATOM     16  C   UNL     1     -43.863  26.252   0.798  0.00  0.00    +0.118 C 
ENDROOT
BRANCH   1  19
ATOM     17  O   UNL     1     -36.311  23.430   5.077  0.00  0.00    -0.335 OA
ATOM     18  C   UNL     1     -34.810  24.793   3.883  0.00  0.00    +0.160 C 
ATOM     19  C   UNL     1     -36.000  22.732   3.857  0.00  0.00    +0.197 C 
ATOM     20  C   UNL     1     -34.813  23.437   3.211  0.00  0.00    +0.084 C 
ATOM     21  C   UNL     1     -35.320  24.451   5.273  0.00  0.00    +0.174 C 
BRANCH  18  22
ATOM     22  O   UNL     1     -33.511  25.350   3.908  0.00  0.00    -0.273 OA
BRANCH  22  23
ATOM     23  P   UNL     1     -33.318  26.861   3.374  0.00  0.00    +0.473 P 
ATOM     24  O   UNL     1     -32.092  27.090   2.538  0.00  0.00    -0.227 OA
BRANCH  23  25
ATOM     25  O   UNL     1     -33.419  27.761   4.713  0.00  0.00    -0.303 OA
ATOM     26  H   UNL     1     -33.849  28.605   4.503  0.00  0.00    +0.222 HD
ENDBRANCH  23  25
BRANCH  23  27
ATOM     27  O   UNL     1     -34.720  27.152   2.623  0.00  0.00    -0.303 OA
ATOM     28  H   UNL     1     -35.268  27.731   3.174  0.00  0.00    +0.222 HD
ENDBRANCH  23  27
ENDBRANCH  22  23
ENDBRANCH  18  22
BRANCH  21  29
ATOM     29  C   UNL     1     -35.937  25.632   5.999  0.00  0.00    +0.169 C 
BRANCH  29  30
ATOM     30  O   UNL     1     -36.280  26.622   5.044  0.00  0.00    -0.379 OA
ATOM     31  H   UNL     1     -35.970  27.489   5.352  0.00  0.00    +0.211 HD
ENDBRANCH  29  30
ENDBRANCH  21  29
ENDBRANCH   1  19
BRANCH  16  32
ATOM     32  O   UNL     1     -45.045  26.566   0.195  0.00  0.00    -0.509 OA
ATOM     33  H   UNL     1     -45.084  27.269  -0.423  0.00  0.00    +0.292 HD
ENDBRANCH  16  32
TORSDOF 8
ENDMDL
MODEL 6
REMARK VINA RESULT:      -6.2      1.370      1.608
REMARK  Name = 195691
REMARK  8 active torsions:
REMARK  status: ('A' for Active; 'I' for Inactive)
REMARK    1  A    between atoms: N_1  and  C_19
REMARK    2  A    between atoms: C_16  and  O_32
REMARK    3  A    between atoms: C_18  and  O_22
REMARK    4  A    between atoms: C_21  and  C_29
REMARK    5  A    between atoms: O_22  and  P_23
REMARK    6  A    between atoms: P_23  and  O_25
REMARK    7  A    between atoms: P_23  and  O_27
REMARK    8  A    between atoms: C_29  and  O_30
REMARK                            x       y       z     vdW  Elec       q    Type
REMARK                         _______ _______ _______ _____ _____    ______ ____
ROOT
ATOM      1  N   UNL     1     -35.395  25.925   4.012  0.00  0.00    -0.249 N 
ATOM      2  N   UNL     1     -32.316  28.070   5.241  0.00  0.00    -0.238 N 
ATOM      3  N   UNL     1     -34.633  27.370   2.474  0.00  0.00    -0.241 NA
ATOM      4  N   UNL     1     -33.869  26.377   5.853  0.00  0.00    -0.232 NA
ATOM      5  N   UNL     1     -32.193  29.149   3.280  0.00  0.00    -0.384 NA
ATOM      6  C   UNL     1     -34.346  26.576   4.595  0.00  0.00    +0.153 C 
ATOM      7  C   UNL     1     -33.910  27.449   3.620  0.00  0.00    +0.153 C 
ATOM      8  C   UNL     1     -35.528  26.438   2.741  0.00  0.00    +0.223 C 
ATOM      9  C   UNL     1     -32.831  28.238   3.971  0.00  0.00    +0.209 C 
ATOM     10  C   UNL     1     -31.264  28.943   5.372  0.00  0.00    +0.081 C 
ATOM     11  C   UNL     1     -32.847  27.140   6.156  0.00  0.00    +0.227 C 
ATOM     12  C   UNL     1     -31.210  29.601   4.139  0.00  0.00    +0.149 C 
ATOM     13  C   UNL     1     -30.377  29.218   6.418  0.00  0.00    -0.001 C 
ATOM     14  C   UNL     1     -30.226  30.582   3.929  0.00  0.00    +0.066 C 
ATOM     15  C   UNL     1     -29.406  30.197   6.187  0.00  0.00    +0.091 C 
ATOM     16  C   UNL     1     -29.329  30.868   4.966  0.00  0.00    +0.118 C 
ENDROOT
BRANCH   1  19
ATOM     17  O   UNL     1     -35.513  23.638   4.618  0.00  0.00    -0.335 OA
ATOM     18  C   UNL     1     -37.294  23.385   3.100  0.00  0.00    +0.160 C 
ATOM     19  C   UNL     1     -36.232  24.885   4.612  0.00  0.00    +0.197 C 
ATOM     20  C   UNL     1     -37.549  24.656   3.880  0.00  0.00    +0.084 C 
ATOM     21  C   UNL     1     -36.357  22.634   4.030  0.00  0.00    +0.174 C 
BRANCH  18  22
ATOM     22  O   UNL     1     -38.495  22.679   2.861  0.00  0.00    -0.273 OA
BRANCH  22  23
ATOM     23  P   UNL     1     -38.902  22.360   1.332  0.00  0.00    +0.473 P 
ATOM     24  O   UNL     1     -38.151  23.143   0.295  0.00  0.00    -0.227 OA
BRANCH  23  25
ATOM     25  O   UNL     1     -40.508  22.548   1.312  0.00  0.00    -0.303 OA
ATOM     26  H   UNL     1     -40.731  23.367   0.841  0.00  0.00    +0.222 HD
ENDBRANCH  23  25
BRANCH  23  27
ATOM     27  O   UNL     1     -38.715  20.756   1.245  0.00  0.00    -0.303 OA
ATOM     28  H   UNL     1     -38.116  20.539   0.513  0.00  0.00    +0.222 HD
ENDBRANCH  23  27
ENDBRANCH  22  23
ENDBRANCH  18  22
BRANCH  21  29
ATOM     29  C   UNL     1     -35.503  21.597   3.323  0.00  0.00    +0.169 C 
BRANCH  29  30
ATOM     30  O   UNL     1     -36.300  20.453   3.065  0.00  0.00    -0.379 OA
ATOM     31  H   UNL     1     -35.864  19.899   2.400  0.00  0.00    +0.211 HD
ENDBRANCH  29  30
ENDBRANCH  21  29
ENDBRANCH   1  19
BRANCH  16  32
ATOM     32  O   UNL     1     -28.369  31.818   4.778  0.00  0.00    -0.509 OA
ATOM     33  H   UNL     1     -27.463  31.585   4.832  0.00  0.00    +0.292 HD
ENDBRANCH  16  32
TORSDOF 8
ENDMDL
MODEL 7
REMARK VINA RESULT:      -6.0      2.182      3.471
REMARK  Name = 195691
REMARK  8 active torsions:
REMARK  status: ('A' for Active; 'I' for Inactive)
REMARK    1  A    between atoms: N_1  and  C_19
REMARK    2  A    between atoms: C_16  and  O_32
REMARK    3  A    between atoms: C_18  and  O_22
REMARK    4  A    between atoms: C_21  and  C_29
REMARK    5  A    between atoms: O_22  and  P_23
REMARK    6  A    between atoms: P_23  and  O_25
REMARK    7  A    between atoms: P_23  and  O_27
REMARK    8  A    between atoms: C_29  and  O_30
REMARK                            x       y       z     vdW  Elec       q    Type
REMARK                         _______ _______ _______ _____ _____    ______ ____
ROOT
ATOM      1  N   UNL     1     -36.080  26.111   3.303  0.00  0.00    -0.249 N 
ATOM      2  N   UNL     1     -32.878  28.295   4.062  0.00  0.00    -0.238 N 
ATOM      3  N   UNL     1     -35.075  25.593   5.240  0.00  0.00    -0.241 NA
ATOM      4  N   UNL     1     -34.634  27.902   2.509  0.00  0.00    -0.232 NA
ATOM      5  N   UNL     1     -32.523  27.228   6.001  0.00  0.00    -0.384 NA
ATOM      6  C   UNL     1     -35.006  26.949   3.406  0.00  0.00    +0.153 C 
ATOM      7  C   UNL     1     -34.422  26.598   4.605  0.00  0.00    +0.153 C 
ATOM      8  C   UNL     1     -36.077  25.317   4.427  0.00  0.00    +0.223 C 
ATOM      9  C   UNL     1     -33.292  27.318   4.945  0.00  0.00    +0.209 C 
ATOM     10  C   UNL     1     -31.754  28.876   4.595  0.00  0.00    +0.081 C 
ATOM     11  C   UNL     1     -33.561  28.566   2.860  0.00  0.00    +0.227 C 
ATOM     12  C   UNL     1     -31.555  28.194   5.801  0.00  0.00    +0.149 C 
ATOM     13  C   UNL     1     -30.912  29.903   4.157  0.00  0.00    -0.001 C 
ATOM     14  C   UNL     1     -30.466  28.546   6.615  0.00  0.00    +0.066 C 
ATOM     15  C   UNL     1     -29.834  30.237   4.983  0.00  0.00    +0.091 C 
ATOM     16  C   UNL     1     -29.613  29.573   6.191  0.00  0.00    +0.118 C 
ENDROOT
BRANCH   1  19
ATOM     17  O   UNL     1     -38.342  26.466   2.696  0.00  0.00    -0.335 OA
ATOM     18  C   UNL     1     -38.511  24.172   2.199  0.00  0.00    +0.160 C 
ATOM     19  C   UNL     1     -37.052  26.052   2.210  0.00  0.00    +0.197 C 
ATOM     20  C   UNL     1     -37.211  24.663   1.602  0.00  0.00    +0.084 C 
ATOM     21  C   UNL     1     -39.302  25.463   2.325  0.00  0.00    +0.174 C 
BRANCH  18  22
ATOM     22  O   UNL     1     -39.143  23.234   1.351  0.00  0.00    -0.273 OA
BRANCH  22  23
ATOM     23  P   UNL     1     -38.814  21.668   1.565  0.00  0.00    +0.473 P 
ATOM     24  O   UNL     1     -38.312  20.950   0.346  0.00  0.00    -0.227 OA
BRANCH  23  25
ATOM     25  O   UNL     1     -40.173  21.072   2.207  0.00  0.00    -0.303 OA
ATOM     26  H   UNL     1     -40.939  21.413   1.719  0.00  0.00    +0.222 HD
ENDBRANCH  23  25
BRANCH  23  27
ATOM     27  O   UNL     1     -37.789  21.690   2.815  0.00  0.00    -0.303 OA
ATOM     28  H   UNL     1     -36.931  21.333   2.537  0.00  0.00    +0.222 HD
ENDBRANCH  23  27
ENDBRANCH  22  23
ENDBRANCH  18  22
BRANCH  21  29
ATOM     29  C   UNL     1     -40.405  25.399   3.365  0.00  0.00    +0.169 C 
BRANCH  29  30
ATOM     30  O   UNL     1     -40.694  26.718   3.800  0.00  0.00    -0.379 OA
ATOM     31  H   UNL     1     -41.491  26.708   4.352  0.00  0.00    +0.211 HD
ENDBRANCH  29  30
ENDBRANCH  21  29
ENDBRANCH   1  19
BRANCH  16  32
ATOM     32  O   UNL     1     -28.552  29.927   6.970  0.00  0.00    -0.509 OA
ATOM     33  H   UNL     1     -27.844  30.419   6.603  0.00  0.00    +0.292 HD
ENDBRANCH  16  32
TORSDOF 8
ENDMDL
MODEL 8
REMARK VINA RESULT:      -5.9      5.691      8.908
REMARK  Name = 195691
REMARK  8 active torsions:
REMARK  status: ('A' for Active; 'I' for Inactive)
REMARK    1  A    between atoms: N_1  and  C_19
REMARK    2  A    between atoms: C_16  and  O_32
REMARK    3  A    between atoms: C_18  and  O_22
REMARK    4  A    between atoms: C_21  and  C_29
REMARK    5  A    between atoms: O_22  and  P_23
REMARK    6  A    between atoms: P_23  and  O_25
REMARK    7  A    between atoms: P_23  and  O_27
REMARK    8  A    between atoms: C_29  and  O_30
REMARK                            x       y       z     vdW  Elec       q    Type
REMARK                         _______ _______ _______ _____ _____    ______ ____
ROOT
ATOM      1  N   UNL     1     -34.841  28.814   1.720  0.00  0.00    -0.249 N 
ATOM      2  N   UNL     1     -35.299  24.992   2.603  0.00  0.00    -0.238 N 
ATOM      3  N   UNL     1     -34.338  28.315   3.848  0.00  0.00    -0.241 NA
ATOM      4  N   UNL     1     -35.481  26.620   0.880  0.00  0.00    -0.232 NA
ATOM      5  N   UNL     1     -34.642  25.328   4.719  0.00  0.00    -0.384 NA
ATOM      6  C   UNL     1     -35.053  27.471   1.852  0.00  0.00    +0.153 C 
ATOM      7  C   UNL     1     -34.732  27.210   3.168  0.00  0.00    +0.153 C 
ATOM      8  C   UNL     1     -34.414  29.274   2.946  0.00  0.00    +0.223 C 
ATOM      9  C   UNL     1     -34.866  25.890   3.558  0.00  0.00    +0.209 C 
ATOM     10  C   UNL     1     -35.357  23.758   3.201  0.00  0.00    +0.081 C 
ATOM     11  C   UNL     1     -35.597  25.378   1.281  0.00  0.00    +0.227 C 
ATOM     12  C   UNL     1     -34.943  23.996   4.517  0.00  0.00    +0.149 C 
ATOM     13  C   UNL     1     -35.720  22.489   2.739  0.00  0.00    -0.001 C 
ATOM     14  C   UNL     1     -34.886  22.922   5.422  0.00  0.00    +0.066 C 
ATOM     15  C   UNL     1     -35.655  21.435   3.656  0.00  0.00    +0.091 C 
ATOM     16  C   UNL     1     -35.246  21.645   4.973  0.00  0.00    +0.118 C 
ENDROOT
BRANCH   1  19
ATOM     17  O   UNL     1     -34.315  30.864   0.656  0.00  0.00    -0.335 OA
ATOM     18  C   UNL     1     -36.606  31.402   0.683  0.00  0.00    +0.160 C 
ATOM     19  C   UNL     1     -35.033  29.624   0.517  0.00  0.00    +0.197 C 
ATOM     20  C   UNL     1     -36.491  29.963   0.228  0.00  0.00    +0.084 C 
ATOM     21  C   UNL     1     -35.222  31.940   0.363  0.00  0.00    +0.174 C 
BRANCH  18  22
ATOM     22  O   UNL     1     -37.624  32.083  -0.023  0.00  0.00    -0.273 OA
BRANCH  22  23
ATOM     23  P   UNL     1     -38.913  32.596   0.802  0.00  0.00    +0.473 P 
ATOM     24  O   UNL     1     -39.976  31.561   1.034  0.00  0.00    -0.227 OA
BRANCH  23  25
ATOM     25  O   UNL     1     -39.393  33.909  -0.009  0.00  0.00    -0.303 OA
ATOM     26  H   UNL     1     -40.319  34.103   0.209  0.00  0.00    +0.222 HD
ENDBRANCH  23  25
BRANCH  23  27
ATOM     27  O   UNL     1     -38.252  33.208   2.145  0.00  0.00    -0.303 OA
ATOM     28  H   UNL     1     -38.849  33.870   2.527  0.00  0.00    +0.222 HD
ENDBRANCH  23  27
ENDBRANCH  22  23
ENDBRANCH  18  22
BRANCH  21  29
ATOM     29  C   UNL     1     -34.844  33.164   1.178  0.00  0.00    +0.169 C 
BRANCH  29  30
ATOM     30  O   UNL     1     -35.685  34.239   0.794  0.00  0.00    -0.379 OA
ATOM     31  H   UNL     1     -35.661  34.927   1.478  0.00  0.00    +0.211 HD
ENDBRANCH  29  30
ENDBRANCH  21  29
ENDBRANCH   1  19
BRANCH  16  32
ATOM     32  O   UNL     1     -35.196  20.593   5.839  0.00  0.00    -0.509 OA
ATOM     33  H   UNL     1     -35.885  19.958   5.846  0.00  0.00    +0.292 HD
ENDBRANCH  16  32
TORSDOF 8
ENDMDL
MODEL 9
REMARK VINA RESULT:      -5.8      2.010      2.629
REMARK  Name = 195691
REMARK  8 active torsions:
REMARK  status: ('A' for Active; 'I' for Inactive)
REMARK    1  A    between atoms: N_1  and  C_19
REMARK    2  A    between atoms: C_16  and  O_32
REMARK    3  A    between atoms: C_18  and  O_22
REMARK    4  A    between atoms: C_21  and  C_29
REMARK    5  A    between atoms: O_22  and  P_23
REMARK    6  A    between atoms: P_23  and  O_25
REMARK    7  A    between atoms: P_23  and  O_27
REMARK    8  A    between atoms: C_29  and  O_30
REMARK                            x       y       z     vdW  Elec       q    Type
REMARK                         _______ _______ _______ _____ _____    ______ ____
ROOT
ATOM      1  N   UNL     1     -33.411  26.353   4.207  0.00  0.00    -0.249 N 
ATOM      2  N   UNL     1     -31.053  29.518   4.350  0.00  0.00    -0.238 N 
ATOM      3  N   UNL     1     -32.262  26.706   2.313  0.00  0.00    -0.241 NA
ATOM      4  N   UNL     1     -32.620  28.210   5.568  0.00  0.00    -0.232 NA
ATOM      5  N   UNL     1     -30.342  29.172   2.253  0.00  0.00    -0.384 NA
ATOM      6  C   UNL     1     -32.658  27.471   4.426  0.00  0.00    +0.153 C 
ATOM      7  C   UNL     1     -31.972  27.650   3.243  0.00  0.00    +0.153 C 
ATOM      8  C   UNL     1     -33.139  25.933   2.925  0.00  0.00    +0.223 C 
ATOM      9  C   UNL     1     -31.121  28.739   3.212  0.00  0.00    +0.209 C 
ATOM     10  C   UNL     1     -30.159  30.529   4.098  0.00  0.00    +0.081 C 
ATOM     11  C   UNL     1     -31.806  29.235   5.506  0.00  0.00    +0.227 C 
ATOM     12  C   UNL     1     -29.732  30.290   2.787  0.00  0.00    +0.149 C 
ATOM     13  C   UNL     1     -29.692  31.602   4.863  0.00  0.00    -0.001 C 
ATOM     14  C   UNL     1     -28.794  31.158   2.203  0.00  0.00    +0.066 C 
ATOM     15  C   UNL     1     -28.759  32.453   4.263  0.00  0.00    +0.091 C 
ATOM     16  C   UNL     1     -28.316  32.237   2.957  0.00  0.00    +0.118 C 
ENDROOT
BRANCH   1  19
ATOM     17  O   UNL     1     -34.238  24.285   5.015  0.00  0.00    -0.335 OA
ATOM     18  C   UNL     1     -36.367  24.888   4.214  0.00  0.00    +0.160 C 
ATOM     19  C   UNL     1     -34.338  25.716   5.142  0.00  0.00    +0.197 C 
ATOM     20  C   UNL     1     -35.797  26.099   4.920  0.00  0.00    +0.084 C 
ATOM     21  C   UNL     1     -35.563  23.759   4.837  0.00  0.00    +0.174 C 
BRANCH  18  22
ATOM     22  O   UNL     1     -37.754  24.758   4.457  0.00  0.00    -0.273 OA
BRANCH  22  23
ATOM     23  P   UNL     1     -38.767  24.929   3.212  0.00  0.00    +0.473 P 
ATOM     24  O   UNL     1     -40.087  24.231   3.363  0.00  0.00    -0.227 OA
BRANCH  23  25
ATOM     25  O   UNL     1     -37.887  24.477   1.933  0.00  0.00    -0.303 OA
ATOM     26  H   UNL     1     -37.899  25.182   1.267  0.00  0.00    +0.222 HD
ENDBRANCH  23  25
BRANCH  23  27
ATOM     27  O   UNL     1     -38.859  26.535   3.051  0.00  0.00    -0.303 OA
ATOM     28  H   UNL     1     -38.321  26.816   2.294  0.00  0.00    +0.222 HD
ENDBRANCH  23  27
ENDBRANCH  22  23
ENDBRANCH  18  22
BRANCH  21  29
ATOM     29  C   UNL     1     -35.506  22.509   3.977  0.00  0.00    +0.169 C 
BRANCH  29  30
ATOM     30  O   UNL     1     -36.830  22.055   3.750  0.00  0.00    -0.379 OA
ATOM     31  H   UNL     1     -37.230  22.572   3.034  0.00  0.00    +0.211 HD
ENDBRANCH  29  30
ENDBRANCH  21  29
ENDBRANCH   1  19
BRANCH  16  32
ATOM     32  O   UNL     1     -27.405  33.088   2.405  0.00  0.00    -0.509 OA
ATOM     33  H   UNL     1     -27.201  33.897   2.831  0.00  0.00    +0.292 HD
ENDBRANCH  16  32
TORSDOF 8
ENDMDL
