MODEL 1
REMARK VINA RESULT:      -7.0      0.000      0.000
REMARK  Name = 5915220
REMARK  4 active torsions:
REMARK  status: ('A' for Active; 'I' for Inactive)
REMARK    1  A    between atoms: C_5  and  O_18
REMARK    2  A    between atoms: C_7  and  C_22
REMARK    3  A    between atoms: C_12  and  O_20
REMARK    4  A    between atoms: C_23  and  C_26
REMARK                            x       y       z     vdW  Elec       q    Type
REMARK                         _______ _______ _______ _____ _____    ______ ____
ROOT
ATOM      1  O   UNL     1     -38.375  26.095   3.696  0.00  0.00    -0.270 OA
ATOM      2  N   UNL     1     -36.286  25.135   3.821  0.00  0.00    -0.251 N 
ATOM      3  N   UNL     1     -36.895  22.137   3.511  0.00  0.00    -0.308 N 
ATOM      4  C   UNL     1     -35.321  24.047   3.600  0.00  0.00    +0.131 C 
ATOM      5  C   UNL     1     -35.824  22.762   4.253  0.00  0.00    +0.208 C 
ATOM      6  C   UNL     1     -34.007  24.559   4.234  0.00  0.00    +0.052 C 
ATOM      7  C   UNL     1     -34.407  25.883   4.806  0.00  0.00    -0.005 C 
ATOM      8  C   UNL     1     -35.688  26.145   4.538  0.00  0.00    +0.064 C 
ATOM      9  C   UNL     1     -37.604  25.177   3.410  0.00  0.00    +0.254 C 
ATOM     10  C   UNL     1     -37.822  22.715   2.666  0.00  0.00    +0.085 C 
ATOM     11  C   UNL     1     -38.130  24.082   2.547  0.00  0.00    +0.070 C 
ATOM     12  C   UNL     1     -38.500  21.826   1.796  0.00  0.00    +0.143 C 
ATOM     13  C   UNL     1     -39.074  24.510   1.587  0.00  0.00    +0.006 C 
ATOM     14  C   UNL     1     -39.431  22.257   0.852  0.00  0.00    +0.013 C 
ATOM     15  C   UNL     1     -39.717  23.607   0.745  0.00  0.00    -0.001 C 
ATOM     16  C   UNL     1     -40.123  21.288  -0.049  0.00  0.00    +0.034 C 
ATOM     17  H   UNL     1     -36.974  21.162   3.622  0.00  0.00    +0.149 HD
ENDROOT
BRANCH   5  18
ATOM     18  O   UNL     1     -36.194  22.965   5.613  0.00  0.00    -0.334 OA
ATOM     19  C   UNL     1     -35.512  22.068   6.476  0.00  0.00    +0.176 C 
ENDBRANCH   5  18
BRANCH  12  20
ATOM     20  O   UNL     1     -38.231  20.482   1.872  0.00  0.00    -0.505 OA
ATOM     21  H   UNL     1     -38.637  19.959   2.535  0.00  0.00    +0.292 HD
ENDBRANCH  12  20
BRANCH   7  22
ATOM     22  C   UNL     1     -33.497  26.714   5.527  0.00  0.00    +0.002 C 
ATOM     23  C   UNL     1     -32.719  27.639   4.940  0.00  0.00    +0.057 C 
BRANCH  23  26
ATOM     24  O   UNL     1     -30.781  28.027   6.283  0.00  0.00    -0.270 OA
ATOM     25  N   UNL     1     -32.207  29.779   5.848  0.00  0.00    -0.325 N 
ATOM     26  C   UNL     1     -31.795  28.469   5.756  0.00  0.00    +0.243 C 
ATOM     27  H   UNL     1     -31.676  30.427   6.363  0.00  0.00    +0.145 HD
ATOM     28  H   UNL     1     -33.035  30.067   5.398  0.00  0.00    +0.145 HD
ENDBRANCH  23  26
ENDBRANCH   7  22
TORSDOF 4
ENDMDL
MODEL 2
REMARK VINA RESULT:      -6.6      2.171      2.949
REMARK  Name = 5915220
REMARK  4 active torsions:
REMARK  status: ('A' for Active; 'I' for Inactive)
REMARK    1  A    between atoms: C_5  and  O_18
REMARK    2  A    between atoms: C_7  and  C_22
REMARK    3  A    between atoms: C_12  and  O_20
REMARK    4  A    between atoms: C_23  and  C_26
REMARK                            x       y       z     vdW  Elec       q    Type
REMARK                         _______ _______ _______ _____ _____    ______ ____
ROOT
ATOM      1  O   UNL     1     -33.875  24.496   1.137  0.00  0.00    -0.270 OA
ATOM      2  N   UNL     1     -34.512  24.461   3.350  0.00  0.00    -0.251 N 
ATOM      3  N   UNL     1     -37.214  22.998   3.257  0.00  0.00    -0.308 N 
ATOM      4  C   UNL     1     -35.288  23.948   4.489  0.00  0.00    +0.131 C 
ATOM      5  C   UNL     1     -36.780  24.022   4.180  0.00  0.00    +0.208 C 
ATOM      6  C   UNL     1     -34.882  24.853   5.675  0.00  0.00    +0.052 C 
ATOM      7  C   UNL     1     -33.947  25.835   5.040  0.00  0.00    -0.005 C 
ATOM      8  C   UNL     1     -33.782  25.559   3.744  0.00  0.00    +0.064 C 
ATOM      9  C   UNL     1     -34.497  23.967   2.060  0.00  0.00    +0.254 C 
ATOM     10  C   UNL     1     -36.491  22.342   2.281  0.00  0.00    +0.085 C 
ATOM     11  C   UNL     1     -35.239  22.711   1.756  0.00  0.00    +0.070 C 
ATOM     12  C   UNL     1     -37.063  21.141   1.794  0.00  0.00    +0.143 C 
ATOM     13  C   UNL     1     -34.610  21.891   0.793  0.00  0.00    +0.006 C 
ATOM     14  C   UNL     1     -36.435  20.339   0.841  0.00  0.00    +0.013 C 
ATOM     15  C   UNL     1     -35.201  20.714   0.341  0.00  0.00    -0.001 C 
ATOM     16  C   UNL     1     -37.070  19.078   0.355  0.00  0.00    +0.034 C 
ATOM     17  H   UNL     1     -38.158  22.730   3.335  0.00  0.00    +0.149 HD
ENDROOT
BRANCH   5  18
ATOM     18  O   UNL     1     -37.168  25.316   3.729  0.00  0.00    -0.334 OA
ATOM     19  C   UNL     1     -38.492  25.312   3.217  0.00  0.00    +0.176 C 
ENDBRANCH   5  18
BRANCH  12  20
ATOM     20  O   UNL     1     -38.283  20.737   2.277  0.00  0.00    -0.505 OA
ATOM     21  H   UNL     1     -39.071  21.093   1.918  0.00  0.00    +0.292 HD
ENDBRANCH  12  20
BRANCH   7  22
ATOM     22  C   UNL     1     -33.340  26.899   5.770  0.00  0.00    +0.002 C 
ATOM     23  C   UNL     1     -32.448  27.749   5.233  0.00  0.00    +0.057 C 
BRANCH  23  26
ATOM     24  O   UNL     1     -32.285  29.985   6.064  0.00  0.00    -0.270 OA
ATOM     25  N   UNL     1     -30.784  28.405   6.802  0.00  0.00    -0.325 N 
ATOM     26  C   UNL     1     -31.857  28.836   6.056  0.00  0.00    +0.243 C 
ATOM     27  H   UNL     1     -30.308  29.035   7.390  0.00  0.00    +0.145 HD
ATOM     28  H   UNL     1     -30.493  27.466   6.749  0.00  0.00    +0.145 HD
ENDBRANCH  23  26
ENDBRANCH   7  22
TORSDOF 4
ENDMDL
MODEL 3
REMARK VINA RESULT:      -6.4      2.116      7.701
REMARK  Name = 5915220
REMARK  4 active torsions:
REMARK  status: ('A' for Active; 'I' for Inactive)
REMARK    1  A    between atoms: C_5  and  O_18
REMARK    2  A    between atoms: C_7  and  C_22
REMARK    3  A    between atoms: C_12  and  O_20
REMARK    4  A    between atoms: C_23  and  C_26
REMARK                            x       y       z     vdW  Elec       q    Type
REMARK                         _______ _______ _______ _____ _____    ______ ____
ROOT
ATOM      1  O   UNL     1     -33.297  26.227   1.893  0.00  0.00    -0.270 OA
ATOM      2  N   UNL     1     -35.157  25.788   3.177  0.00  0.00    -0.251 N 
ATOM      3  N   UNL     1     -34.035  25.834   6.039  0.00  0.00    -0.308 N 
ATOM      4  C   UNL     1     -35.920  25.790   4.435  0.00  0.00    +0.131 C 
ATOM      5  C   UNL     1     -35.139  25.058   5.522  0.00  0.00    +0.208 C 
ATOM      6  C   UNL     1     -37.250  25.085   4.083  0.00  0.00    +0.052 C 
ATOM      7  C   UNL     1     -37.056  24.703   2.649  0.00  0.00    -0.005 C 
ATOM      8  C   UNL     1     -35.870  25.126   2.204  0.00  0.00    +0.064 C 
ATOM      9  C   UNL     1     -33.907  26.333   2.959  0.00  0.00    +0.254 C 
ATOM     10  C   UNL     1     -33.301  26.826   5.419  0.00  0.00    +0.085 C 
ATOM     11  C   UNL     1     -33.260  27.122   4.045  0.00  0.00    +0.070 C 
ATOM     12  C   UNL     1     -32.543  27.659   6.278  0.00  0.00    +0.143 C 
ATOM     13  C   UNL     1     -32.491  28.213   3.582  0.00  0.00    +0.006 C 
ATOM     14  C   UNL     1     -31.786  28.734   5.813  0.00  0.00    +0.013 C 
ATOM     15  C   UNL     1     -31.763  29.014   4.458  0.00  0.00    -0.001 C 
ATOM     16  C   UNL     1     -31.003  29.591   6.751  0.00  0.00    +0.034 C 
ATOM     17  H   UNL     1     -33.768  25.627   6.964  0.00  0.00    +0.149 HD
ENDROOT
BRANCH   5  18
ATOM     18  O   UNL     1     -34.703  23.773   5.090  0.00  0.00    -0.334 OA
ATOM     19  C   UNL     1     -35.188  22.747   5.944  0.00  0.00    +0.176 C 
ENDBRANCH   5  18
BRANCH  12  20
ATOM     20  O   UNL     1     -32.553  27.412   7.629  0.00  0.00    -0.505 OA
ATOM     21  H   UNL     1     -33.088  27.930   8.197  0.00  0.00    +0.292 HD
ENDBRANCH  12  20
BRANCH   7  22
ATOM     22  C   UNL     1     -38.041  23.987   1.905  0.00  0.00    +0.002 C 
ATOM     23  C   UNL     1     -39.057  23.318   2.478  0.00  0.00    +0.057 C 
BRANCH  23  26
ATOM     24  O   UNL     1     -40.807  23.157   0.858  0.00  0.00    -0.270 OA
ATOM     25  N   UNL     1     -40.009  21.234   1.837  0.00  0.00    -0.325 N 
ATOM     26  C   UNL     1     -40.047  22.595   1.638  0.00  0.00    +0.243 C 
ATOM     27  H   UNL     1     -40.619  20.646   1.336  0.00  0.00    +0.145 HD
ATOM     28  H   UNL     1     -39.371  20.848   2.480  0.00  0.00    +0.145 HD
ENDBRANCH  23  26
ENDBRANCH   7  22
TORSDOF 4
ENDMDL
MODEL 4
REMARK VINA RESULT:      -6.3      3.486      8.996
REMARK  Name = 5915220
REMARK  4 active torsions:
REMARK  status: ('A' for Active; 'I' for Inactive)
REMARK    1  A    between atoms: C_5  and  O_18
REMARK    2  A    between atoms: C_7  and  C_22
REMARK    3  A    between atoms: C_12  and  O_20
REMARK    4  A    between atoms: C_23  and  C_26
REMARK                            x       y       z     vdW  Elec       q    Type
REMARK                         _______ _______ _______ _____ _____    ______ ____
ROOT
ATOM      1  O   UNL     1     -32.261  28.484   6.997  0.00  0.00    -0.270 OA
ATOM      2  N   UNL     1     -32.765  27.576   4.942  0.00  0.00    -0.251 N 
ATOM      3  N   UNL     1     -32.330  29.943   3.027  0.00  0.00    -0.308 N 
ATOM      4  C   UNL     1     -32.720  27.538   3.471  0.00  0.00    +0.131 C 
ATOM      5  C   UNL     1     -33.261  28.845   2.898  0.00  0.00    +0.208 C 
ATOM      6  C   UNL     1     -33.589  26.319   3.088  0.00  0.00    +0.052 C 
ATOM      7  C   UNL     1     -34.085  25.832   4.415  0.00  0.00    -0.005 C 
ATOM      8  C   UNL     1     -33.586  26.575   5.406  0.00  0.00    +0.064 C 
ATOM      9  C   UNL     1     -32.117  28.469   5.773  0.00  0.00    +0.254 C 
ATOM     10  C   UNL     1     -31.331  30.133   3.962  0.00  0.00    +0.085 C 
ATOM     11  C   UNL     1     -31.165  29.452   5.181  0.00  0.00    +0.070 C 
ATOM     12  C   UNL     1     -30.346  31.093   3.624  0.00  0.00    +0.143 C 
ATOM     13  C   UNL     1     -30.050  29.736   6.000  0.00  0.00    +0.006 C 
ATOM     14  C   UNL     1     -29.249  31.368   4.439  0.00  0.00    +0.013 C 
ATOM     15  C   UNL     1     -29.099  30.683   5.631  0.00  0.00    -0.001 C 
ATOM     16  C   UNL     1     -28.230  32.385   4.045  0.00  0.00    +0.034 C 
ATOM     17  H   UNL     1     -32.419  30.655   2.353  0.00  0.00    +0.149 HD
ENDROOT
BRANCH   5  18
ATOM     18  O   UNL     1     -34.530  29.184   3.449  0.00  0.00    -0.334 OA
ATOM     19  C   UNL     1     -35.141  30.245   2.731  0.00  0.00    +0.176 C 
ENDBRANCH   5  18
BRANCH  12  20
ATOM     20  O   UNL     1     -30.463  31.782   2.442  0.00  0.00    -0.505 OA
ATOM     21  H   UNL     1     -31.192  32.354   2.302  0.00  0.00    +0.292 HD
ENDBRANCH  12  20
BRANCH   7  22
ATOM     22  C   UNL     1     -34.966  24.718   4.543  0.00  0.00    +0.002 C 
ATOM     23  C   UNL     1     -34.777  23.725   5.428  0.00  0.00    +0.057 C 
BRANCH  23  26
ATOM     24  O   UNL     1     -35.939  21.949   6.528  0.00  0.00    -0.270 OA
ATOM     25  N   UNL     1     -36.371  22.360   4.306  0.00  0.00    -0.325 N 
ATOM     26  C   UNL     1     -35.739  22.594   5.505  0.00  0.00    +0.243 C 
ATOM     27  H   UNL     1     -37.032  21.635   4.232  0.00  0.00    +0.145 HD
ATOM     28  H   UNL     1     -36.162  22.919   3.522  0.00  0.00    +0.145 HD
ENDBRANCH  23  26
ENDBRANCH   7  22
TORSDOF 4
ENDMDL
MODEL 5
REMARK VINA RESULT:      -6.3      2.074      7.887
REMARK  Name = 5915220
REMARK  4 active torsions:
REMARK  status: ('A' for Active; 'I' for Inactive)
REMARK    1  A    between atoms: C_5  and  O_18
REMARK    2  A    between atoms: C_7  and  C_22
REMARK    3  A    between atoms: C_12  and  O_20
REMARK    4  A    between atoms: C_23  and  C_26
REMARK                            x       y       z     vdW  Elec       q    Type
REMARK                         _______ _______ _______ _____ _____    ______ ____
ROOT
ATOM      1  O   UNL     1     -35.822  25.708   6.150  0.00  0.00    -0.270 OA
ATOM      2  N   UNL     1     -35.257  24.867   4.083  0.00  0.00    -0.251 N 
ATOM      3  N   UNL     1     -33.716  27.198   2.799  0.00  0.00    -0.308 N 
ATOM      4  C   UNL     1     -34.461  24.837   2.845  0.00  0.00    +0.131 C 
ATOM      5  C   UNL     1     -34.526  26.193   2.149  0.00  0.00    +0.208 C 
ATOM      6  C   UNL     1     -35.095  23.707   2.003  0.00  0.00    +0.052 C 
ATOM      7  C   UNL     1     -36.241  23.258   2.856  0.00  0.00    -0.005 C 
ATOM      8  C   UNL     1     -36.273  23.944   4.002  0.00  0.00    +0.064 C 
ATOM      9  C   UNL     1     -35.067  25.689   5.176  0.00  0.00    +0.254 C 
ATOM     10  C   UNL     1     -33.334  27.286   4.123  0.00  0.00    +0.085 C 
ATOM     11  C   UNL     1     -33.876  26.583   5.214  0.00  0.00    +0.070 C 
ATOM     12  C   UNL     1     -32.247  28.153   4.394  0.00  0.00    +0.143 C 
ATOM     13  C   UNL     1     -33.327  26.755   6.505  0.00  0.00    +0.006 C 
ATOM     14  C   UNL     1     -31.713  28.318   5.671  0.00  0.00    +0.013 C 
ATOM     15  C   UNL     1     -32.254  27.612   6.731  0.00  0.00    -0.001 C 
ATOM     16  C   UNL     1     -30.563  29.239   5.915  0.00  0.00    +0.034 C 
ATOM     17  H   UNL     1     -33.389  27.920   2.216  0.00  0.00    +0.149 HD
ENDROOT
BRANCH   5  18
ATOM     18  O   UNL     1     -35.866  26.644   1.985  0.00  0.00    -0.334 OA
ATOM     19  C   UNL     1     -35.911  27.996   1.556  0.00  0.00    +0.176 C 
ENDBRANCH   5  18
BRANCH  12  20
ATOM     20  O   UNL     1     -31.682  28.860   3.361  0.00  0.00    -0.505 OA
ATOM     21  H   UNL     1     -31.289  28.406   2.641  0.00  0.00    +0.292 HD
ENDBRANCH  12  20
BRANCH   7  22
ATOM     22  C   UNL     1     -37.143  22.230   2.451  0.00  0.00    +0.002 C 
ATOM     23  C   UNL     1     -38.416  22.464   2.091  0.00  0.00    +0.057 C 
BRANCH  23  26
ATOM     24  O   UNL     1     -40.416  21.156   2.147  0.00  0.00    -0.270 OA
ATOM     25  N   UNL     1     -38.720  20.543   0.720  0.00  0.00    -0.325 N 
ATOM     26  C   UNL     1     -39.299  21.341   1.679  0.00  0.00    +0.243 C 
ATOM     27  H   UNL     1     -39.208  19.765   0.366  0.00  0.00    +0.145 HD
ATOM     28  H   UNL     1     -37.816  20.750   0.387  0.00  0.00    +0.145 HD
ENDBRANCH  23  26
ENDBRANCH   7  22
TORSDOF 4
ENDMDL
MODEL 6
REMARK VINA RESULT:      -6.3      3.454      7.675
REMARK  Name = 5915220
REMARK  4 active torsions:
REMARK  status: ('A' for Active; 'I' for Inactive)
REMARK    1  A    between atoms: C_5  and  O_18
REMARK    2  A    between atoms: C_7  and  C_22
REMARK    3  A    between atoms: C_12  and  O_20
REMARK    4  A    between atoms: C_23  and  C_26
REMARK                            x       y       z     vdW  Elec       q    Type
REMARK                         _______ _______ _______ _____ _____    ______ ____
ROOT
ATOM      1  O   UNL     1     -35.851  27.887   1.846  0.00  0.00    -0.270 OA
ATOM      2  N   UNL     1     -34.656  27.349   3.740  0.00  0.00    -0.251 N 
ATOM      3  N   UNL     1     -32.159  29.125   3.497  0.00  0.00    -0.308 N 
ATOM      4  C   UNL     1     -33.636  27.600   4.770  0.00  0.00    +0.131 C 
ATOM      5  C   UNL     1     -32.277  27.825   4.116  0.00  0.00    +0.208 C 
ATOM      6  C   UNL     1     -33.665  26.337   5.661  0.00  0.00    +0.052 C 
ATOM      7  C   UNL     1     -34.679  25.472   4.980  0.00  0.00    -0.005 C 
ATOM      8  C   UNL     1     -35.195  26.096   3.918  0.00  0.00    +0.064 C 
ATOM      9  C   UNL     1     -35.037  28.197   2.719  0.00  0.00    +0.254 C 
ATOM     10  C   UNL     1     -33.149  29.938   2.981  0.00  0.00    +0.085 C 
ATOM     11  C   UNL     1     -34.472  29.575   2.672  0.00  0.00    +0.070 C 
ATOM     12  C   UNL     1     -32.793  31.295   2.787  0.00  0.00    +0.143 C 
ATOM     13  C   UNL     1     -35.377  30.552   2.198  0.00  0.00    +0.006 C 
ATOM     14  C   UNL     1     -33.692  32.251   2.318  0.00  0.00    +0.013 C 
ATOM     15  C   UNL     1     -34.992  31.878   2.025  0.00  0.00    -0.001 C 
ATOM     16  C   UNL     1     -33.278  33.674   2.129  0.00  0.00    +0.034 C 
ATOM     17  H   UNL     1     -31.244  29.483   3.435  0.00  0.00    +0.149 HD
ENDROOT
BRANCH   5  18
ATOM     18  O   UNL     1     -31.951  26.788   3.194  0.00  0.00    -0.334 OA
ATOM     19  C   UNL     1     -30.809  27.121   2.421  0.00  0.00    +0.176 C 
ENDBRANCH   5  18
BRANCH  12  20
ATOM     20  O   UNL     1     -31.512  31.698   3.077  0.00  0.00    -0.505 OA
ATOM     21  H   UNL     1     -31.168  31.580   3.940  0.00  0.00    +0.292 HD
ENDBRANCH  12  20
BRANCH   7  22
ATOM     22  C   UNL     1     -35.013  24.166   5.449  0.00  0.00    +0.002 C 
ATOM     23  C   UNL     1     -34.991  23.073   4.668  0.00  0.00    +0.057 C 
BRANCH  23  26
ATOM     24  O   UNL     1     -35.080  20.684   4.674  0.00  0.00    -0.270 OA
ATOM     25  N   UNL     1     -36.016  21.842   6.428  0.00  0.00    -0.325 N 
ATOM     26  C   UNL     1     -35.351  21.744   5.228  0.00  0.00    +0.243 C 
ATOM     27  H   UNL     1     -36.307  21.027   6.898  0.00  0.00    +0.145 HD
ATOM     28  H   UNL     1     -36.200  22.727   6.817  0.00  0.00    +0.145 HD
ENDBRANCH  23  26
ENDBRANCH   7  22
TORSDOF 4
ENDMDL
MODEL 7
REMARK VINA RESULT:      -6.2      3.678      5.993
REMARK  Name = 5915220
REMARK  4 active torsions:
REMARK  status: ('A' for Active; 'I' for Inactive)
REMARK    1  A    between atoms: C_5  and  O_18
REMARK    2  A    between atoms: C_7  and  C_22
REMARK    3  A    between atoms: C_12  and  O_20
REMARK    4  A    between atoms: C_23  and  C_26
REMARK                            x       y       z     vdW  Elec       q    Type
REMARK                         _______ _______ _______ _____ _____    ______ ____
ROOT
ATOM      1  O   UNL     1     -35.579  24.763   0.030  0.00  0.00    -0.270 OA
ATOM      2  N   UNL     1     -35.795  22.787   1.191  0.00  0.00    -0.251 N 
ATOM      3  N   UNL     1     -37.498  23.606   3.617  0.00  0.00    -0.308 N 
ATOM      4  C   UNL     1     -36.441  21.898   2.170  0.00  0.00    +0.131 C 
ATOM      5  C   UNL     1     -36.491  22.573   3.537  0.00  0.00    +0.208 C 
ATOM      6  C   UNL     1     -35.568  20.622   2.170  0.00  0.00    +0.052 C 
ATOM      7  C   UNL     1     -34.470  20.969   1.213  0.00  0.00    -0.005 C 
ATOM      8  C   UNL     1     -34.658  22.188   0.702  0.00  0.00    +0.064 C 
ATOM      9  C   UNL     1     -36.214  24.045   0.804  0.00  0.00    +0.254 C 
ATOM     10  C   UNL     1     -38.029  24.385   2.608  0.00  0.00    +0.085 C 
ATOM     11  C   UNL     1     -37.515  24.564   1.311  0.00  0.00    +0.070 C 
ATOM     12  C   UNL     1     -39.249  25.037   2.912  0.00  0.00    +0.143 C 
ATOM     13  C   UNL     1     -38.219  25.360   0.380  0.00  0.00    +0.006 C 
ATOM     14  C   UNL     1     -39.935  25.823   1.986  0.00  0.00    +0.013 C 
ATOM     15  C   UNL     1     -39.419  25.982   0.713  0.00  0.00    -0.001 C 
ATOM     16  C   UNL     1     -41.221  26.491   2.344  0.00  0.00    +0.034 C 
ATOM     17  H   UNL     1     -37.857  23.778   4.517  0.00  0.00    +0.149 HD
ENDROOT
BRANCH   5  18
ATOM     18  O   UNL     1     -35.216  23.070   3.932  0.00  0.00    -0.334 OA
ATOM     19  C   UNL     1     -35.111  23.166   5.345  0.00  0.00    +0.176 C 
ENDBRANCH   5  18
BRANCH  12  20
ATOM     20  O   UNL     1     -39.792  24.891   4.165  0.00  0.00    -0.505 OA
ATOM     21  H   UNL     1     -40.537  25.400   4.415  0.00  0.00    +0.292 HD
ENDBRANCH  12  20
BRANCH   7  22
ATOM     22  C   UNL     1     -33.395  20.077   0.922  0.00  0.00    +0.002 C 
ATOM     23  C   UNL     1     -33.351  18.807   1.359  0.00  0.00    +0.057 C 
BRANCH  23  26
ATOM     24  O   UNL     1     -31.331  17.616   1.821  0.00  0.00    -0.270 OA
ATOM     25  N   UNL     1     -32.219  17.530  -0.299  0.00  0.00    -0.325 N 
ATOM     26  C   UNL     1     -32.198  17.934   1.015  0.00  0.00    +0.243 C 
ATOM     27  H   UNL     1     -31.507  16.947  -0.647  0.00  0.00    +0.145 HD
ATOM     28  H   UNL     1     -32.948  17.824  -0.893  0.00  0.00    +0.145 HD
ENDBRANCH  23  26
ENDBRANCH   7  22
TORSDOF 4
ENDMDL
MODEL 8
REMARK VINA RESULT:      -6.0      4.142      5.463
REMARK  Name = 5915220
REMARK  4 active torsions:
REMARK  status: ('A' for Active; 'I' for Inactive)
REMARK    1  A    between atoms: C_5  and  O_18
REMARK    2  A    between atoms: C_7  and  C_22
REMARK    3  A    between atoms: C_12  and  O_20
REMARK    4  A    between atoms: C_23  and  C_26
REMARK                            x       y       z     vdW  Elec       q    Type
REMARK                         _______ _______ _______ _____ _____    ______ ____
ROOT
ATOM      1  O   UNL     1     -34.038  21.912  -0.906  0.00  0.00    -0.270 OA
ATOM      2  N   UNL     1     -34.878  21.689   1.226  0.00  0.00    -0.251 N 
ATOM      3  N   UNL     1     -36.696  19.221   0.987  0.00  0.00    -0.308 N 
ATOM      4  C   UNL     1     -35.510  20.936   2.321  0.00  0.00    +0.131 C 
ATOM      5  C   UNL     1     -36.846  20.364   1.858  0.00  0.00    +0.208 C 
ATOM      6  C   UNL     1     -35.669  21.969   3.460  0.00  0.00    +0.052 C 
ATOM      7  C   UNL     1     -35.152  23.231   2.841  0.00  0.00    -0.005 C 
ATOM      8  C   UNL     1     -34.724  23.005   1.597  0.00  0.00    +0.064 C 
ATOM      9  C   UNL     1     -34.497  21.202  -0.009  0.00  0.00    +0.254 C 
ATOM     10  C   UNL     1     -35.648  18.897   0.147  0.00  0.00    +0.085 C 
ATOM     11  C   UNL     1     -34.606  19.741  -0.278  0.00  0.00    +0.070 C 
ATOM     12  C   UNL     1     -35.605  17.551  -0.292  0.00  0.00    +0.143 C 
ATOM     13  C   UNL     1     -33.578  19.229  -1.101  0.00  0.00    +0.006 C 
ATOM     14  C   UNL     1     -34.586  17.055  -1.104  0.00  0.00    +0.013 C 
ATOM     15  C   UNL     1     -33.566  17.898  -1.508  0.00  0.00    -0.001 C 
ATOM     16  C   UNL     1     -34.575  15.628  -1.543  0.00  0.00    +0.034 C 
ATOM     17  H   UNL     1     -37.446  18.583   0.992  0.00  0.00    +0.149 HD
ENDROOT
BRANCH   5  18
ATOM     18  O   UNL     1     -37.674  21.357   1.262  0.00  0.00    -0.334 OA
ATOM     19  C   UNL     1     -38.936  21.437   1.906  0.00  0.00    +0.176 C 
ENDBRANCH   5  18
BRANCH  12  20
ATOM     20  O   UNL     1     -36.599  16.688   0.100  0.00  0.00    -0.505 OA
ATOM     21  H   UNL     1     -37.431  17.022   0.370  0.00  0.00    +0.292 HD
ENDBRANCH  12  20
BRANCH   7  22
ATOM     22  C   UNL     1     -35.138  24.476   3.537  0.00  0.00    +0.002 C 
ATOM     23  C   UNL     1     -35.219  24.576   4.874  0.00  0.00    +0.057 C 
BRANCH  23  26
ATOM     24  O   UNL     1     -34.207  26.372   6.084  0.00  0.00    -0.270 OA
ATOM     25  N   UNL     1     -36.408  26.558   5.442  0.00  0.00    -0.325 N 
ATOM     26  C   UNL     1     -35.198  25.910   5.530  0.00  0.00    +0.243 C 
ATOM     27  H   UNL     1     -36.518  27.451   5.839  0.00  0.00    +0.145 HD
ATOM     28  H   UNL     1     -37.164  26.127   4.981  0.00  0.00    +0.145 HD
ENDBRANCH  23  26
ENDBRANCH   7  22
TORSDOF 4
ENDMDL
MODEL 9
REMARK VINA RESULT:      -5.9      4.798      6.302
REMARK  Name = 5915220
REMARK  4 active torsions:
REMARK  status: ('A' for Active; 'I' for Inactive)
REMARK    1  A    between atoms: C_5  and  O_18
REMARK    2  A    between atoms: C_7  and  C_22
REMARK    3  A    between atoms: C_12  and  O_20
REMARK    4  A    between atoms: C_23  and  C_26
REMARK                            x       y       z     vdW  Elec       q    Type
REMARK                         _______ _______ _______ _____ _____    ______ ____
ROOT
ATOM      1  O   UNL     1     -32.754  21.651  -0.394  0.00  0.00    -0.270 OA
ATOM      2  N   UNL     1     -34.298  21.475   1.304  0.00  0.00    -0.251 N 
ATOM      3  N   UNL     1     -35.601  18.744   0.760  0.00  0.00    -0.308 N 
ATOM      4  C   UNL     1     -35.204  20.726   2.190  0.00  0.00    +0.131 C 
ATOM      5  C   UNL     1     -36.195  19.916   1.359  0.00  0.00    +0.208 C 
ATOM      6  C   UNL     1     -35.894  21.811   3.047  0.00  0.00    +0.052 C 
ATOM      7  C   UNL     1     -35.331  23.082   2.492  0.00  0.00    -0.005 C 
ATOM      8  C   UNL     1     -34.446  22.825   1.526  0.00  0.00    +0.064 C 
ATOM      9  C   UNL     1     -33.431  20.954   0.365  0.00  0.00    +0.254 C 
ATOM     10  C   UNL     1     -34.286  18.519   0.404  0.00  0.00    +0.085 C 
ATOM     11  C   UNL     1     -33.264  19.476   0.271  0.00  0.00    +0.070 C 
ATOM     12  C   UNL     1     -33.928  17.165   0.193  0.00  0.00    +0.143 C 
ATOM     13  C   UNL     1     -31.951  19.065  -0.051  0.00  0.00    +0.006 C 
ATOM     14  C   UNL     1     -32.630  16.768  -0.126  0.00  0.00    +0.013 C 
ATOM     15  C   UNL     1     -31.636  17.723  -0.246  0.00  0.00    -0.001 C 
ATOM     16  C   UNL     1     -32.292  15.329  -0.337  0.00  0.00    +0.034 C 
ATOM     17  H   UNL     1     -36.220  18.000   0.581  0.00  0.00    +0.149 HD
ENDROOT
BRANCH   5  18
ATOM     18  O   UNL     1     -36.848  20.717   0.379  0.00  0.00    -0.334 OA
ATOM     19  C   UNL     1     -37.712  19.940  -0.436  0.00  0.00    +0.176 C 
ENDBRANCH   5  18
BRANCH  12  20
ATOM     20  O   UNL     1     -34.890  16.192   0.314  0.00  0.00    -0.505 OA
ATOM     21  H   UNL     1     -34.852  15.580   1.021  0.00  0.00    +0.292 HD
ENDBRANCH  12  20
BRANCH   7  22
ATOM     22  C   UNL     1     -35.720  24.368   2.974  0.00  0.00    +0.002 C 
ATOM     23  C   UNL     1     -35.126  24.978   4.013  0.00  0.00    +0.057 C 
BRANCH  23  26
ATOM     24  O   UNL     1     -35.038  27.365   4.125  0.00  0.00    -0.270 OA
ATOM     25  N   UNL     1     -36.687  26.251   5.280  0.00  0.00    -0.325 N 
ATOM     26  C   UNL     1     -35.585  26.320   4.459  0.00  0.00    +0.243 C 
ATOM     27  H   UNL     1     -37.085  27.076   5.640  0.00  0.00    +0.145 HD
ATOM     28  H   UNL     1     -37.077  25.376   5.508  0.00  0.00    +0.145 HD
ENDBRANCH  23  26
ENDBRANCH   7  22
TORSDOF 4
ENDMDL
