MODEL 1
REMARK VINA RESULT:      -6.0      0.000      0.000
REMARK  Name = 54676871
REMARK  7 active torsions:
REMARK  status: ('A' for Active; 'I' for Inactive)
REMARK    1  A    between atoms: C_4  and  N_14
REMARK    2  A    between atoms: C_5  and  C_25
REMARK    3  A    between atoms: C_6  and  O_26
REMARK    4  A    between atoms: C_8  and  O_28
REMARK    5  A    between atoms: C_10  and  O_30
REMARK    6  A    between atoms: C_15  and  C_17
REMARK    7  A    between atoms: C_17  and  N_19
REMARK                            x       y       z     vdW  Elec       q    Type
REMARK                         _______ _______ _______ _____ _____    ______ ____
ROOT
ATOM      1  O   UNL     1     -35.493  25.454   1.707  0.00  0.00    -0.449 OA
ATOM      2  O   UNL     1     -35.140  26.594   3.603  0.00  0.00    -0.245 OA
ATOM      3  C   UNL     1     -35.194  22.926   3.027  0.00  0.00    +0.082 C 
ATOM      4  C   UNL     1     -35.887  23.023   1.656  0.00  0.00    +0.117 C 
ATOM      5  C   UNL     1     -35.370  24.258   0.894  0.00  0.00    +0.181 C 
ATOM      6  C   UNL     1     -35.643  21.678   3.820  0.00  0.00    +0.144 C 
ATOM      7  C   UNL     1     -35.340  24.218   3.793  0.00  0.00    +0.087 C 
ATOM      8  C   UNL     1     -35.092  21.716   5.245  0.00  0.00    +0.145 C 
ATOM      9  C   UNL     1     -35.554  22.979   5.971  0.00  0.00    +0.095 C 
ATOM     10  C   UNL     1     -35.520  24.229   5.132  0.00  0.00    +0.116 C 
ATOM     11  C   UNL     1     -33.888  24.125   0.500  0.00  0.00    +0.048 C 
ATOM     12  C   UNL     1     -35.301  25.511   3.050  0.00  0.00    +0.340 C 
ENDROOT
BRANCH   4  14
ATOM     13  O   UNL     1     -37.775  21.106   0.634  0.00  0.00    -0.277 OA
ATOM     14  N   UNL     1     -37.329  23.058   1.804  0.00  0.00    -0.304 N 
ATOM     15  C   UNL     1     -38.158  22.084   1.272  0.00  0.00    +0.202 C 
ATOM     16  H   UNL     1     -37.735  23.805   2.301  0.00  0.00    +0.149 HD
BRANCH  15  17
ATOM     17  C   UNL     1     -39.626  22.371   1.560  0.00  0.00    +0.013 C 
ATOM     18  C   UNL     1     -39.762  23.627   2.413  0.00  0.00    -0.015 C 
BRANCH  17  19
ATOM     19  N   UNL     1     -40.190  21.221   2.262  0.00  0.00    +0.387 N 
ATOM     20  H   UNL     1     -41.207  21.247   2.194  0.00  0.00    -0.089 HD
ATOM     21  H   UNL     1     -39.913  21.254   3.243  0.00  0.00    -0.089 HD
ATOM     22  H   UNL     1     -39.843  20.361   1.839  0.00  0.00    -0.089 HD
ENDBRANCH  17  19
ENDBRANCH  15  17
ENDBRANCH   4  14
BRANCH   5  25
ATOM     23 CL   UNL     1     -35.070  24.759  -1.752  0.00  0.00    -0.093 Cl
ATOM     24 CL   UNL     1     -37.212  25.937  -0.169  0.00  0.00    -0.093 Cl
ATOM     25  C   UNL     1     -36.176  24.517  -0.390  0.00  0.00    +0.196 C 
ENDBRANCH   5  25
BRANCH   6  26
ATOM     26  O   UNL     1     -35.165  20.502   3.163  0.00  0.00    -0.382 OA
ATOM     27  H   UNL     1     -35.809  19.786   3.275  0.00  0.00    +0.210 HD
ENDBRANCH   6  26
BRANCH   8  28
ATOM     28  O   UNL     1     -35.569  20.573   5.953  0.00  0.00    -0.382 OA
ATOM     29  H   UNL     1     -36.304  20.834   6.530  0.00  0.00    +0.210 HD
ENDBRANCH   8  28
BRANCH  10  30
ATOM     30  O   UNL     1     -35.700  25.400   5.845  0.00  0.00    -0.510 OA
ATOM     31  H   UNL     1     -36.363  25.449   6.505  0.00  0.00    +0.292 HD
ENDBRANCH  10  30
TORSDOF 7
ENDMDL
MODEL 2
REMARK VINA RESULT:      -5.9      1.099      1.163
REMARK  Name = 54676871
REMARK  7 active torsions:
REMARK  status: ('A' for Active; 'I' for Inactive)
REMARK    1  A    between atoms: C_4  and  N_14
REMARK    2  A    between atoms: C_5  and  C_25
REMARK    3  A    between atoms: C_6  and  O_26
REMARK    4  A    between atoms: C_8  and  O_28
REMARK    5  A    between atoms: C_10  and  O_30
REMARK    6  A    between atoms: C_15  and  C_17
REMARK    7  A    between atoms: C_17  and  N_19
REMARK                            x       y       z     vdW  Elec       q    Type
REMARK                         _______ _______ _______ _____ _____    ______ ____
ROOT
ATOM      1  O   UNL     1     -35.011  25.560   1.756  0.00  0.00    -0.449 OA
ATOM      2  O   UNL     1     -33.976  26.470   3.523  0.00  0.00    -0.245 OA
ATOM      3  C   UNL     1     -35.222  23.006   3.041  0.00  0.00    +0.082 C 
ATOM      4  C   UNL     1     -36.107  23.356   1.832  0.00  0.00    +0.117 C 
ATOM      5  C   UNL     1     -35.406  24.414   0.958  0.00  0.00    +0.181 C 
ATOM      6  C   UNL     1     -35.857  21.913   3.931  0.00  0.00    +0.144 C 
ATOM      7  C   UNL     1     -34.829  24.252   3.795  0.00  0.00    +0.087 C 
ATOM      8  C   UNL     1     -35.054  21.732   5.219  0.00  0.00    +0.145 C 
ATOM      9  C   UNL     1     -34.973  23.045   5.996  0.00  0.00    +0.095 C 
ATOM     10  C   UNL     1     -34.734  24.262   5.142  0.00  0.00    +0.116 C 
ATOM     11  C   UNL     1     -34.136  23.868   0.283  0.00  0.00    +0.048 C 
ATOM     12  C   UNL     1     -34.554  25.505   3.033  0.00  0.00    +0.340 C 
ENDROOT
BRANCH   4  14
ATOM     13  O   UNL     1     -38.554  21.842   1.787  0.00  0.00    -0.277 OA
ATOM     14  N   UNL     1     -37.417  23.807   2.259  0.00  0.00    -0.304 N 
ATOM     15  C   UNL     1     -38.541  23.000   2.198  0.00  0.00    +0.202 C 
ATOM     16  H   UNL     1     -37.511  24.723   2.606  0.00  0.00    +0.149 HD
BRANCH  15  17
ATOM     17  C   UNL     1     -39.786  23.724   2.694  0.00  0.00    +0.013 C 
ATOM     18  C   UNL     1     -40.496  24.410   1.533  0.00  0.00    -0.015 C 
BRANCH  17  19
ATOM     19  N   UNL     1     -39.376  24.712   3.689  0.00  0.00    +0.387 N 
ATOM     20  H   UNL     1     -38.913  24.239   4.465  0.00  0.00    -0.089 HD
ATOM     21  H   UNL     1     -40.199  25.206   4.035  0.00  0.00    -0.089 HD
ATOM     22  H   UNL     1     -38.733  25.377   3.264  0.00  0.00    -0.089 HD
ENDBRANCH  17  19
ENDBRANCH  15  17
ENDBRANCH   4  14
BRANCH   5  25
ATOM     23 CL   UNL     1     -35.507  24.865  -1.711  0.00  0.00    -0.093 Cl
ATOM     24 CL   UNL     1     -36.801  26.617   0.222  0.00  0.00    -0.093 Cl
ATOM     25  C   UNL     1     -36.333  24.949  -0.146  0.00  0.00    +0.196 C 
ENDBRANCH   5  25
BRANCH   6  26
ATOM     26  O   UNL     1     -35.884  20.677   3.216  0.00  0.00    -0.382 OA
ATOM     27  H   UNL     1     -35.435  19.993   3.737  0.00  0.00    +0.210 HD
ENDBRANCH   6  26
BRANCH   8  28
ATOM     28  O   UNL     1     -35.701  20.752   6.030  0.00  0.00    -0.382 OA
ATOM     29  H   UNL     1     -36.605  21.042   6.227  0.00  0.00    +0.210 HD
ENDBRANCH   8  28
BRANCH  10  30
ATOM     30  O   UNL     1     -34.418  25.405   5.854  0.00  0.00    -0.510 OA
ATOM     31  H   UNL     1     -33.545  25.537   6.165  0.00  0.00    +0.292 HD
ENDBRANCH  10  30
TORSDOF 7
ENDMDL
MODEL 3
REMARK VINA RESULT:      -5.4      2.543      5.020
REMARK  Name = 54676871
REMARK  7 active torsions:
REMARK  status: ('A' for Active; 'I' for Inactive)
REMARK    1  A    between atoms: C_4  and  N_14
REMARK    2  A    between atoms: C_5  and  C_25
REMARK    3  A    between atoms: C_6  and  O_26
REMARK    4  A    between atoms: C_8  and  O_28
REMARK    5  A    between atoms: C_10  and  O_30
REMARK    6  A    between atoms: C_15  and  C_17
REMARK    7  A    between atoms: C_17  and  N_19
REMARK                            x       y       z     vdW  Elec       q    Type
REMARK                         _______ _______ _______ _____ _____    ______ ____
ROOT
ATOM      1  O   UNL     1     -38.078  24.383   0.905  0.00  0.00    -0.449 OA
ATOM      2  O   UNL     1     -37.412  24.258  -1.231  0.00  0.00    -0.245 OA
ATOM      3  C   UNL     1     -37.113  21.746   1.486  0.00  0.00    +0.082 C 
ATOM      4  C   UNL     1     -37.401  22.748   2.618  0.00  0.00    +0.117 C 
ATOM      5  C   UNL     1     -38.463  23.765   2.160  0.00  0.00    +0.181 C 
ATOM      6  C   UNL     1     -36.083  20.672   1.906  0.00  0.00    +0.144 C 
ATOM      7  C   UNL     1     -36.752  22.468   0.211  0.00  0.00    +0.087 C 
ATOM      8  C   UNL     1     -35.673  19.818   0.707  0.00  0.00    +0.145 C 
ATOM      9  C   UNL     1     -35.084  20.689  -0.402  0.00  0.00    +0.095 C 
ATOM     10  C   UNL     1     -35.815  21.985  -0.633  0.00  0.00    +0.116 C 
ATOM     11  C   UNL     1     -39.842  23.115   1.944  0.00  0.00    +0.048 C 
ATOM     12  C   UNL     1     -37.438  23.752  -0.114  0.00  0.00    +0.340 C 
ENDROOT
BRANCH   4  14
ATOM     13  O   UNL     1     -36.319  22.815   5.285  0.00  0.00    -0.277 OA
ATOM     14  N   UNL     1     -36.185  23.411   3.048  0.00  0.00    -0.304 N 
ATOM     15  C   UNL     1     -35.745  23.387   4.361  0.00  0.00    +0.202 C 
ATOM     16  H   UNL     1     -35.651  23.899   2.379  0.00  0.00    +0.149 HD
BRANCH  15  17
ATOM     17  C   UNL     1     -34.453  24.173   4.540  0.00  0.00    +0.013 C 
ATOM     18  C   UNL     1     -34.639  25.266   5.585  0.00  0.00    -0.015 C 
BRANCH  17  19
ATOM     19  N   UNL     1     -34.092  24.762   3.253  0.00  0.00    +0.387 N 
ATOM     20  H   UNL     1     -34.802  24.525   2.560  0.00  0.00    -0.089 HD
ATOM     21  H   UNL     1     -33.188  24.397   2.954  0.00  0.00    -0.089 HD
ATOM     22  H   UNL     1     -34.035  25.776   3.346  0.00  0.00    -0.089 HD
ENDBRANCH  17  19
ENDBRANCH  15  17
ENDBRANCH   4  14
BRANCH   5  25
ATOM     23 CL   UNL     1     -40.357  25.292   3.353  0.00  0.00    -0.093 Cl
ATOM     24 CL   UNL     1     -37.734  26.332   2.631  0.00  0.00    -0.093 Cl
ATOM     25  C   UNL     1     -38.637  24.907   3.174  0.00  0.00    +0.196 C 
ENDBRANCH   5  25
BRANCH   6  26
ATOM     26  O   UNL     1     -36.659  19.831   2.908  0.00  0.00    -0.382 OA
ATOM     27  H   UNL     1     -37.615  19.764   2.763  0.00  0.00    +0.210 HD
ENDBRANCH   6  26
BRANCH   8  28
ATOM     28  O   UNL     1     -34.689  18.875   1.129  0.00  0.00    -0.382 OA
ATOM     29  H   UNL     1     -34.035  18.754   0.424  0.00  0.00    +0.210 HD
ENDBRANCH   8  28
BRANCH  10  30
ATOM     30  O   UNL     1     -35.440  22.654  -1.783  0.00  0.00    -0.510 OA
ATOM     31  H   UNL     1     -35.601  23.573  -1.865  0.00  0.00    +0.292 HD
ENDBRANCH  10  30
TORSDOF 7
ENDMDL
MODEL 4
REMARK VINA RESULT:      -5.4      1.982      2.663
REMARK  Name = 54676871
REMARK  7 active torsions:
REMARK  status: ('A' for Active; 'I' for Inactive)
REMARK    1  A    between atoms: C_4  and  N_14
REMARK    2  A    between atoms: C_5  and  C_25
REMARK    3  A    between atoms: C_6  and  O_26
REMARK    4  A    between atoms: C_8  and  O_28
REMARK    5  A    between atoms: C_10  and  O_30
REMARK    6  A    between atoms: C_15  and  C_17
REMARK    7  A    between atoms: C_17  and  N_19
REMARK                            x       y       z     vdW  Elec       q    Type
REMARK                         _______ _______ _______ _____ _____    ______ ____
ROOT
ATOM      1  O   UNL     1     -35.120  26.297   3.781  0.00  0.00    -0.449 OA
ATOM      2  O   UNL     1     -34.341  25.450   5.704  0.00  0.00    -0.245 OA
ATOM      3  C   UNL     1     -35.426  23.694   2.617  0.00  0.00    +0.082 C 
ATOM      4  C   UNL     1     -36.159  24.913   2.029  0.00  0.00    +0.117 C 
ATOM      5  C   UNL     1     -35.381  26.201   2.356  0.00  0.00    +0.181 C 
ATOM      6  C   UNL     1     -36.141  22.366   2.281  0.00  0.00    +0.144 C 
ATOM      7  C   UNL     1     -35.165  23.887   4.091  0.00  0.00    +0.087 C 
ATOM      8  C   UNL     1     -35.504  21.202   3.040  0.00  0.00    +0.145 C 
ATOM      9  C   UNL     1     -35.556  21.446   4.547  0.00  0.00    +0.095 C 
ATOM     10  C   UNL     1     -35.243  22.859   4.963  0.00  0.00    +0.116 C 
ATOM     11  C   UNL     1     -34.021  26.263   1.638  0.00  0.00    +0.048 C 
ATOM     12  C   UNL     1     -34.827  25.250   4.595  0.00  0.00    +0.340 C 
ENDROOT
BRANCH   4  14
ATOM     13  O   UNL     1     -38.545  24.213   0.578  0.00  0.00    -0.277 OA
ATOM     14  N   UNL     1     -37.524  24.983   2.513  0.00  0.00    -0.304 N 
ATOM     15  C   UNL     1     -38.613  24.623   1.735  0.00  0.00    +0.202 C 
ATOM     16  H   UNL     1     -37.684  25.299   3.432  0.00  0.00    +0.149 HD
BRANCH  15  17
ATOM     17  C   UNL     1     -39.928  24.806   2.481  0.00  0.00    +0.013 C 
ATOM     18  C   UNL     1     -40.644  26.058   1.991  0.00  0.00    -0.015 C 
BRANCH  17  19
ATOM     19  N   UNL     1     -39.635  24.917   3.908  0.00  0.00    +0.387 N 
ATOM     20  H   UNL     1     -39.065  25.747   4.074  0.00  0.00    -0.089 HD
ATOM     21  H   UNL     1     -39.125  24.088   4.216  0.00  0.00    -0.089 HD
ATOM     22  H   UNL     1     -40.507  24.994   4.430  0.00  0.00    -0.089 HD
ENDBRANCH  17  19
ENDBRANCH  15  17
ENDBRANCH   4  14
BRANCH   5  25
ATOM     23 CL   UNL     1     -36.512  27.447   0.233  0.00  0.00    -0.093 Cl
ATOM     24 CL   UNL     1     -35.249  28.907   2.414  0.00  0.00    -0.093 Cl
ATOM     25  C   UNL     1     -36.173  27.462   1.972  0.00  0.00    +0.196 C 
ENDBRANCH   5  25
BRANCH   6  26
ATOM     26  O   UNL     1     -36.046  22.120   0.876  0.00  0.00    -0.382 OA
ATOM     27  H   UNL     1     -35.171  22.392   0.560  0.00  0.00    +0.210 HD
ENDBRANCH   6  26
BRANCH   8  28
ATOM     28  O   UNL     1     -36.223  20.008   2.738  0.00  0.00    -0.382 OA
ATOM     29  H   UNL     1     -36.225  19.427   3.514  0.00  0.00    +0.210 HD
ENDBRANCH   8  28
BRANCH  10  30
ATOM     30  O   UNL     1     -35.049  23.024   6.322  0.00  0.00    -0.510 OA
ATOM     31  H   UNL     1     -34.241  22.761   6.715  0.00  0.00    +0.292 HD
ENDBRANCH  10  30
TORSDOF 7
ENDMDL
MODEL 5
REMARK VINA RESULT:      -5.3      2.556      4.630
REMARK  Name = 54676871
REMARK  7 active torsions:
REMARK  status: ('A' for Active; 'I' for Inactive)
REMARK    1  A    between atoms: C_4  and  N_14
REMARK    2  A    between atoms: C_5  and  C_25
REMARK    3  A    between atoms: C_6  and  O_26
REMARK    4  A    between atoms: C_8  and  O_28
REMARK    5  A    between atoms: C_10  and  O_30
REMARK    6  A    between atoms: C_15  and  C_17
REMARK    7  A    between atoms: C_17  and  N_19
REMARK                            x       y       z     vdW  Elec       q    Type
REMARK                         _______ _______ _______ _____ _____    ______ ____
ROOT
ATOM      1  O   UNL     1     -35.554  23.327   3.976  0.00  0.00    -0.449 OA
ATOM      2  O   UNL     1     -35.396  21.107   4.238  0.00  0.00    -0.245 OA
ATOM      3  C   UNL     1     -36.209  23.074   1.196  0.00  0.00    +0.082 C 
ATOM      4  C   UNL     1     -36.508  24.375   1.962  0.00  0.00    +0.117 C 
ATOM      5  C   UNL     1     -35.538  24.519   3.149  0.00  0.00    +0.181 C 
ATOM      6  C   UNL     1     -37.127  22.899  -0.035  0.00  0.00    +0.144 C 
ATOM      7  C   UNL     1     -36.213  21.890   2.130  0.00  0.00    +0.087 C 
ATOM      8  C   UNL     1     -36.940  21.515  -0.655  0.00  0.00    +0.145 C 
ATOM      9  C   UNL     1     -37.238  20.419   0.368  0.00  0.00    +0.095 C 
ATOM     10  C   UNL     1     -36.699  20.689   1.748  0.00  0.00    +0.116 C 
ATOM     11  C   UNL     1     -34.084  24.738   2.694  0.00  0.00    +0.048 C 
ATOM     12  C   UNL     1     -35.681  22.056   3.514  0.00  0.00    +0.340 C 
ENDROOT
BRANCH   4  14
ATOM     13  O   UNL     1     -38.497  26.325   1.237  0.00  0.00    -0.277 OA
ATOM     14  N   UNL     1     -37.889  24.414   2.401  0.00  0.00    -0.304 N 
ATOM     15  C   UNL     1     -38.775  25.399   1.996  0.00  0.00    +0.202 C 
ATOM     16  H   UNL     1     -38.211  23.712   3.013  0.00  0.00    +0.149 HD
BRANCH  15  17
ATOM     17  C   UNL     1     -40.154  25.211   2.615  0.00  0.00    +0.013 C 
ATOM     18  C   UNL     1     -41.036  26.418   2.319  0.00  0.00    -0.015 C 
BRANCH  17  19
ATOM     19  N   UNL     1     -39.990  25.048   4.058  0.00  0.00    +0.387 N 
ATOM     20  H   UNL     1     -40.770  24.506   4.429  0.00  0.00    -0.089 HD
ATOM     21  H   UNL     1     -39.972  25.966   4.503  0.00  0.00    -0.089 HD
ATOM     22  H   UNL     1     -39.116  24.561   4.248  0.00  0.00    -0.089 HD
ENDBRANCH  17  19
ENDBRANCH  15  17
ENDBRANCH   4  14
BRANCH   5  25
ATOM     23 CL   UNL     1     -35.442  27.222   3.315  0.00  0.00    -0.093 Cl
ATOM     24 CL   UNL     1     -35.143  25.500   5.645  0.00  0.00    -0.093 Cl
ATOM     25  C   UNL     1     -35.925  25.692   4.066  0.00  0.00    +0.196 C 
ENDBRANCH   5  25
BRANCH   6  26
ATOM     26  O   UNL     1     -36.809  23.896  -1.009  0.00  0.00    -0.382 OA
ATOM     27  H   UNL     1     -37.601  24.103  -1.529  0.00  0.00    +0.210 HD
ENDBRANCH   6  26
BRANCH   8  28
ATOM     28  O   UNL     1     -37.839  21.378  -1.755  0.00  0.00    -0.382 OA
ATOM     29  H   UNL     1     -38.752  21.386  -1.430  0.00  0.00    +0.210 HD
ENDBRANCH   8  28
BRANCH  10  30
ATOM     30  O   UNL     1     -36.751  19.605   2.603  0.00  0.00    -0.510 OA
ATOM     31  H   UNL     1     -37.175  19.683   3.434  0.00  0.00    +0.292 HD
ENDBRANCH  10  30
TORSDOF 7
ENDMDL
MODEL 6
REMARK VINA RESULT:      -5.3      3.008      4.960
REMARK  Name = 54676871
REMARK  7 active torsions:
REMARK  status: ('A' for Active; 'I' for Inactive)
REMARK    1  A    between atoms: C_4  and  N_14
REMARK    2  A    between atoms: C_5  and  C_25
REMARK    3  A    between atoms: C_6  and  O_26
REMARK    4  A    between atoms: C_8  and  O_28
REMARK    5  A    between atoms: C_10  and  O_30
REMARK    6  A    between atoms: C_15  and  C_17
REMARK    7  A    between atoms: C_17  and  N_19
REMARK                            x       y       z     vdW  Elec       q    Type
REMARK                         _______ _______ _______ _____ _____    ______ ____
ROOT
ATOM      1  O   UNL     1     -34.537  23.998   3.620  0.00  0.00    -0.449 OA
ATOM      2  O   UNL     1     -33.114  25.069   2.260  0.00  0.00    -0.245 OA
ATOM      3  C   UNL     1     -36.696  25.762   2.951  0.00  0.00    +0.082 C 
ATOM      4  C   UNL     1     -36.968  24.392   3.598  0.00  0.00    +0.117 C 
ATOM      5  C   UNL     1     -35.744  23.951   4.423  0.00  0.00    +0.181 C 
ATOM      6  C   UNL     1     -37.910  26.276   2.144  0.00  0.00    +0.144 C 
ATOM      7  C   UNL     1     -35.409  25.735   2.163  0.00  0.00    +0.087 C 
ATOM      8  C   UNL     1     -37.542  27.533   1.357  0.00  0.00    +0.145 C 
ATOM      9  C   UNL     1     -36.375  27.257   0.410  0.00  0.00    +0.095 C 
ATOM     10  C   UNL     1     -35.280  26.407   0.998  0.00  0.00    +0.116 C 
ATOM     11  C   UNL     1     -35.511  24.849   5.651  0.00  0.00    +0.048 C 
ATOM     12  C   UNL     1     -34.260  24.935   2.677  0.00  0.00    +0.340 C 
ENDROOT
BRANCH   4  14
ATOM     13  O   UNL     1     -39.604  23.429   2.960  0.00  0.00    -0.277 OA
ATOM     14  N   UNL     1     -37.314  23.403   2.596  0.00  0.00    -0.304 N 
ATOM     15  C   UNL     1     -38.619  23.002   2.362  0.00  0.00    +0.202 C 
ATOM     16  H   UNL     1     -36.592  22.999   2.061  0.00  0.00    +0.149 HD
BRANCH  15  17
ATOM     17  C   UNL     1     -38.699  21.943   1.270  0.00  0.00    +0.013 C 
ATOM     18  C   UNL     1     -40.130  21.818   0.759  0.00  0.00    -0.015 C 
BRANCH  17  19
ATOM     19  N   UNL     1     -38.250  20.671   1.829  0.00  0.00    +0.387 N 
ATOM     20  H   UNL     1     -37.250  20.721   2.026  0.00  0.00    -0.089 HD
ATOM     21  H   UNL     1     -38.428  19.924   1.158  0.00  0.00    -0.089 HD
ATOM     22  H   UNL     1     -38.756  20.481   2.693  0.00  0.00    -0.089 HD
ENDBRANCH  17  19
ENDBRANCH  15  17
ENDBRANCH   4  14
BRANCH   5  25
ATOM     23 CL   UNL     1     -35.059  22.324   6.479  0.00  0.00    -0.093 Cl
ATOM     24 CL   UNL     1     -35.195  21.391   3.724  0.00  0.00    -0.093 Cl
ATOM     25  C   UNL     1     -35.882  22.502   4.920  0.00  0.00    +0.196 C 
ENDBRANCH   5  25
BRANCH   6  26
ATOM     26  O   UNL     1     -38.980  26.579   3.040  0.00  0.00    -0.382 OA
ATOM     27  H   UNL     1     -39.818  26.588   2.552  0.00  0.00    +0.210 HD
ENDBRANCH   6  26
BRANCH   8  28
ATOM     28  O   UNL     1     -38.673  27.944   0.591  0.00  0.00    -0.382 OA
ATOM     29  H   UNL     1     -38.423  28.685   0.017  0.00  0.00    +0.210 HD
ENDBRANCH   8  28
BRANCH  10  30
ATOM     30  O   UNL     1     -34.125  26.360   0.241  0.00  0.00    -0.510 OA
ATOM     31  H   UNL     1     -33.313  26.655   0.604  0.00  0.00    +0.292 HD
ENDBRANCH  10  30
TORSDOF 7
ENDMDL
MODEL 7
REMARK VINA RESULT:      -5.2      2.872      5.027
REMARK  Name = 54676871
REMARK  7 active torsions:
REMARK  status: ('A' for Active; 'I' for Inactive)
REMARK    1  A    between atoms: C_4  and  N_14
REMARK    2  A    between atoms: C_5  and  C_25
REMARK    3  A    between atoms: C_6  and  O_26
REMARK    4  A    between atoms: C_8  and  O_28
REMARK    5  A    between atoms: C_10  and  O_30
REMARK    6  A    between atoms: C_15  and  C_17
REMARK    7  A    between atoms: C_17  and  N_19
REMARK                            x       y       z     vdW  Elec       q    Type
REMARK                         _______ _______ _______ _____ _____    ______ ____
ROOT
ATOM      1  O   UNL     1     -35.047  20.627   2.989  0.00  0.00    -0.449 OA
ATOM      2  O   UNL     1     -35.118  20.971   5.202  0.00  0.00    -0.245 OA
ATOM      3  C   UNL     1     -36.583  22.987   2.450  0.00  0.00    +0.082 C 
ATOM      4  C   UNL     1     -35.743  22.324   1.345  0.00  0.00    +0.117 C 
ATOM      5  C   UNL     1     -35.568  20.824   1.649  0.00  0.00    +0.181 C 
ATOM      6  C   UNL     1     -36.829  24.488   2.174  0.00  0.00    +0.144 C 
ATOM      7  C   UNL     1     -35.994  22.708   3.811  0.00  0.00    +0.087 C 
ATOM      8  C   UNL     1     -37.492  25.157   3.377  0.00  0.00    +0.145 C 
ATOM      9  C   UNL     1     -36.628  25.000   4.628  0.00  0.00    +0.095 C 
ATOM     10  C   UNL     1     -36.006  23.638   4.790  0.00  0.00    +0.116 C 
ATOM     11  C   UNL     1     -36.894  20.049   1.557  0.00  0.00    +0.048 C 
ATOM     12  C   UNL     1     -35.371  21.378   4.073  0.00  0.00    +0.340 C 
ENDROOT
BRANCH   4  14
ATOM     13  O   UNL     1     -34.968  24.139  -0.750  0.00  0.00    -0.277 OA
ATOM     14  N   UNL     1     -34.462  22.986   1.198  0.00  0.00    -0.304 N 
ATOM     15  C   UNL     1     -34.182  23.847   0.149  0.00  0.00    +0.202 C 
ATOM     16  H   UNL     1     -33.762  22.817   1.870  0.00  0.00    +0.149 HD
BRANCH  15  17
ATOM     17  C   UNL     1     -32.761  24.391   0.226  0.00  0.00    +0.013 C 
ATOM     18  C   UNL     1     -32.680  25.755  -0.449  0.00  0.00    -0.015 C 
BRANCH  17  19
ATOM     19  N   UNL     1     -31.870  23.444  -0.439  0.00  0.00    +0.387 N 
ATOM     20  H   UNL     1     -30.981  23.406   0.060  0.00  0.00    -0.089 HD
ATOM     21  H   UNL     1     -31.708  23.748  -1.399  0.00  0.00    -0.089 HD
ATOM     22  H   UNL     1     -32.297  22.519  -0.442  0.00  0.00    -0.089 HD
ENDBRANCH  17  19
ENDBRANCH  15  17
ENDBRANCH   4  14
BRANCH   5  25
ATOM     23 CL   UNL     1     -35.445  19.280  -0.574  0.00  0.00    -0.093 Cl
ATOM     24 CL   UNL     1     -33.513  19.058   1.593  0.00  0.00    -0.093 Cl
ATOM     25  C   UNL     1     -34.567  20.158   0.689  0.00  0.00    +0.196 C 
ENDBRANCH   5  25
BRANCH   6  26
ATOM     26  O   UNL     1     -37.678  24.627   1.033  0.00  0.00    -0.382 OA
ATOM     27  H   UNL     1     -37.561  25.510   0.649  0.00  0.00    +0.210 HD
ENDBRANCH   6  26
BRANCH   8  28
ATOM     28  O   UNL     1     -37.655  26.547   3.099  0.00  0.00    -0.382 OA
ATOM     29  H   UNL     1     -37.104  26.791   2.339  0.00  0.00    +0.210 HD
ENDBRANCH   8  28
BRANCH  10  30
ATOM     30  O   UNL     1     -35.432  23.417   6.029  0.00  0.00    -0.510 OA
ATOM     31  H   UNL     1     -35.252  22.543   6.312  0.00  0.00    +0.292 HD
ENDBRANCH  10  30
TORSDOF 7
ENDMDL
MODEL 8
REMARK VINA RESULT:      -5.1      2.439      4.285
REMARK  Name = 54676871
REMARK  7 active torsions:
REMARK  status: ('A' for Active; 'I' for Inactive)
REMARK    1  A    between atoms: C_4  and  N_14
REMARK    2  A    between atoms: C_5  and  C_25
REMARK    3  A    between atoms: C_6  and  O_26
REMARK    4  A    between atoms: C_8  and  O_28
REMARK    5  A    between atoms: C_10  and  O_30
REMARK    6  A    between atoms: C_15  and  C_17
REMARK    7  A    between atoms: C_17  and  N_19
REMARK                            x       y       z     vdW  Elec       q    Type
REMARK                         _______ _______ _______ _____ _____    ______ ____
ROOT
ATOM      1  O   UNL     1     -35.540  25.119  -0.405  0.00  0.00    -0.449 OA
ATOM      2  O   UNL     1     -33.890  23.829  -1.204  0.00  0.00    -0.245 OA
ATOM      3  C   UNL     1     -36.767  22.915   0.958  0.00  0.00    +0.082 C 
ATOM      4  C   UNL     1     -37.104  24.367   1.342  0.00  0.00    +0.117 C 
ATOM      5  C   UNL     1     -36.876  25.295   0.134  0.00  0.00    +0.181 C 
ATOM      6  C   UNL     1     -37.021  21.931   2.122  0.00  0.00    +0.144 C 
ATOM      7  C   UNL     1     -35.378  22.824   0.377  0.00  0.00    +0.087 C 
ATOM      8  C   UNL     1     -36.494  20.539   1.777  0.00  0.00    +0.145 C 
ATOM      9  C   UNL     1     -34.999  20.588   1.463  0.00  0.00    +0.095 C 
ATOM     10  C   UNL     1     -34.575  21.767   0.627  0.00  0.00    +0.116 C 
ATOM     11  C   UNL     1     -37.869  25.023  -1.010  0.00  0.00    +0.048 C 
ATOM     12  C   UNL     1     -34.876  23.937  -0.481  0.00  0.00    +0.340 C 
ENDROOT
BRANCH   4  14
ATOM     13  O   UNL     1     -38.021  24.577   4.062  0.00  0.00    -0.277 OA
ATOM     14  N   UNL     1     -36.330  24.794   2.491  0.00  0.00    -0.304 N 
ATOM     15  C   UNL     1     -36.863  24.864   3.767  0.00  0.00    +0.202 C 
ATOM     16  H   UNL     1     -35.387  25.046   2.358  0.00  0.00    +0.149 HD
BRANCH  15  17
ATOM     17  C   UNL     1     -35.839  25.356   4.783  0.00  0.00    +0.013 C 
ATOM     18  C   UNL     1     -35.398  24.212   5.686  0.00  0.00    -0.015 C 
BRANCH  17  19
ATOM     19  N   UNL     1     -36.454  26.417   5.576  0.00  0.00    +0.387 N 
ATOM     20  H   UNL     1     -36.453  27.286   5.041  0.00  0.00    -0.089 HD
ATOM     21  H   UNL     1     -35.923  26.548   6.438  0.00  0.00    -0.089 HD
ATOM     22  H   UNL     1     -37.414  26.160   5.803  0.00  0.00    -0.089 HD
ENDBRANCH  17  19
ENDBRANCH  15  17
ENDBRANCH   4  14
BRANCH   5  25
ATOM     23 CL   UNL     1     -38.167  27.578  -0.543  0.00  0.00    -0.093 Cl
ATOM     24 CL   UNL     1     -35.413  27.561   0.402  0.00  0.00    -0.093 Cl
ATOM     25  C   UNL     1     -36.998  26.779   0.521  0.00  0.00    +0.196 C 
ENDBRANCH   5  25
BRANCH   6  26
ATOM     26  O   UNL     1     -38.425  21.852   2.378  0.00  0.00    -0.382 OA
ATOM     27  H   UNL     1     -38.745  20.965   2.151  0.00  0.00    +0.210 HD
ENDBRANCH   6  26
BRANCH   8  28
ATOM     28  O   UNL     1     -36.705  19.677   2.894  0.00  0.00    -0.382 OA
ATOM     29  H   UNL     1     -37.241  20.135   3.559  0.00  0.00    +0.210 HD
ENDBRANCH   8  28
BRANCH  10  30
ATOM     30  O   UNL     1     -33.284  21.686   0.139  0.00  0.00    -0.510 OA
ATOM     31  H   UNL     1     -32.750  22.453   0.097  0.00  0.00    +0.292 HD
ENDBRANCH  10  30
TORSDOF 7
ENDMDL
MODEL 9
REMARK VINA RESULT:      -5.1      3.296      5.919
REMARK  Name = 54676871
REMARK  7 active torsions:
REMARK  status: ('A' for Active; 'I' for Inactive)
REMARK    1  A    between atoms: C_4  and  N_14
REMARK    2  A    between atoms: C_5  and  C_25
REMARK    3  A    between atoms: C_6  and  O_26
REMARK    4  A    between atoms: C_8  and  O_28
REMARK    5  A    between atoms: C_10  and  O_30
REMARK    6  A    between atoms: C_15  and  C_17
REMARK    7  A    between atoms: C_17  and  N_19
REMARK                            x       y       z     vdW  Elec       q    Type
REMARK                         _______ _______ _______ _____ _____    ______ ____
ROOT
ATOM      1  O   UNL     1     -37.018  23.706   4.025  0.00  0.00    -0.449 OA
ATOM      2  O   UNL     1     -39.066  23.956   3.150  0.00  0.00    -0.245 OA
ATOM      3  C   UNL     1     -35.770  23.814   1.445  0.00  0.00    +0.082 C 
ATOM      4  C   UNL     1     -34.954  24.053   2.727  0.00  0.00    +0.117 C 
ATOM      5  C   UNL     1     -35.619  23.333   3.915  0.00  0.00    +0.181 C 
ATOM      6  C   UNL     1     -35.123  24.478   0.209  0.00  0.00    +0.144 C 
ATOM      7  C   UNL     1     -37.216  24.194   1.653  0.00  0.00    +0.087 C 
ATOM      8  C   UNL     1     -36.053  24.391  -1.000  0.00  0.00    +0.145 C 
ATOM      9  C   UNL     1     -37.394  25.060  -0.701  0.00  0.00    +0.095 C 
ATOM     10  C   UNL     1     -37.941  24.776   0.673  0.00  0.00    +0.116 C 
ATOM     11  C   UNL     1     -35.565  21.801   3.777  0.00  0.00    +0.048 C 
ATOM     12  C   UNL     1     -37.851  23.935   2.977  0.00  0.00    +0.340 C 
ENDROOT
BRANCH   4  14
ATOM     13  O   UNL     1     -32.482  25.519   2.892  0.00  0.00    -0.277 OA
ATOM     14  N   UNL     1     -34.798  25.471   2.988  0.00  0.00    -0.304 N 
ATOM     15  C   UNL     1     -33.560  26.088   3.049  0.00  0.00    +0.202 C 
ATOM     16  H   UNL     1     -35.606  26.017   3.129  0.00  0.00    +0.149 HD
BRANCH  15  17
ATOM     17  C   UNL     1     -33.683  27.576   3.352  0.00  0.00    +0.013 C 
ATOM     18  C   UNL     1     -32.763  27.959   4.504  0.00  0.00    -0.015 C 
BRANCH  17  19
ATOM     19  N   UNL     1     -35.073  27.860   3.699  0.00  0.00    +0.387 N 
ATOM     20  H   UNL     1     -35.619  27.001   3.646  0.00  0.00    -0.089 HD
ATOM     21  H   UNL     1     -35.452  28.545   3.044  0.00  0.00    -0.089 HD
ATOM     22  H   UNL     1     -35.117  28.234   4.646  0.00  0.00    -0.089 HD
ENDBRANCH  17  19
ENDBRANCH  15  17
ENDBRANCH   4  14
BRANCH   5  25
ATOM     23 CL   UNL     1     -35.124  22.364   6.396  0.00  0.00    -0.093 Cl
ATOM     24 CL   UNL     1     -35.719  25.172   5.903  0.00  0.00    -0.093 Cl
ATOM     25  C   UNL     1     -34.962  23.708   5.254  0.00  0.00    +0.196 C 
ENDBRANCH   5  25
BRANCH   6  26
ATOM     26  O   UNL     1     -33.893  23.816  -0.095  0.00  0.00    -0.382 OA
ATOM     27  H   UNL     1     -33.385  24.352  -0.723  0.00  0.00    +0.210 HD
ENDBRANCH   6  26
BRANCH   8  28
ATOM     28  O   UNL     1     -35.438  25.057  -2.102  0.00  0.00    -0.382 OA
ATOM     29  H   UNL     1     -34.590  25.433  -1.820  0.00  0.00    +0.210 HD
ENDBRANCH   8  28
BRANCH  10  30
ATOM     30  O   UNL     1     -39.252  25.171   0.858  0.00  0.00    -0.510 OA
ATOM     31  H   UNL     1     -39.836  24.639   1.360  0.00  0.00    +0.292 HD
ENDBRANCH  10  30
TORSDOF 7
ENDMDL
