MODEL 1
REMARK VINA RESULT:      -6.1      0.000      0.000
REMARK  Name = 21596585
REMARK  4 active torsions:
REMARK  status: ('A' for Active; 'I' for Inactive)
REMARK    1  A    between atoms: C_13  and  O_23
REMARK    2  A    between atoms: C_13  and  C_25
REMARK    3  A    between atoms: C_17  and  O_27
REMARK    4  A    between atoms: O_27  and  C_29
REMARK                            x       y       z     vdW  Elec       q    Type
REMARK                         _______ _______ _______ _____ _____    ______ ____
ROOT
ATOM      1  O   UNL     1     -37.078  27.265   1.659  0.00  0.00    -0.453 OA
ATOM      2  O   UNL     1     -35.560  25.643   3.437  0.00  0.00    -0.442 OA
ATOM      3  O   UNL     1     -38.554  27.373  -0.111  0.00  0.00    -0.248 OA
ATOM      4  O   UNL     1     -36.495  24.897   5.399  0.00  0.00    -0.246 OA
ATOM      5  N   UNL     1     -34.206  29.503   1.423  0.00  0.00    +0.396 N 
ATOM      6  C   UNL     1     -35.290  28.841   2.232  0.00  0.00    +0.006 C 
ATOM      7  C   UNL     1     -36.315  28.375   1.192  0.00  0.00    +0.152 C 
ATOM      8  C   UNL     1     -35.451  28.037  -0.008  0.00  0.00    +0.019 C 
ATOM      9  C   UNL     1     -34.448  29.172   0.006  0.00  0.00    -0.073 C 
ATOM     10  C   UNL     1     -34.588  27.797   3.065  0.00  0.00    -0.023 C 
ATOM     11  C   UNL     1     -32.925  28.948   1.916  0.00  0.00    -0.050 C 
ATOM     12  C   UNL     1     -33.266  27.883   2.896  0.00  0.00    -0.056 C 
ATOM     13  C   UNL     1     -38.752  25.609   1.571  0.00  0.00    +0.177 C 
ATOM     14  C   UNL     1     -37.717  23.432   2.666  0.00  0.00    +0.050 C 
ATOM     15  C   UNL     1     -37.715  24.456   1.502  0.00  0.00    +0.042 C 
ATOM     16  C   UNL     1     -35.270  26.910   4.052  0.00  0.00    +0.229 C 
ATOM     17  C   UNL     1     -36.386  23.397   3.480  0.00  0.00    +0.224 C 
ATOM     18  C   UNL     1     -38.146  26.849   0.916  0.00  0.00    +0.341 C 
ATOM     19  C   UNL     1     -36.162  24.712   4.234  0.00  0.00    +0.354 C 
ATOM     20  C   UNL     1     -38.086  22.041   2.116  0.00  0.00    +0.004 C 
ATOM     21  C   UNL     1     -35.148  22.972   2.684  0.00  0.00    +0.055 C 
ATOM     22  H   UNL     1     -34.187  30.519   1.513  0.00  0.00    -0.079 HD
ENDROOT
BRANCH  13  23
ATOM     23  O   UNL     1     -39.876  25.248   0.768  0.00  0.00    -0.376 OA
ATOM     24  H   UNL     1     -39.627  24.530   0.166  0.00  0.00    +0.211 HD
ENDBRANCH  13  23
BRANCH  13  25
ATOM     25  C   UNL     1     -39.289  26.007   2.945  0.00  0.00    +0.038 C 
ATOM     26  C   UNL     1     -40.801  25.901   2.998  0.00  0.00    +0.003 C 
ENDBRANCH  13  25
BRANCH  17  27
ATOM     27  O   UNL     1     -36.562  22.433   4.531  0.00  0.00    -0.445 OA
BRANCH  27  29
ATOM     28  O   UNL     1     -35.159  20.681   3.982  0.00  0.00    -0.250 OA
ATOM     29  C   UNL     1     -35.516  21.577   4.737  0.00  0.00    +0.318 C 
ATOM     30  C   UNL     1     -34.847  21.894   6.040  0.00  0.00    +0.121 C 
ENDBRANCH  27  29
ENDBRANCH  17  27
TORSDOF 4
ENDMDL
MODEL 2
REMARK VINA RESULT:      -5.9      2.572      5.747
REMARK  Name = 21596585
REMARK  4 active torsions:
REMARK  status: ('A' for Active; 'I' for Inactive)
REMARK    1  A    between atoms: C_13  and  O_23
REMARK    2  A    between atoms: C_13  and  C_25
REMARK    3  A    between atoms: C_17  and  O_27
REMARK    4  A    between atoms: O_27  and  C_29
REMARK                            x       y       z     vdW  Elec       q    Type
REMARK                         _______ _______ _______ _____ _____    ______ ____
ROOT
ATOM      1  O   UNL     1     -35.204  23.024   3.128  0.00  0.00    -0.453 OA
ATOM      2  O   UNL     1     -36.352  24.491   0.977  0.00  0.00    -0.442 OA
ATOM      3  O   UNL     1     -35.420  21.315   4.663  0.00  0.00    -0.248 OA
ATOM      4  O   UNL     1     -36.059  23.779  -1.189  0.00  0.00    -0.246 OA
ATOM      5  N   UNL     1     -33.975  26.181   4.482  0.00  0.00    +0.396 N 
ATOM      6  C   UNL     1     -34.005  25.145   3.389  0.00  0.00    +0.006 C 
ATOM      7  C   UNL     1     -34.569  23.890   4.064  0.00  0.00    +0.152 C 
ATOM      8  C   UNL     1     -35.528  24.459   5.092  0.00  0.00    +0.019 C 
ATOM      9  C   UNL     1     -34.747  25.645   5.620  0.00  0.00    -0.073 C 
ATOM     10  C   UNL     1     -34.795  25.771   2.265  0.00  0.00    -0.023 C 
ATOM     11  C   UNL     1     -34.594  27.400   3.913  0.00  0.00    -0.050 C 
ATOM     12  C   UNL     1     -35.098  27.037   2.562  0.00  0.00    -0.056 C 
ATOM     13  C   UNL     1     -36.320  21.079   2.403  0.00  0.00    +0.177 C 
ATOM     14  C   UNL     1     -38.106  21.859   0.609  0.00  0.00    +0.050 C 
ATOM     15  C   UNL     1     -37.626  21.855   2.084  0.00  0.00    +0.042 C 
ATOM     16  C   UNL     1     -35.056  25.112   0.952  0.00  0.00    +0.229 C 
ATOM     17  C   UNL     1     -38.149  23.278  -0.037  0.00  0.00    +0.224 C 
ATOM     18  C   UNL     1     -35.601  21.786   3.549  0.00  0.00    +0.341 C 
ATOM     19  C   UNL     1     -36.742  23.869  -0.175  0.00  0.00    +0.354 C 
ATOM     20  C   UNL     1     -39.469  21.148   0.518  0.00  0.00    +0.004 C 
ATOM     21  C   UNL     1     -39.125  24.261   0.617  0.00  0.00    +0.055 C 
ATOM     22  H   UNL     1     -33.037  26.404   4.813  0.00  0.00    -0.079 HD
ENDROOT
BRANCH  13  23
ATOM     23  O   UNL     1     -36.676  19.787   2.896  0.00  0.00    -0.376 OA
ATOM     24  H   UNL     1     -36.941  19.220   2.156  0.00  0.00    +0.211 HD
ENDBRANCH  13  23
BRANCH  13  25
ATOM     25  C   UNL     1     -35.319  20.867   1.267  0.00  0.00    +0.038 C 
ATOM     26  C   UNL     1     -34.346  19.749   1.591  0.00  0.00    +0.003 C 
ENDBRANCH  13  25
BRANCH  17  27
ATOM     27  O   UNL     1     -38.575  23.105  -1.399  0.00  0.00    -0.445 OA
BRANCH  27  29
ATOM     28  O   UNL     1     -39.095  25.225  -2.157  0.00  0.00    -0.250 OA
ATOM     29  C   UNL     1     -39.408  24.072  -1.890  0.00  0.00    +0.318 C 
ATOM     30  C   UNL     1     -40.789  23.515  -2.062  0.00  0.00    +0.121 C 
ENDBRANCH  27  29
ENDBRANCH  17  27
TORSDOF 4
ENDMDL
MODEL 3
REMARK VINA RESULT:      -5.9      2.742      3.963
REMARK  Name = 21596585
REMARK  4 active torsions:
REMARK  status: ('A' for Active; 'I' for Inactive)
REMARK    1  A    between atoms: C_13  and  O_23
REMARK    2  A    between atoms: C_13  and  C_25
REMARK    3  A    between atoms: C_17  and  O_27
REMARK    4  A    between atoms: O_27  and  C_29
REMARK                            x       y       z     vdW  Elec       q    Type
REMARK                         _______ _______ _______ _____ _____    ______ ____
ROOT
ATOM      1  O   UNL     1     -37.235  24.452   2.212  0.00  0.00    -0.453 OA
ATOM      2  O   UNL     1     -35.236  22.468   2.622  0.00  0.00    -0.442 OA
ATOM      3  O   UNL     1     -38.631  25.544   0.735  0.00  0.00    -0.248 OA
ATOM      4  O   UNL     1     -35.842  20.294   3.055  0.00  0.00    -0.246 OA
ATOM      5  N   UNL     1     -35.404  26.616   4.509  0.00  0.00    +0.396 N 
ATOM      6  C   UNL     1     -36.170  25.350   4.229  0.00  0.00    +0.006 C 
ATOM      7  C   UNL     1     -36.938  25.643   2.935  0.00  0.00    +0.152 C 
ATOM      8  C   UNL     1     -36.001  26.572   2.187  0.00  0.00    +0.019 C 
ATOM      9  C   UNL     1     -35.493  27.462   3.303  0.00  0.00    -0.073 C 
ATOM     10  C   UNL     1     -35.136  24.251   4.215  0.00  0.00    -0.023 C 
ATOM     11  C   UNL     1     -34.013  26.202   4.799  0.00  0.00    -0.050 C 
ATOM     12  C   UNL     1     -33.940  24.737   4.557  0.00  0.00    -0.056 C 
ATOM     13  C   UNL     1     -38.170  23.157   0.479  0.00  0.00    +0.177 C 
ATOM     14  C   UNL     1     -36.406  21.264  -0.083  0.00  0.00    +0.050 C 
ATOM     15  C   UNL     1     -36.777  22.769  -0.086  0.00  0.00    +0.042 C 
ATOM     16  C   UNL     1     -35.446  22.806   4.004  0.00  0.00    +0.229 C 
ATOM     17  C   UNL     1     -35.166  20.920   0.799  0.00  0.00    +0.224 C 
ATOM     18  C   UNL     1     -38.065  24.535   1.130  0.00  0.00    +0.341 C 
ATOM     19  C   UNL     1     -35.454  21.164   2.283  0.00  0.00    +0.354 C 
ATOM     20  C   UNL     1     -36.225  20.783  -1.535  0.00  0.00    +0.004 C 
ATOM     21  C   UNL     1     -33.852  21.570   0.354  0.00  0.00    +0.055 C 
ATOM     22  H   UNL     1     -35.767  27.150   5.299  0.00  0.00    -0.079 HD
ENDROOT
BRANCH  13  23
ATOM     23  O   UNL     1     -39.072  23.306  -0.618  0.00  0.00    -0.376 OA
ATOM     24  H   UNL     1     -39.905  22.853  -0.416  0.00  0.00    +0.211 HD
ENDBRANCH  13  23
BRANCH  13  25
ATOM     25  C   UNL     1     -38.828  22.205   1.477  0.00  0.00    +0.038 C 
ATOM     26  C   UNL     1     -39.955  21.421   0.831  0.00  0.00    +0.003 C 
ENDBRANCH  13  25
BRANCH  17  27
ATOM     27  O   UNL     1     -34.978  19.497   0.722  0.00  0.00    -0.445 OA
BRANCH  27  29
ATOM     28  O   UNL     1     -33.272  19.119  -0.789  0.00  0.00    -0.250 OA
ATOM     29  C   UNL     1     -33.732  19.079   0.345  0.00  0.00    +0.318 C 
ATOM     30  C   UNL     1     -32.987  18.557   1.536  0.00  0.00    +0.121 C 
ENDBRANCH  27  29
ENDBRANCH  17  27
TORSDOF 4
ENDMDL
MODEL 4
REMARK VINA RESULT:      -5.7      3.142      5.563
REMARK  Name = 21596585
REMARK  4 active torsions:
REMARK  status: ('A' for Active; 'I' for Inactive)
REMARK    1  A    between atoms: C_13  and  O_23
REMARK    2  A    between atoms: C_13  and  C_25
REMARK    3  A    between atoms: C_17  and  O_27
REMARK    4  A    between atoms: O_27  and  C_29
REMARK                            x       y       z     vdW  Elec       q    Type
REMARK                         _______ _______ _______ _____ _____    ______ ____
ROOT
ATOM      1  O   UNL     1     -37.119  22.951   1.495  0.00  0.00    -0.453 OA
ATOM      2  O   UNL     1     -34.634  24.306   1.792  0.00  0.00    -0.442 OA
ATOM      3  O   UNL     1     -39.106  22.280   2.455  0.00  0.00    -0.248 OA
ATOM      4  O   UNL     1     -34.498  26.565   1.390  0.00  0.00    -0.246 OA
ATOM      5  N   UNL     1     -35.363  20.375  -0.400  0.00  0.00    +0.396 N 
ATOM      6  C   UNL     1     -35.813  21.802  -0.232  0.00  0.00    +0.006 C 
ATOM      7  C   UNL     1     -36.959  21.727   0.783  0.00  0.00    +0.152 C 
ATOM      8  C   UNL     1     -36.546  20.572   1.676  0.00  0.00    +0.019 C 
ATOM      9  C   UNL     1     -36.003  19.581   0.666  0.00  0.00    -0.073 C 
ATOM     10  C   UNL     1     -34.571  22.572   0.144  0.00  0.00    -0.023 C 
ATOM     11  C   UNL     1     -33.887  20.389  -0.276  0.00  0.00    -0.050 C 
ATOM     12  C   UNL     1     -33.500  21.776   0.094  0.00  0.00    -0.056 C 
ATOM     13  C   UNL     1     -38.121  24.446   3.016  0.00  0.00    +0.177 C 
ATOM     14  C   UNL     1     -36.147  25.776   4.177  0.00  0.00    +0.050 C 
ATOM     15  C   UNL     1     -36.888  24.432   3.960  0.00  0.00    +0.042 C 
ATOM     16  C   UNL     1     -34.533  24.046   0.381  0.00  0.00    +0.229 C 
ATOM     17  C   UNL     1     -34.666  25.767   3.687  0.00  0.00    +0.224 C 
ATOM     18  C   UNL     1     -38.207  23.096   2.307  0.00  0.00    +0.341 C 
ATOM     19  C   UNL     1     -34.584  25.619   2.164  0.00  0.00    +0.354 C 
ATOM     20  C   UNL     1     -36.255  26.181   5.659  0.00  0.00    +0.004 C 
ATOM     21  C   UNL     1     -33.747  24.777   4.411  0.00  0.00    +0.055 C 
ATOM     22  H   UNL     1     -35.619  19.965  -1.298  0.00  0.00    -0.079 HD
ENDROOT
BRANCH  13  23
ATOM     23  O   UNL     1     -39.297  24.548   3.819  0.00  0.00    -0.376 OA
ATOM     24  H   UNL     1     -39.865  23.778   3.659  0.00  0.00    +0.211 HD
ENDBRANCH  13  23
BRANCH  13  25
ATOM     25  C   UNL     1     -38.199  25.548   1.960  0.00  0.00    +0.038 C 
ATOM     26  C   UNL     1     -39.617  26.068   1.809  0.00  0.00    +0.003 C 
ENDBRANCH  13  25
BRANCH  17  27
ATOM     27  O   UNL     1     -34.137  27.083   3.925  0.00  0.00    -0.445 OA
BRANCH  27  29
ATOM     28  O   UNL     1     -31.848  26.950   3.641  0.00  0.00    -0.250 OA
ATOM     29  C   UNL     1     -32.835  27.136   4.341  0.00  0.00    +0.318 C 
ATOM     30  C   UNL     1     -32.780  27.462   5.802  0.00  0.00    +0.121 C 
ENDBRANCH  27  29
ENDBRANCH  17  27
TORSDOF 4
ENDMDL
MODEL 5
REMARK VINA RESULT:      -5.6      3.172      5.254
REMARK  Name = 21596585
REMARK  4 active torsions:
REMARK  status: ('A' for Active; 'I' for Inactive)
REMARK    1  A    between atoms: C_13  and  O_23
REMARK    2  A    between atoms: C_13  and  C_25
REMARK    3  A    between atoms: C_17  and  O_27
REMARK    4  A    between atoms: O_27  and  C_29
REMARK                            x       y       z     vdW  Elec       q    Type
REMARK                         _______ _______ _______ _____ _____    ______ ____
ROOT
ATOM      1  O   UNL     1     -36.436  22.162  -0.064  0.00  0.00    -0.453 OA
ATOM      2  O   UNL     1     -35.836  24.682   1.115  0.00  0.00    -0.442 OA
ATOM      3  O   UNL     1     -36.387  19.862   0.110  0.00  0.00    -0.248 OA
ATOM      4  O   UNL     1     -37.362  25.698   2.500  0.00  0.00    -0.246 OA
ATOM      5  N   UNL     1     -35.283  23.503  -3.255  0.00  0.00    +0.396 N 
ATOM      6  C   UNL     1     -36.236  23.528  -2.089  0.00  0.00    +0.006 C 
ATOM      7  C   UNL     1     -36.094  22.143  -1.447  0.00  0.00    +0.152 C 
ATOM      8  C   UNL     1     -34.637  21.802  -1.693  0.00  0.00    +0.019 C 
ATOM      9  C   UNL     1     -34.439  22.301  -3.110  0.00  0.00    -0.073 C 
ATOM     10  C   UNL     1     -35.844  24.738  -1.277  0.00  0.00    -0.023 C 
ATOM     11  C   UNL     1     -34.494  24.753  -3.171  0.00  0.00    -0.050 C 
ATOM     12  C   UNL     1     -34.886  25.425  -1.904  0.00  0.00    -0.056 C 
ATOM     13  C   UNL     1     -36.825  21.250   2.074  0.00  0.00    +0.177 C 
ATOM     14  C   UNL     1     -35.902  23.011   3.824  0.00  0.00    +0.050 C 
ATOM     15  C   UNL     1     -35.609  21.990   2.695  0.00  0.00    +0.042 C 
ATOM     16  C   UNL     1     -36.543  25.180  -0.035  0.00  0.00    +0.229 C 
ATOM     17  C   UNL     1     -35.492  24.475   3.474  0.00  0.00    +0.224 C 
ATOM     18  C   UNL     1     -36.527  20.973   0.602  0.00  0.00    +0.341 C 
ATOM     19  C   UNL     1     -36.347  25.033   2.331  0.00  0.00    +0.354 C 
ATOM     20  C   UNL     1     -35.239  22.529   5.128  0.00  0.00    +0.004 C 
ATOM     21  C   UNL     1     -33.995  24.691   3.231  0.00  0.00    +0.055 C 
ATOM     22  H   UNL     1     -35.744  23.457  -4.163  0.00  0.00    -0.079 HD
ENDROOT
BRANCH  13  23
ATOM     23  O   UNL     1     -36.939  19.973   2.702  0.00  0.00    -0.376 OA
ATOM     24  H   UNL     1     -36.056  19.595   2.831  0.00  0.00    +0.211 HD
ENDBRANCH  13  23
BRANCH  13  25
ATOM     25  C   UNL     1     -38.194  21.922   2.168  0.00  0.00    +0.038 C 
ATOM     26  C   UNL     1     -39.250  21.129   1.421  0.00  0.00    +0.003 C 
ENDBRANCH  13  25
BRANCH  17  27
ATOM     27  O   UNL     1     -35.858  25.293   4.598  0.00  0.00    -0.445 OA
BRANCH  27  29
ATOM     28  O   UNL     1     -34.953  27.386   4.224  0.00  0.00    -0.250 OA
ATOM     29  C   UNL     1     -35.027  26.345   4.865  0.00  0.00    +0.318 C 
ATOM     30  C   UNL     1     -34.200  26.046   6.078  0.00  0.00    +0.121 C 
ENDBRANCH  27  29
ENDBRANCH  17  27
TORSDOF 4
ENDMDL
MODEL 6
REMARK VINA RESULT:      -5.6      2.203      3.196
REMARK  Name = 21596585
REMARK  4 active torsions:
REMARK  status: ('A' for Active; 'I' for Inactive)
REMARK    1  A    between atoms: C_13  and  O_23
REMARK    2  A    between atoms: C_13  and  C_25
REMARK    3  A    between atoms: C_17  and  O_27
REMARK    4  A    between atoms: O_27  and  C_29
REMARK                            x       y       z     vdW  Elec       q    Type
REMARK                         _______ _______ _______ _____ _____    ______ ____
ROOT
ATOM      1  O   UNL     1     -37.691  24.865  -0.471  0.00  0.00    -0.453 OA
ATOM      2  O   UNL     1     -36.978  25.340   2.243  0.00  0.00    -0.442 OA
ATOM      3  O   UNL     1     -37.572  23.475  -2.308  0.00  0.00    -0.248 OA
ATOM      4  O   UNL     1     -38.308  24.546   3.940  0.00  0.00    -0.246 OA
ATOM      5  N   UNL     1     -37.036  28.390  -1.146  0.00  0.00    +0.396 N 
ATOM      6  C   UNL     1     -37.811  27.313  -0.435  0.00  0.00    +0.006 C 
ATOM      7  C   UNL     1     -37.551  26.045  -1.257  0.00  0.00    +0.152 C 
ATOM      8  C   UNL     1     -36.138  26.255  -1.766  0.00  0.00    +0.019 C 
ATOM      9  C   UNL     1     -36.156  27.726  -2.127  0.00  0.00    -0.073 C 
ATOM     10  C   UNL     1     -37.331  27.351   0.995  0.00  0.00    -0.023 C 
ATOM     11  C   UNL     1     -36.268  29.105  -0.102  0.00  0.00    -0.050 C 
ATOM     12  C   UNL     1     -36.486  28.371   1.172  0.00  0.00    -0.056 C 
ATOM     13  C   UNL     1     -37.749  22.546  -0.053  0.00  0.00    +0.177 C 
ATOM     14  C   UNL     1     -36.619  22.178   2.313  0.00  0.00    +0.050 C 
ATOM     15  C   UNL     1     -36.472  22.595   0.827  0.00  0.00    +0.042 C 
ATOM     16  C   UNL     1     -37.852  26.471   2.082  0.00  0.00    +0.229 C 
ATOM     17  C   UNL     1     -36.293  23.319   3.325  0.00  0.00    +0.224 C 
ATOM     18  C   UNL     1     -37.661  23.654  -1.101  0.00  0.00    +0.341 C 
ATOM     19  C   UNL     1     -37.314  24.457   3.228  0.00  0.00    +0.354 C 
ATOM     20  C   UNL     1     -35.766  20.922   2.574  0.00  0.00    +0.004 C 
ATOM     21  C   UNL     1     -34.851  23.834   3.282  0.00  0.00    +0.055 C 
ATOM     22  H   UNL     1     -37.622  29.057  -1.647  0.00  0.00    -0.079 HD
ENDROOT
BRANCH  13  23
ATOM     23  O   UNL     1     -37.747  21.315  -0.777  0.00  0.00    -0.376 OA
ATOM     24  H   UNL     1     -37.073  21.351  -1.473  0.00  0.00    +0.211 HD
ENDBRANCH  13  23
BRANCH  13  25
ATOM     25  C   UNL     1     -39.104  22.655   0.646  0.00  0.00    +0.038 C 
ATOM     26  C   UNL     1     -39.797  21.308   0.720  0.00  0.00    +0.003 C 
ENDBRANCH  13  25
BRANCH  17  27
ATOM     27  O   UNL     1     -36.510  22.785   4.643  0.00  0.00    -0.445 OA
BRANCH  27  29
ATOM     28  O   UNL     1     -35.341  24.274   5.969  0.00  0.00    -0.250 OA
ATOM     29  C   UNL     1     -35.585  23.136   5.587  0.00  0.00    +0.318 C 
ATOM     30  C   UNL     1     -34.896  21.910   6.106  0.00  0.00    +0.121 C 
ENDBRANCH  27  29
ENDBRANCH  17  27
TORSDOF 4
ENDMDL
MODEL 7
REMARK VINA RESULT:      -5.6      1.439      1.921
REMARK  Name = 21596585
REMARK  4 active torsions:
REMARK  status: ('A' for Active; 'I' for Inactive)
REMARK    1  A    between atoms: C_13  and  O_23
REMARK    2  A    between atoms: C_13  and  C_25
REMARK    3  A    between atoms: C_17  and  O_27
REMARK    4  A    between atoms: O_27  and  C_29
REMARK                            x       y       z     vdW  Elec       q    Type
REMARK                         _______ _______ _______ _____ _____    ______ ____
ROOT
ATOM      1  O   UNL     1     -36.731  26.964   2.118  0.00  0.00    -0.453 OA
ATOM      2  O   UNL     1     -35.564  24.451   2.763  0.00  0.00    -0.442 OA
ATOM      3  O   UNL     1     -38.138  28.171   0.744  0.00  0.00    -0.248 OA
ATOM      4  O   UNL     1     -36.647  23.009   4.188  0.00  0.00    -0.246 OA
ATOM      5  N   UNL     1     -33.491  28.512   2.765  0.00  0.00    +0.396 N 
ATOM      6  C   UNL     1     -34.690  27.732   3.237  0.00  0.00    +0.006 C 
ATOM      7  C   UNL     1     -35.770  28.014   2.186  0.00  0.00    +0.152 C 
ATOM      8  C   UNL     1     -34.968  28.167   0.908  0.00  0.00    +0.019 C 
ATOM      9  C   UNL     1     -33.771  28.963   1.388  0.00  0.00    -0.073 C 
ATOM     10  C   UNL     1     -34.205  26.313   3.403  0.00  0.00    -0.023 C 
ATOM     11  C   UNL     1     -32.342  27.580   2.824  0.00  0.00    -0.050 C 
ATOM     12  C   UNL     1     -32.887  26.247   3.191  0.00  0.00    -0.056 C 
ATOM     13  C   UNL     1     -38.682  25.872   1.374  0.00  0.00    +0.177 C 
ATOM     14  C   UNL     1     -38.084  23.299   1.195  0.00  0.00    +0.050 C 
ATOM     15  C   UNL     1     -37.877  24.744   0.675  0.00  0.00    +0.042 C 
ATOM     16  C   UNL     1     -35.053  25.185   3.889  0.00  0.00    +0.229 C 
ATOM     17  C   UNL     1     -36.794  22.647   1.782  0.00  0.00    +0.224 C 
ATOM     18  C   UNL     1     -37.848  27.151   1.354  0.00  0.00    +0.341 C 
ATOM     19  C   UNL     1     -36.339  23.365   3.057  0.00  0.00    +0.354 C 
ATOM     20  C   UNL     1     -38.697  22.439   0.074  0.00  0.00    +0.004 C 
ATOM     21  C   UNL     1     -35.646  22.464   0.785  0.00  0.00    +0.055 C 
ATOM     22  H   UNL     1     -33.285  29.334   3.332  0.00  0.00    -0.079 HD
ENDROOT
BRANCH  13  23
ATOM     23  O   UNL     1     -39.844  26.145   0.589  0.00  0.00    -0.376 OA
ATOM     24  H   UNL     1     -39.660  25.942  -0.341  0.00  0.00    +0.211 HD
ENDBRANCH  13  23
BRANCH  13  25
ATOM     25  C   UNL     1     -39.154  25.630   2.808  0.00  0.00    +0.038 C 
ATOM     26  C   UNL     1     -40.629  25.946   2.964  0.00  0.00    +0.003 C 
ENDBRANCH  13  25
BRANCH  17  27
ATOM     27  O   UNL     1     -37.159  21.337   2.248  0.00  0.00    -0.445 OA
BRANCH  27  29
ATOM     28  O   UNL     1     -35.226  20.211   2.822  0.00  0.00    -0.250 OA
ATOM     29  C   UNL     1     -36.207  20.367   2.106  0.00  0.00    +0.318 C 
ATOM     30  C   UNL     1     -36.534  19.498   0.929  0.00  0.00    +0.121 C 
ENDBRANCH  27  29
ENDBRANCH  17  27
TORSDOF 4
ENDMDL
MODEL 8
REMARK VINA RESULT:      -5.6      2.434      4.469
REMARK  Name = 21596585
REMARK  4 active torsions:
REMARK  status: ('A' for Active; 'I' for Inactive)
REMARK    1  A    between atoms: C_13  and  O_23
REMARK    2  A    between atoms: C_13  and  C_25
REMARK    3  A    between atoms: C_17  and  O_27
REMARK    4  A    between atoms: O_27  and  C_29
REMARK                            x       y       z     vdW  Elec       q    Type
REMARK                         _______ _______ _______ _____ _____    ______ ____
ROOT
ATOM      1  O   UNL     1     -34.456  25.741   2.609  0.00  0.00    -0.453 OA
ATOM      2  O   UNL     1     -35.822  23.716   1.148  0.00  0.00    -0.442 OA
ATOM      3  O   UNL     1     -34.594  27.606   3.961  0.00  0.00    -0.248 OA
ATOM      4  O   UNL     1     -36.426  21.756   2.185  0.00  0.00    -0.246 OA
ATOM      5  N   UNL     1     -32.105  26.006  -0.167  0.00  0.00    +0.396 N 
ATOM      6  C   UNL     1     -32.742  25.209   0.940  0.00  0.00    +0.006 C 
ATOM      7  C   UNL     1     -33.358  26.264   1.867  0.00  0.00    +0.152 C 
ATOM      8  C   UNL     1     -33.763  27.365   0.906  0.00  0.00    +0.019 C 
ATOM      9  C   UNL     1     -32.581  27.397  -0.042  0.00  0.00    -0.073 C 
ATOM     10  C   UNL     1     -33.665  24.233   0.252  0.00  0.00    -0.023 C 
ATOM     11  C   UNL     1     -32.544  25.378  -1.434  0.00  0.00    -0.050 C 
ATOM     12  C   UNL     1     -33.527  24.323  -1.074  0.00  0.00    -0.056 C 
ATOM     13  C   UNL     1     -36.198  25.776   4.197  0.00  0.00    +0.177 C 
ATOM     14  C   UNL     1     -38.205  24.407   3.143  0.00  0.00    +0.050 C 
ATOM     15  C   UNL     1     -37.297  25.663   3.106  0.00  0.00    +0.042 C 
ATOM     16  C   UNL     1     -34.489  23.211   0.961  0.00  0.00    +0.229 C 
ATOM     17  C   UNL     1     -38.093  23.508   1.874  0.00  0.00    +0.224 C 
ATOM     18  C   UNL     1     -34.996  26.508   3.603  0.00  0.00    +0.341 C 
ATOM     19  C   UNL     1     -36.703  22.873   1.762  0.00  0.00    +0.354 C 
ATOM     20  C   UNL     1     -39.659  24.840   3.410  0.00  0.00    +0.004 C 
ATOM     21  C   UNL     1     -38.527  24.174   0.565  0.00  0.00    +0.055 C 
ATOM     22  H   UNL     1     -31.085  26.016  -0.134  0.00  0.00    -0.079 HD
ENDROOT
BRANCH  13  23
ATOM     23  O   UNL     1     -36.692  26.612   5.244  0.00  0.00    -0.376 OA
ATOM     24  H   UNL     1     -37.651  26.716   5.150  0.00  0.00    +0.211 HD
ENDBRANCH  13  23
BRANCH  13  25
ATOM     25  C   UNL     1     -35.700  24.486   4.846  0.00  0.00    +0.038 C 
ATOM     26  C   UNL     1     -34.647  24.770   5.900  0.00  0.00    +0.003 C 
ENDBRANCH  13  25
BRANCH  17  27
ATOM     27  O   UNL     1     -38.961  22.380   2.079  0.00  0.00    -0.445 OA
BRANCH  27  29
ATOM     28  O   UNL     1     -40.875  22.702   0.827  0.00  0.00    -0.250 OA
ATOM     29  C   UNL     1     -39.832  22.105   1.062  0.00  0.00    +0.318 C 
ATOM     30  C   UNL     1     -39.325  20.949   0.255  0.00  0.00    +0.121 C 
ENDBRANCH  27  29
ENDBRANCH  17  27
TORSDOF 4
ENDMDL
MODEL 9
REMARK VINA RESULT:      -5.5      3.534      5.897
REMARK  Name = 21596585
REMARK  4 active torsions:
REMARK  status: ('A' for Active; 'I' for Inactive)
REMARK    1  A    between atoms: C_13  and  O_23
REMARK    2  A    between atoms: C_13  and  C_25
REMARK    3  A    between atoms: C_17  and  O_27
REMARK    4  A    between atoms: O_27  and  C_29
REMARK                            x       y       z     vdW  Elec       q    Type
REMARK                         _______ _______ _______ _____ _____    ______ ____
ROOT
ATOM      1  O   UNL     1     -34.489  21.345   0.341  0.00  0.00    -0.453 OA
ATOM      2  O   UNL     1     -34.204  24.042   1.204  0.00  0.00    -0.442 OA
ATOM      3  O   UNL     1     -34.899  19.146   0.905  0.00  0.00    -0.248 OA
ATOM      4  O   UNL     1     -36.047  25.408   1.344  0.00  0.00    -0.246 OA
ATOM      5  N   UNL     1     -31.652  21.874  -1.891  0.00  0.00    +0.396 N 
ATOM      6  C   UNL     1     -33.055  22.203  -1.451  0.00  0.00    +0.006 C 
ATOM      7  C   UNL     1     -33.486  20.997  -0.609  0.00  0.00    +0.152 C 
ATOM      8  C   UNL     1     -32.188  20.552   0.036  0.00  0.00    +0.019 C 
ATOM      9  C   UNL     1     -31.206  20.705  -1.108  0.00  0.00    -0.073 C 
ATOM     10  C   UNL     1     -32.958  23.550  -0.778  0.00  0.00    -0.023 C 
ATOM     11  C   UNL     1     -30.838  23.078  -1.609  0.00  0.00    -0.050 C 
ATOM     12  C   UNL     1     -31.720  24.037  -0.894  0.00  0.00    -0.056 C 
ATOM     13  C   UNL     1     -36.070  20.963   2.047  0.00  0.00    +0.177 C 
ATOM     14  C   UNL     1     -35.929  23.039   3.685  0.00  0.00    +0.050 C 
ATOM     15  C   UNL     1     -35.255  21.776   3.089  0.00  0.00    +0.042 C 
ATOM     16  C   UNL     1     -34.122  24.292  -0.210  0.00  0.00    +0.229 C 
ATOM     17  C   UNL     1     -35.174  24.366   3.367  0.00  0.00    +0.224 C 
ATOM     18  C   UNL     1     -35.098  20.345   1.044  0.00  0.00    +0.341 C 
ATOM     19  C   UNL     1     -35.210  24.682   1.869  0.00  0.00    +0.354 C 
ATOM     20  C   UNL     1     -36.125  22.842   5.200  0.00  0.00    +0.004 C 
ATOM     21  C   UNL     1     -33.757  24.462   3.941  0.00  0.00    +0.055 C 
ATOM     22  H   UNL     1     -31.574  21.641  -2.881  0.00  0.00    -0.079 HD
ENDROOT
BRANCH  13  23
ATOM     23  O   UNL     1     -36.692  19.868   2.721  0.00  0.00    -0.376 OA
ATOM     24  H   UNL     1     -36.245  19.713   3.567  0.00  0.00    +0.211 HD
ENDBRANCH  13  23
BRANCH  13  25
ATOM     25  C   UNL     1     -37.163  21.693   1.267  0.00  0.00    +0.038 C 
ATOM     26  C   UNL     1     -38.541  21.362   1.809  0.00  0.00    +0.003 C 
ENDBRANCH  13  25
BRANCH  17  27
ATOM     27  O   UNL     1     -35.937  25.434   3.954  0.00  0.00    -0.445 OA
BRANCH  27  29
ATOM     28  O   UNL     1     -34.887  27.492   3.963  0.00  0.00    -0.250 OA
ATOM     29  C   UNL     1     -35.211  26.448   4.515  0.00  0.00    +0.318 C 
ATOM     30  C   UNL     1     -34.860  26.102   5.930  0.00  0.00    +0.121 C 
ENDBRANCH  27  29
ENDBRANCH  17  27
TORSDOF 4
ENDMDL
