MODEL 1
REMARK VINA RESULT:      -5.0      0.000      0.000
REMARK  Name = 5282205
REMARK  17 active torsions:
REMARK  status: ('A' for Active; 'I' for Inactive)
REMARK    1  A    between atoms: C_2  and  C_9
REMARK    2  A    between atoms: C_3  and  C_21
REMARK    3  A    between atoms: C_4  and  O_7
REMARK    4  A    between atoms: C_10  and  C_11
REMARK    5  A    between atoms: C_11  and  O_12
REMARK    6  A    between atoms: C_11  and  C_14
REMARK    7  A    between atoms: C_14  and  C_15
REMARK    8  A    between atoms: C_15  and  C_17
REMARK    9  A    between atoms: C_17  and  C_18
REMARK   10  A    between atoms: C_18  and  C_19
REMARK   11  A    between atoms: C_21  and  C_23
REMARK   12  A    between atoms: C_23  and  C_24
REMARK   13  A    between atoms: C_24  and  C_25
REMARK   14  A    between atoms: C_25  and  C_26
REMARK   15  A    between atoms: C_26  and  C_27
REMARK   16  A    between atoms: C_27  and  C_29
REMARK   17  A    between atoms: C_29  and  O_30
REMARK                            x       y       z     vdW  Elec       q    Type
REMARK                         _______ _______ _______ _____ _____    ______ ____
ROOT
ATOM      1  O   UNL     1     -36.848  19.044  -1.598  0.00  0.00    -0.296 OA
ATOM      2  C   UNL     1     -35.339  20.377   1.307  0.00  0.00    +0.056 C 
ATOM      3  C   UNL     1     -36.662  19.991   0.629  0.00  0.00    +0.071 C 
ATOM      4  C   UNL     1     -34.398  19.215   0.962  0.00  0.00    +0.122 C 
ATOM      5  C   UNL     1     -34.711  18.887  -0.495  0.00  0.00    +0.094 C 
ATOM      6  C   UNL     1     -36.161  19.283  -0.613  0.00  0.00    +0.154 C 
ENDROOT
BRANCH   4   7
ATOM      7  O   UNL     1     -33.046  19.625   1.100  0.00  0.00    -0.384 OA
ATOM      8  H   UNL     1     -33.016  20.543   1.410  0.00  0.00    +0.210 HD
ENDBRANCH   4   7
BRANCH   2   9
ATOM      9  C   UNL     1     -35.487  20.590   2.779  0.00  0.00    -0.026 C 
ATOM     10  C   UNL     1     -35.501  21.800   3.358  0.00  0.00    -0.002 C 
BRANCH  10  11
ATOM     11  C   UNL     1     -35.651  22.110   4.826  0.00  0.00    +0.132 C 
BRANCH  11  12
ATOM     12  O   UNL     1     -35.340  20.922   5.556  0.00  0.00    -0.380 OA
ATOM     13  H   UNL     1     -34.970  21.161   6.421  0.00  0.00    +0.211 HD
ENDBRANCH  11  12
BRANCH  11  14
ATOM     14  C   UNL     1     -34.809  23.275   5.379  0.00  0.00    +0.034 C 
BRANCH  14  15
ATOM     15  C   UNL     1     -35.586  24.596   5.602  0.00  0.00    +0.003 C 
ATOM     16  C   UNL     1     -34.580  25.751   5.694  0.00  0.00    +0.000 C 
BRANCH  15  17
ATOM     17  C   UNL     1     -36.632  24.838   4.493  0.00  0.00    +0.000 C 
BRANCH  17  18
ATOM     18  C   UNL     1     -36.183  25.851   3.433  0.00  0.00    +0.000 C 
BRANCH  18  19
ATOM     19  C   UNL     1     -35.774  25.199   2.110  0.00  0.00    +0.000 C 
ATOM     20  C   UNL     1     -34.279  24.944   1.997  0.00  0.00    +0.000 C 
ENDBRANCH  18  19
ENDBRANCH  17  18
ENDBRANCH  15  17
ENDBRANCH  14  15
ENDBRANCH  11  14
ENDBRANCH  10  11
ENDBRANCH   2   9
BRANCH   3  21
ATOM     21  C   UNL     1     -37.542  21.185   0.303  0.00  0.00    +0.072 C 
BRANCH  21  23
ATOM     22  O   UNL     1     -39.792  20.410  -0.091  0.00  0.00    -0.296 OA
ATOM     23  C   UNL     1     -38.998  20.957   0.673  0.00  0.00    +0.151 C 
BRANCH  23  24
ATOM     24  C   UNL     1     -39.417  21.484   2.039  0.00  0.00    +0.065 C 
BRANCH  24  25
ATOM     25  C   UNL     1     -38.988  22.929   2.299  0.00  0.00    +0.008 C 
BRANCH  25  26
ATOM     26  C   UNL     1     -40.022  23.942   1.794  0.00  0.00    +0.012 C 
BRANCH  26  27
ATOM     27  C   UNL     1     -39.383  25.074   0.994  0.00  0.00    +0.110 C 
BRANCH  27  29
ATOM     28  O   UNL     1     -39.633  26.480   2.940  0.00  0.00    -0.250 OA
ATOM     29  C   UNL     1     -39.377  26.382   1.747  0.00  0.00    +0.317 C 
BRANCH  29  30
ATOM     30  O   UNL     1     -39.056  27.406   0.905  0.00  0.00    -0.444 OA
ATOM     31  C   UNL     1     -38.119  27.083  -0.128  0.00  0.00    +0.256 C 
ENDBRANCH  29  30
ENDBRANCH  27  29
ENDBRANCH  26  27
ENDBRANCH  25  26
ENDBRANCH  24  25
ENDBRANCH  23  24
ENDBRANCH  21  23
ENDBRANCH   3  21
TORSDOF 17
ENDMDL
MODEL 2
REMARK VINA RESULT:      -5.0      2.433      6.919
REMARK  Name = 5282205
REMARK  17 active torsions:
REMARK  status: ('A' for Active; 'I' for Inactive)
REMARK    1  A    between atoms: C_2  and  C_9
REMARK    2  A    between atoms: C_3  and  C_21
REMARK    3  A    between atoms: C_4  and  O_7
REMARK    4  A    between atoms: C_10  and  C_11
REMARK    5  A    between atoms: C_11  and  O_12
REMARK    6  A    between atoms: C_11  and  C_14
REMARK    7  A    between atoms: C_14  and  C_15
REMARK    8  A    between atoms: C_15  and  C_17
REMARK    9  A    between atoms: C_17  and  C_18
REMARK   10  A    between atoms: C_18  and  C_19
REMARK   11  A    between atoms: C_21  and  C_23
REMARK   12  A    between atoms: C_23  and  C_24
REMARK   13  A    between atoms: C_24  and  C_25
REMARK   14  A    between atoms: C_25  and  C_26
REMARK   15  A    between atoms: C_26  and  C_27
REMARK   16  A    between atoms: C_27  and  C_29
REMARK   17  A    between atoms: C_29  and  O_30
REMARK                            x       y       z     vdW  Elec       q    Type
REMARK                         _______ _______ _______ _____ _____    ______ ____
ROOT
ATOM      1  O   UNL     1     -36.616  19.888  -0.908  0.00  0.00    -0.296 OA
ATOM      2  C   UNL     1     -37.840  21.482   2.000  0.00  0.00    +0.056 C 
ATOM      3  C   UNL     1     -36.678  21.388   0.999  0.00  0.00    +0.071 C 
ATOM      4  C   UNL     1     -39.092  21.428   1.114  0.00  0.00    +0.122 C 
ATOM      5  C   UNL     1     -38.769  20.373   0.059  0.00  0.00    +0.094 C 
ATOM      6  C   UNL     1     -37.269  20.474  -0.054  0.00  0.00    +0.154 C 
ENDROOT
BRANCH   4   7
ATOM      7  O   UNL     1     -40.217  21.034   1.884  0.00  0.00    -0.384 OA
ATOM      8  H   UNL     1     -41.004  21.509   1.573  0.00  0.00    +0.210 HD
ENDBRANCH   4   7
BRANCH   2   9
ATOM      9  C   UNL     1     -37.775  22.714   2.844  0.00  0.00    -0.026 C 
ATOM     10  C   UNL     1     -37.511  23.936   2.356  0.00  0.00    -0.002 C 
BRANCH  10  11
ATOM     11  C   UNL     1     -37.433  25.231   3.125  0.00  0.00    +0.132 C 
BRANCH  11  12
ATOM     12  O   UNL     1     -38.319  25.128   4.241  0.00  0.00    -0.380 OA
ATOM     13  H   UNL     1     -38.873  24.338   4.143  0.00  0.00    +0.211 HD
ENDBRANCH  11  12
BRANCH  11  14
ATOM     14  C   UNL     1     -36.040  25.656   3.627  0.00  0.00    +0.034 C 
BRANCH  14  15
ATOM     15  C   UNL     1     -34.899  24.658   3.310  0.00  0.00    +0.003 C 
ATOM     16  C   UNL     1     -33.844  25.371   2.453  0.00  0.00    +0.000 C 
BRANCH  15  17
ATOM     17  C   UNL     1     -34.285  24.065   4.596  0.00  0.00    +0.000 C 
BRANCH  17  18
ATOM     18  C   UNL     1     -35.272  23.978   5.766  0.00  0.00    +0.000 C 
BRANCH  18  19
ATOM     19  C   UNL     1     -35.752  22.551   6.044  0.00  0.00    +0.000 C 
ATOM     20  C   UNL     1     -34.987  21.491   5.268  0.00  0.00    +0.000 C 
ENDBRANCH  18  19
ENDBRANCH  17  18
ENDBRANCH  15  17
ENDBRANCH  14  15
ENDBRANCH  11  14
ENDBRANCH  10  11
ENDBRANCH   2   9
BRANCH   3  21
ATOM     21  C   UNL     1     -35.404  20.828   1.607  0.00  0.00    +0.072 C 
BRANCH  21  23
ATOM     22  O   UNL     1     -33.998  22.420   0.465  0.00  0.00    -0.296 OA
ATOM     23  C   UNL     1     -34.156  21.265   0.858  0.00  0.00    +0.151 C 
BRANCH  23  24
ATOM     24  C   UNL     1     -33.133  20.169   0.595  0.00  0.00    +0.065 C 
BRANCH  24  25
ATOM     25  C   UNL     1     -33.407  18.874   1.360  0.00  0.00    +0.008 C 
BRANCH  25  26
ATOM     26  C   UNL     1     -32.183  17.950   1.398  0.00  0.00    +0.012 C 
BRANCH  26  27
ATOM     27  C   UNL     1     -31.032  18.476   0.543  0.00  0.00    +0.110 C 
BRANCH  27  29
ATOM     28  O   UNL     1     -29.869  16.363   0.613  0.00  0.00    -0.250 OA
ATOM     29  C   UNL     1     -30.173  17.368  -0.015  0.00  0.00    +0.317 C 
BRANCH  29  30
ATOM     30  O   UNL     1     -29.797  17.665  -1.291  0.00  0.00    -0.444 OA
ATOM     31  C   UNL     1     -28.546  17.108  -1.710  0.00  0.00    +0.256 C 
ENDBRANCH  29  30
ENDBRANCH  27  29
ENDBRANCH  26  27
ENDBRANCH  25  26
ENDBRANCH  24  25
ENDBRANCH  23  24
ENDBRANCH  21  23
ENDBRANCH   3  21
TORSDOF 17
ENDMDL
MODEL 3
REMARK VINA RESULT:      -5.0      2.122      6.101
REMARK  Name = 5282205
REMARK  17 active torsions:
REMARK  status: ('A' for Active; 'I' for Inactive)
REMARK    1  A    between atoms: C_2  and  C_9
REMARK    2  A    between atoms: C_3  and  C_21
REMARK    3  A    between atoms: C_4  and  O_7
REMARK    4  A    between atoms: C_10  and  C_11
REMARK    5  A    between atoms: C_11  and  O_12
REMARK    6  A    between atoms: C_11  and  C_14
REMARK    7  A    between atoms: C_14  and  C_15
REMARK    8  A    between atoms: C_15  and  C_17
REMARK    9  A    between atoms: C_17  and  C_18
REMARK   10  A    between atoms: C_18  and  C_19
REMARK   11  A    between atoms: C_21  and  C_23
REMARK   12  A    between atoms: C_23  and  C_24
REMARK   13  A    between atoms: C_24  and  C_25
REMARK   14  A    between atoms: C_25  and  C_26
REMARK   15  A    between atoms: C_26  and  C_27
REMARK   16  A    between atoms: C_27  and  C_29
REMARK   17  A    between atoms: C_29  and  O_30
REMARK                            x       y       z     vdW  Elec       q    Type
REMARK                         _______ _______ _______ _____ _____    ______ ____
ROOT
ATOM      1  O   UNL     1     -34.911  25.243   5.568  0.00  0.00    -0.296 OA
ATOM      2  C   UNL     1     -35.569  22.124   4.041  0.00  0.00    +0.056 C 
ATOM      3  C   UNL     1     -35.029  23.548   3.835  0.00  0.00    +0.071 C 
ATOM      4  C   UNL     1     -34.980  21.700   5.393  0.00  0.00    +0.122 C 
ATOM      5  C   UNL     1     -35.096  22.945   6.269  0.00  0.00    +0.094 C 
ATOM      6  C   UNL     1     -35.004  24.062   5.259  0.00  0.00    +0.154 C 
ENDROOT
BRANCH   4   7
ATOM      7  O   UNL     1     -35.738  20.634   5.943  0.00  0.00    -0.384 OA
ATOM      8  H   UNL     1     -35.164  20.079   6.494  0.00  0.00    +0.210 HD
ENDBRANCH   4   7
BRANCH   2   9
ATOM      9  C   UNL     1     -35.195  21.199   2.927  0.00  0.00    -0.026 C 
ATOM     10  C   UNL     1     -36.089  20.527   2.187  0.00  0.00    -0.002 C 
BRANCH  10  11
ATOM     11  C   UNL     1     -35.806  19.583   1.045  0.00  0.00    +0.132 C 
BRANCH  11  12
ATOM     12  O   UNL     1     -36.903  18.672   0.952  0.00  0.00    -0.380 OA
ATOM     13  H   UNL     1     -37.737  19.161   1.038  0.00  0.00    +0.211 HD
ENDBRANCH  11  12
BRANCH  11  14
ATOM     14  C   UNL     1     -35.562  20.219  -0.336  0.00  0.00    +0.034 C 
BRANCH  14  15
ATOM     15  C   UNL     1     -34.074  20.322  -0.754  0.00  0.00    +0.003 C 
ATOM     16  C   UNL     1     -33.521  21.673  -0.281  0.00  0.00    +0.000 C 
BRANCH  15  17
ATOM     17  C   UNL     1     -33.243  19.142  -0.206  0.00  0.00    +0.000 C 
BRANCH  17  18
ATOM     18  C   UNL     1     -32.026  19.577   0.619  0.00  0.00    +0.000 C 
BRANCH  18  19
ATOM     19  C   UNL     1     -30.691  19.248  -0.056  0.00  0.00    +0.000 C 
ATOM     20  C   UNL     1     -30.073  20.430  -0.784  0.00  0.00    +0.000 C 
ENDBRANCH  18  19
ENDBRANCH  17  18
ENDBRANCH  15  17
ENDBRANCH  14  15
ENDBRANCH  11  14
ENDBRANCH  10  11
ENDBRANCH   2   9
BRANCH   3  21
ATOM     21  C   UNL     1     -35.899  24.396   2.924  0.00  0.00    +0.072 C 
BRANCH  21  23
ATOM     22  O   UNL     1     -37.980  24.368   4.143  0.00  0.00    -0.296 OA
ATOM     23  C   UNL     1     -37.381  24.111   3.100  0.00  0.00    +0.151 C 
BRANCH  23  24
ATOM     24  C   UNL     1     -38.066  23.452   1.910  0.00  0.00    +0.065 C 
BRANCH  24  25
ATOM     25  C   UNL     1     -39.472  22.935   2.217  0.00  0.00    +0.008 C 
BRANCH  25  26
ATOM     26  C   UNL     1     -39.681  21.495   1.733  0.00  0.00    +0.012 C 
BRANCH  26  27
ATOM     27  C   UNL     1     -39.210  21.291   0.296  0.00  0.00    +0.110 C 
BRANCH  27  29
ATOM     28  O   UNL     1     -40.050  20.129  -1.646  0.00  0.00    -0.250 OA
ATOM     29  C   UNL     1     -40.281  20.694  -0.585  0.00  0.00    +0.317 C 
BRANCH  29  30
ATOM     30  O   UNL     1     -41.509  20.888  -0.026  0.00  0.00    -0.444 OA
ATOM     31  C   UNL     1     -42.605  20.288  -0.725  0.00  0.00    +0.256 C 
ENDBRANCH  29  30
ENDBRANCH  27  29
ENDBRANCH  26  27
ENDBRANCH  25  26
ENDBRANCH  24  25
ENDBRANCH  23  24
ENDBRANCH  21  23
ENDBRANCH   3  21
TORSDOF 17
ENDMDL
MODEL 4
REMARK VINA RESULT:      -4.9      2.825      6.564
REMARK  Name = 5282205
REMARK  17 active torsions:
REMARK  status: ('A' for Active; 'I' for Inactive)
REMARK    1  A    between atoms: C_2  and  C_9
REMARK    2  A    between atoms: C_3  and  C_21
REMARK    3  A    between atoms: C_4  and  O_7
REMARK    4  A    between atoms: C_10  and  C_11
REMARK    5  A    between atoms: C_11  and  O_12
REMARK    6  A    between atoms: C_11  and  C_14
REMARK    7  A    between atoms: C_14  and  C_15
REMARK    8  A    between atoms: C_15  and  C_17
REMARK    9  A    between atoms: C_17  and  C_18
REMARK   10  A    between atoms: C_18  and  C_19
REMARK   11  A    between atoms: C_21  and  C_23
REMARK   12  A    between atoms: C_23  and  C_24
REMARK   13  A    between atoms: C_24  and  C_25
REMARK   14  A    between atoms: C_25  and  C_26
REMARK   15  A    between atoms: C_26  and  C_27
REMARK   16  A    between atoms: C_27  and  C_29
REMARK   17  A    between atoms: C_29  and  O_30
REMARK                            x       y       z     vdW  Elec       q    Type
REMARK                         _______ _______ _______ _____ _____    ______ ____
ROOT
ATOM      1  O   UNL     1     -35.763  25.183   5.583  0.00  0.00    -0.296 OA
ATOM      2  C   UNL     1     -35.878  21.981   4.088  0.00  0.00    +0.056 C 
ATOM      3  C   UNL     1     -35.689  23.488   3.848  0.00  0.00    +0.071 C 
ATOM      4  C   UNL     1     -35.069  21.710   5.364  0.00  0.00    +0.122 C 
ATOM      5  C   UNL     1     -35.361  22.907   6.265  0.00  0.00    +0.094 C 
ATOM      6  C   UNL     1     -35.627  24.007   5.269  0.00  0.00    +0.154 C 
ENDROOT
BRANCH   4   7
ATOM      7  O   UNL     1     -35.510  20.507   5.975  0.00  0.00    -0.384 OA
ATOM      8  H   UNL     1     -36.024  20.718   6.770  0.00  0.00    +0.210 HD
ENDBRANCH   4   7
BRANCH   2   9
ATOM      9  C   UNL     1     -35.430  21.153   2.927  0.00  0.00    -0.026 C 
ATOM     10  C   UNL     1     -36.244  20.341   2.236  0.00  0.00    -0.002 C 
BRANCH  10  11
ATOM     11  C   UNL     1     -35.885  19.476   1.053  0.00  0.00    +0.132 C 
BRANCH  11  12
ATOM     12  O   UNL     1     -37.031  18.690   0.725  0.00  0.00    -0.380 OA
ATOM     13  H   UNL     1     -36.758  17.923   0.197  0.00  0.00    +0.211 HD
ENDBRANCH  11  12
BRANCH  11  14
ATOM     14  C   UNL     1     -35.395  20.203  -0.213  0.00  0.00    +0.034 C 
BRANCH  14  15
ATOM     15  C   UNL     1     -33.899  19.990  -0.552  0.00  0.00    +0.003 C 
ATOM     16  C   UNL     1     -33.097  21.183  -0.017  0.00  0.00    +0.000 C 
BRANCH  15  17
ATOM     17  C   UNL     1     -33.372  18.651   0.007  0.00  0.00    +0.000 C 
BRANCH  17  18
ATOM     18  C   UNL     1     -32.276  18.815   1.067  0.00  0.00    +0.000 C 
BRANCH  18  19
ATOM     19  C   UNL     1     -31.059  17.920   0.819  0.00  0.00    +0.000 C 
ATOM     20  C   UNL     1     -29.890  18.651   0.178  0.00  0.00    +0.000 C 
ENDBRANCH  18  19
ENDBRANCH  17  18
ENDBRANCH  15  17
ENDBRANCH  14  15
ENDBRANCH  11  14
ENDBRANCH  10  11
ENDBRANCH   2   9
BRANCH   3  21
ATOM     21  C   UNL     1     -36.817  24.115   3.047  0.00  0.00    +0.072 C 
BRANCH  21  23
ATOM     22  O   UNL     1     -36.781  24.009   0.638  0.00  0.00    -0.296 OA
ATOM     23  C   UNL     1     -36.376  24.557   1.662  0.00  0.00    +0.151 C 
BRANCH  23  24
ATOM     24  C   UNL     1     -35.370  25.700   1.629  0.00  0.00    +0.065 C 
BRANCH  24  25
ATOM     25  C   UNL     1     -33.966  25.273   1.203  0.00  0.00    +0.008 C 
BRANCH  25  26
ATOM     26  C   UNL     1     -32.871  26.000   1.994  0.00  0.00    +0.012 C 
BRANCH  26  27
ATOM     27  C   UNL     1     -33.239  26.180   3.464  0.00  0.00    +0.110 C 
BRANCH  27  29
ATOM     28  O   UNL     1     -33.817  28.504   3.764  0.00  0.00    -0.250 OA
ATOM     29  C   UNL     1     -33.020  27.592   3.947  0.00  0.00    +0.317 C 
BRANCH  29  30
ATOM     30  O   UNL     1     -31.824  27.686   4.595  0.00  0.00    -0.444 OA
ATOM     31  C   UNL     1     -31.879  28.245   5.911  0.00  0.00    +0.256 C 
ENDBRANCH  29  30
ENDBRANCH  27  29
ENDBRANCH  26  27
ENDBRANCH  25  26
ENDBRANCH  24  25
ENDBRANCH  23  24
ENDBRANCH  21  23
ENDBRANCH   3  21
TORSDOF 17
ENDMDL
MODEL 5
REMARK VINA RESULT:      -4.9      2.112      5.812
REMARK  Name = 5282205
REMARK  17 active torsions:
REMARK  status: ('A' for Active; 'I' for Inactive)
REMARK    1  A    between atoms: C_2  and  C_9
REMARK    2  A    between atoms: C_3  and  C_21
REMARK    3  A    between atoms: C_4  and  O_7
REMARK    4  A    between atoms: C_10  and  C_11
REMARK    5  A    between atoms: C_11  and  O_12
REMARK    6  A    between atoms: C_11  and  C_14
REMARK    7  A    between atoms: C_14  and  C_15
REMARK    8  A    between atoms: C_15  and  C_17
REMARK    9  A    between atoms: C_17  and  C_18
REMARK   10  A    between atoms: C_18  and  C_19
REMARK   11  A    between atoms: C_21  and  C_23
REMARK   12  A    between atoms: C_23  and  C_24
REMARK   13  A    between atoms: C_24  and  C_25
REMARK   14  A    between atoms: C_25  and  C_26
REMARK   15  A    between atoms: C_26  and  C_27
REMARK   16  A    between atoms: C_27  and  C_29
REMARK   17  A    between atoms: C_29  and  O_30
REMARK                            x       y       z     vdW  Elec       q    Type
REMARK                         _______ _______ _______ _____ _____    ______ ____
ROOT
ATOM      1  O   UNL     1     -35.197  25.199   5.311  0.00  0.00    -0.296 OA
ATOM      2  C   UNL     1     -35.697  21.996   3.900  0.00  0.00    +0.056 C 
ATOM      3  C   UNL     1     -35.276  23.450   3.631  0.00  0.00    +0.071 C 
ATOM      4  C   UNL     1     -35.009  21.657   5.229  0.00  0.00    +0.122 C 
ATOM      5  C   UNL     1     -35.173  22.914   6.078  0.00  0.00    +0.094 C 
ATOM      6  C   UNL     1     -35.217  24.005   5.038  0.00  0.00    +0.154 C 
ENDROOT
BRANCH   4   7
ATOM      7  O   UNL     1     -35.656  20.553   5.845  0.00  0.00    -0.384 OA
ATOM      8  H   UNL     1     -35.432  20.532   6.788  0.00  0.00    +0.210 HD
ENDBRANCH   4   7
BRANCH   2   9
ATOM      9  C   UNL     1     -35.312  21.070   2.792  0.00  0.00    -0.026 C 
ATOM     10  C   UNL     1     -36.199  20.405   2.036  0.00  0.00    -0.002 C 
BRANCH  10  11
ATOM     11  C   UNL     1     -35.905  19.460   0.898  0.00  0.00    +0.132 C 
BRANCH  11  12
ATOM     12  O   UNL     1     -36.960  18.497   0.850  0.00  0.00    -0.380 OA
ATOM     13  H   UNL     1     -37.723  18.828   1.349  0.00  0.00    +0.211 HD
ENDBRANCH  11  12
BRANCH  11  14
ATOM     14  C   UNL     1     -35.733  20.088  -0.497  0.00  0.00    +0.034 C 
BRANCH  14  15
ATOM     15  C   UNL     1     -34.287  20.063  -1.052  0.00  0.00    +0.003 C 
ATOM     16  C   UNL     1     -34.323  20.434  -2.540  0.00  0.00    +0.000 C 
BRANCH  15  17
ATOM     17  C   UNL     1     -33.353  20.996  -0.252  0.00  0.00    +0.000 C 
BRANCH  17  18
ATOM     18  C   UNL     1     -32.054  20.321   0.206  0.00  0.00    +0.000 C 
BRANCH  18  19
ATOM     19  C   UNL     1     -32.119  18.792   0.156  0.00  0.00    +0.000 C 
ATOM     20  C   UNL     1     -32.508  18.157   1.481  0.00  0.00    +0.000 C 
ENDBRANCH  18  19
ENDBRANCH  17  18
ENDBRANCH  15  17
ENDBRANCH  14  15
ENDBRANCH  11  14
ENDBRANCH  10  11
ENDBRANCH   2   9
BRANCH   3  21
ATOM     21  C   UNL     1     -36.252  24.205   2.746  0.00  0.00    +0.072 C 
BRANCH  21  23
ATOM     22  O   UNL     1     -34.872  25.638   1.383  0.00  0.00    -0.296 OA
ATOM     23  C   UNL     1     -35.624  24.667   1.442  0.00  0.00    +0.151 C 
BRANCH  23  24
ATOM     24  C   UNL     1     -36.019  23.868   0.207  0.00  0.00    +0.065 C 
BRANCH  24  25
ATOM     25  C   UNL     1     -37.506  23.958  -0.136  0.00  0.00    +0.008 C 
BRANCH  25  26
ATOM     26  C   UNL     1     -38.129  22.579  -0.388  0.00  0.00    +0.012 C 
BRANCH  26  27
ATOM     27  C   UNL     1     -39.603  22.528   0.004  0.00  0.00    +0.110 C 
BRANCH  27  29
ATOM     28  O   UNL     1     -39.237  22.119   2.354  0.00  0.00    -0.250 OA
ATOM     29  C   UNL     1     -39.818  22.750   1.480  0.00  0.00    +0.317 C 
BRANCH  29  30
ATOM     30  O   UNL     1     -40.741  23.734   1.677  0.00  0.00    -0.444 OA
ATOM     31  C   UNL     1     -40.288  24.861   2.434  0.00  0.00    +0.256 C 
ENDBRANCH  29  30
ENDBRANCH  27  29
ENDBRANCH  26  27
ENDBRANCH  25  26
ENDBRANCH  24  25
ENDBRANCH  23  24
ENDBRANCH  21  23
ENDBRANCH   3  21
TORSDOF 17
ENDMDL
MODEL 6
REMARK VINA RESULT:      -4.9      2.945      6.094
REMARK  Name = 5282205
REMARK  17 active torsions:
REMARK  status: ('A' for Active; 'I' for Inactive)
REMARK    1  A    between atoms: C_2  and  C_9
REMARK    2  A    between atoms: C_3  and  C_21
REMARK    3  A    between atoms: C_4  and  O_7
REMARK    4  A    between atoms: C_10  and  C_11
REMARK    5  A    between atoms: C_11  and  O_12
REMARK    6  A    between atoms: C_11  and  C_14
REMARK    7  A    between atoms: C_14  and  C_15
REMARK    8  A    between atoms: C_15  and  C_17
REMARK    9  A    between atoms: C_17  and  C_18
REMARK   10  A    between atoms: C_18  and  C_19
REMARK   11  A    between atoms: C_21  and  C_23
REMARK   12  A    between atoms: C_23  and  C_24
REMARK   13  A    between atoms: C_24  and  C_25
REMARK   14  A    between atoms: C_25  and  C_26
REMARK   15  A    between atoms: C_26  and  C_27
REMARK   16  A    between atoms: C_27  and  C_29
REMARK   17  A    between atoms: C_29  and  O_30
REMARK                            x       y       z     vdW  Elec       q    Type
REMARK                         _______ _______ _______ _____ _____    ______ ____
ROOT
ATOM      1  O   UNL     1     -35.954  21.019  -0.185  0.00  0.00    -0.296 OA
ATOM      2  C   UNL     1     -38.050  22.324   2.345  0.00  0.00    +0.056 C 
ATOM      3  C   UNL     1     -36.811  22.573   1.470  0.00  0.00    +0.071 C 
ATOM      4  C   UNL     1     -39.066  21.709   1.374  0.00  0.00    +0.122 C 
ATOM      5  C   UNL     1     -38.244  20.751   0.515  0.00  0.00    +0.094 C 
ATOM      6  C   UNL     1     -36.883  21.399   0.516  0.00  0.00    +0.154 C 
ENDROOT
BRANCH   4   7
ATOM      7  O   UNL     1     -40.062  21.000   2.095  0.00  0.00    -0.384 OA
ATOM      8  H   UNL     1     -40.362  20.241   1.572  0.00  0.00    +0.210 HD
ENDBRANCH   4   7
BRANCH   2   9
ATOM      9  C   UNL     1     -38.552  23.570   3.001  0.00  0.00    -0.026 C 
ATOM     10  C   UNL     1     -39.509  24.351   2.479  0.00  0.00    -0.002 C 
BRANCH  10  11
ATOM     11  C   UNL     1     -40.081  25.616   3.070  0.00  0.00    +0.132 C 
BRANCH  11  12
ATOM     12  O   UNL     1     -38.996  26.519   3.296  0.00  0.00    -0.380 OA
ATOM     13  H   UNL     1     -39.346  27.394   3.527  0.00  0.00    +0.211 HD
ENDBRANCH  11  12
BRANCH  11  14
ATOM     14  C   UNL     1     -41.169  26.334   2.250  0.00  0.00    +0.034 C 
BRANCH  14  15
ATOM     15  C   UNL     1     -42.487  26.612   3.014  0.00  0.00    +0.003 C 
ATOM     16  C   UNL     1     -42.218  27.671   4.091  0.00  0.00    +0.000 C 
BRANCH  15  17
ATOM     17  C   UNL     1     -43.621  27.043   2.060  0.00  0.00    +0.000 C 
BRANCH  17  18
ATOM     18  C   UNL     1     -44.996  27.123   2.734  0.00  0.00    +0.000 C 
BRANCH  18  19
ATOM     19  C   UNL     1     -45.316  25.900   3.598  0.00  0.00    +0.000 C 
ATOM     20  C   UNL     1     -45.688  26.250   5.030  0.00  0.00    +0.000 C 
ENDBRANCH  18  19
ENDBRANCH  17  18
ENDBRANCH  15  17
ENDBRANCH  14  15
ENDBRANCH  11  14
ENDBRANCH  10  11
ENDBRANCH   2   9
BRANCH   3  21
ATOM     21  C   UNL     1     -35.514  22.604   2.259  0.00  0.00    +0.072 C 
BRANCH  21  23
ATOM     22  O   UNL     1     -35.366  20.337   3.069  0.00  0.00    -0.296 OA
ATOM     23  C   UNL     1     -35.458  21.534   3.336  0.00  0.00    +0.151 C 
BRANCH  23  24
ATOM     24  C   UNL     1     -35.562  22.041   4.769  0.00  0.00    +0.065 C 
BRANCH  24  25
ATOM     25  C   UNL     1     -34.920  23.412   4.985  0.00  0.00    +0.008 C 
BRANCH  25  26
ATOM     26  C   UNL     1     -35.938  24.467   5.435  0.00  0.00    +0.012 C 
BRANCH  26  27
ATOM     27  C   UNL     1     -35.337  25.869   5.485  0.00  0.00    +0.110 C 
BRANCH  27  29
ATOM     28  O   UNL     1     -36.097  26.223   3.222  0.00  0.00    -0.250 OA
ATOM     29  C   UNL     1     -35.365  26.560   4.144  0.00  0.00    +0.317 C 
BRANCH  29  30
ATOM     30  O   UNL     1     -34.466  27.584   4.125  0.00  0.00    -0.444 OA
ATOM     31  C   UNL     1     -34.446  28.364   2.924  0.00  0.00    +0.256 C 
ENDBRANCH  29  30
ENDBRANCH  27  29
ENDBRANCH  26  27
ENDBRANCH  25  26
ENDBRANCH  24  25
ENDBRANCH  23  24
ENDBRANCH  21  23
ENDBRANCH   3  21
TORSDOF 17
ENDMDL
MODEL 7
REMARK VINA RESULT:      -4.8      2.018      6.119
REMARK  Name = 5282205
REMARK  17 active torsions:
REMARK  status: ('A' for Active; 'I' for Inactive)
REMARK    1  A    between atoms: C_2  and  C_9
REMARK    2  A    between atoms: C_3  and  C_21
REMARK    3  A    between atoms: C_4  and  O_7
REMARK    4  A    between atoms: C_10  and  C_11
REMARK    5  A    between atoms: C_11  and  O_12
REMARK    6  A    between atoms: C_11  and  C_14
REMARK    7  A    between atoms: C_14  and  C_15
REMARK    8  A    between atoms: C_15  and  C_17
REMARK    9  A    between atoms: C_17  and  C_18
REMARK   10  A    between atoms: C_18  and  C_19
REMARK   11  A    between atoms: C_21  and  C_23
REMARK   12  A    between atoms: C_23  and  C_24
REMARK   13  A    between atoms: C_24  and  C_25
REMARK   14  A    between atoms: C_25  and  C_26
REMARK   15  A    between atoms: C_26  and  C_27
REMARK   16  A    between atoms: C_27  and  C_29
REMARK   17  A    between atoms: C_29  and  O_30
REMARK                            x       y       z     vdW  Elec       q    Type
REMARK                         _______ _______ _______ _____ _____    ______ ____
ROOT
ATOM      1  O   UNL     1     -34.745  26.951   4.485  0.00  0.00    -0.296 OA
ATOM      2  C   UNL     1     -36.222  23.756   4.156  0.00  0.00    +0.056 C 
ATOM      3  C   UNL     1     -35.652  24.973   3.410  0.00  0.00    +0.071 C 
ATOM      4  C   UNL     1     -35.228  23.533   5.305  0.00  0.00    +0.122 C 
ATOM      5  C   UNL     1     -34.893  24.937   5.800  0.00  0.00    +0.094 C 
ATOM      6  C   UNL     1     -35.062  25.770   4.555  0.00  0.00    +0.154 C 
ENDROOT
BRANCH   4   7
ATOM      7  O   UNL     1     -35.839  22.774   6.337  0.00  0.00    -0.384 OA
ATOM      8  H   UNL     1     -35.713  23.223   7.187  0.00  0.00    +0.210 HD
ENDBRANCH   4   7
BRANCH   2   9
ATOM      9  C   UNL     1     -36.372  22.558   3.275  0.00  0.00    -0.026 C 
ATOM     10  C   UNL     1     -35.483  21.554   3.227  0.00  0.00    -0.002 C 
BRANCH  10  11
ATOM     11  C   UNL     1     -35.554  20.310   2.377  0.00  0.00    +0.132 C 
BRANCH  11  12
ATOM     12  O   UNL     1     -36.867  19.764   2.514  0.00  0.00    -0.380 OA
ATOM     13  H   UNL     1     -36.812  18.885   2.920  0.00  0.00    +0.211 HD
ENDBRANCH  11  12
BRANCH  11  14
ATOM     14  C   UNL     1     -35.230  20.472   0.881  0.00  0.00    +0.034 C 
BRANCH  14  15
ATOM     15  C   UNL     1     -34.339  19.357   0.280  0.00  0.00    +0.003 C 
ATOM     16  C   UNL     1     -33.367  18.866   1.361  0.00  0.00    +0.000 C 
BRANCH  15  17
ATOM     17  C   UNL     1     -35.183  18.200  -0.297  0.00  0.00    +0.000 C 
BRANCH  17  18
ATOM     18  C   UNL     1     -36.369  18.669  -1.148  0.00  0.00    +0.000 C 
BRANCH  18  19
ATOM     19  C   UNL     1     -37.714  18.121  -0.661  0.00  0.00    +0.000 C 
ATOM     20  C   UNL     1     -37.630  16.704  -0.119  0.00  0.00    +0.000 C 
ENDBRANCH  18  19
ENDBRANCH  17  18
ENDBRANCH  15  17
ENDBRANCH  14  15
ENDBRANCH  11  14
ENDBRANCH  10  11
ENDBRANCH   2   9
BRANCH   3  21
ATOM     21  C   UNL     1     -36.703  25.752   2.639  0.00  0.00    +0.072 C 
BRANCH  21  23
ATOM     22  O   UNL     1     -35.327  26.686   0.893  0.00  0.00    -0.296 OA
ATOM     23  C   UNL     1     -36.303  26.002   1.195  0.00  0.00    +0.151 C 
BRANCH  23  24
ATOM     24  C   UNL     1     -37.215  25.379   0.146  0.00  0.00    +0.065 C 
BRANCH  24  25
ATOM     25  C   UNL     1     -36.928  23.902  -0.121  0.00  0.00    +0.008 C 
BRANCH  25  26
ATOM     26  C   UNL     1     -38.141  23.011   0.173  0.00  0.00    +0.012 C 
BRANCH  26  27
ATOM     27  C   UNL     1     -39.267  23.773   0.867  0.00  0.00    +0.110 C 
BRANCH  27  29
ATOM     28  O   UNL     1     -40.103  21.913   2.157  0.00  0.00    -0.250 OA
ATOM     29  C   UNL     1     -39.746  23.083   2.120  0.00  0.00    +0.317 C 
BRANCH  29  30
ATOM     30  O   UNL     1     -39.723  23.952   3.171  0.00  0.00    -0.444 OA
ATOM     31  C   UNL     1     -40.244  25.258   2.902  0.00  0.00    +0.256 C 
ENDBRANCH  29  30
ENDBRANCH  27  29
ENDBRANCH  26  27
ENDBRANCH  25  26
ENDBRANCH  24  25
ENDBRANCH  23  24
ENDBRANCH  21  23
ENDBRANCH   3  21
TORSDOF 17
ENDMDL
MODEL 8
REMARK VINA RESULT:      -4.8      2.664      6.411
REMARK  Name = 5282205
REMARK  17 active torsions:
REMARK  status: ('A' for Active; 'I' for Inactive)
REMARK    1  A    between atoms: C_2  and  C_9
REMARK    2  A    between atoms: C_3  and  C_21
REMARK    3  A    between atoms: C_4  and  O_7
REMARK    4  A    between atoms: C_10  and  C_11
REMARK    5  A    between atoms: C_11  and  O_12
REMARK    6  A    between atoms: C_11  and  C_14
REMARK    7  A    between atoms: C_14  and  C_15
REMARK    8  A    between atoms: C_15  and  C_17
REMARK    9  A    between atoms: C_17  and  C_18
REMARK   10  A    between atoms: C_18  and  C_19
REMARK   11  A    between atoms: C_21  and  C_23
REMARK   12  A    between atoms: C_23  and  C_24
REMARK   13  A    between atoms: C_24  and  C_25
REMARK   14  A    between atoms: C_25  and  C_26
REMARK   15  A    between atoms: C_26  and  C_27
REMARK   16  A    between atoms: C_27  and  C_29
REMARK   17  A    between atoms: C_29  and  O_30
REMARK                            x       y       z     vdW  Elec       q    Type
REMARK                         _______ _______ _______ _____ _____    ______ ____
ROOT
ATOM      1  O   UNL     1     -35.635  25.290   5.979  0.00  0.00    -0.296 OA
ATOM      2  C   UNL     1     -35.970  22.322   4.087  0.00  0.00    +0.056 C 
ATOM      3  C   UNL     1     -35.786  23.847   4.033  0.00  0.00    +0.071 C 
ATOM      4  C   UNL     1     -35.025  21.880   5.213  0.00  0.00    +0.122 C 
ATOM      5  C   UNL     1     -35.194  22.942   6.295  0.00  0.00    +0.094 C 
ATOM      6  C   UNL     1     -35.554  24.168   5.495  0.00  0.00    +0.154 C 
ENDROOT
BRANCH   4   7
ATOM      7  O   UNL     1     -35.413  20.605   5.702  0.00  0.00    -0.384 OA
ATOM      8  H   UNL     1     -35.142  19.920   5.071  0.00  0.00    +0.210 HD
ENDBRANCH   4   7
BRANCH   2   9
ATOM      9  C   UNL     1     -35.671  21.659   2.781  0.00  0.00    -0.026 C 
ATOM     10  C   UNL     1     -36.336  20.589   2.321  0.00  0.00    -0.002 C 
BRANCH  10  11
ATOM     11  C   UNL     1     -36.110  19.861   1.020  0.00  0.00    +0.132 C 
BRANCH  11  12
ATOM     12  O   UNL     1     -36.915  18.680   1.037  0.00  0.00    -0.380 OA
ATOM     13  H   UNL     1     -36.604  18.068   0.351  0.00  0.00    +0.211 HD
ENDBRANCH  11  12
BRANCH  11  14
ATOM     14  C   UNL     1     -36.398  20.647  -0.273  0.00  0.00    +0.034 C 
BRANCH  14  15
ATOM     15  C   UNL     1     -37.370  21.842  -0.109  0.00  0.00    +0.003 C 
ATOM     16  C   UNL     1     -36.867  23.008  -0.970  0.00  0.00    +0.000 C 
BRANCH  15  17
ATOM     17  C   UNL     1     -38.820  21.453  -0.466  0.00  0.00    +0.000 C 
BRANCH  17  18
ATOM     18  C   UNL     1     -39.728  21.273   0.757  0.00  0.00    +0.000 C 
BRANCH  18  19
ATOM     19  C   UNL     1     -39.441  22.280   1.874  0.00  0.00    +0.000 C 
ATOM     20  C   UNL     1     -40.126  23.622   1.671  0.00  0.00    +0.000 C 
ENDBRANCH  18  19
ENDBRANCH  17  18
ENDBRANCH  15  17
ENDBRANCH  14  15
ENDBRANCH  11  14
ENDBRANCH  10  11
ENDBRANCH   2   9
BRANCH   3  21
ATOM     21  C   UNL     1     -36.988  24.578   3.460  0.00  0.00    +0.072 C 
BRANCH  21  23
ATOM     22  O   UNL     1     -37.277  26.611   2.195  0.00  0.00    -0.296 OA
ATOM     23  C   UNL     1     -36.602  25.605   2.409  0.00  0.00    +0.151 C 
BRANCH  23  24
ATOM     24  C   UNL     1     -35.344  25.285   1.612  0.00  0.00    +0.065 C 
BRANCH  24  25
ATOM     25  C   UNL     1     -34.267  26.366   1.703  0.00  0.00    +0.008 C 
BRANCH  25  26
ATOM     26  C   UNL     1     -33.288  26.117   2.857  0.00  0.00    +0.012 C 
BRANCH  26  27
ATOM     27  C   UNL     1     -33.444  27.137   3.982  0.00  0.00    +0.110 C 
BRANCH  27  29
ATOM     28  O   UNL     1     -32.070  28.983   3.257  0.00  0.00    -0.250 OA
ATOM     29  C   UNL     1     -32.276  28.089   4.066  0.00  0.00    +0.317 C 
BRANCH  29  30
ATOM     30  O   UNL     1     -31.509  27.794   5.154  0.00  0.00    -0.444 OA
ATOM     31  C   UNL     1     -32.175  27.877   6.418  0.00  0.00    +0.256 C 
ENDBRANCH  29  30
ENDBRANCH  27  29
ENDBRANCH  26  27
ENDBRANCH  25  26
ENDBRANCH  24  25
ENDBRANCH  23  24
ENDBRANCH  21  23
ENDBRANCH   3  21
TORSDOF 17
ENDMDL
MODEL 9
REMARK VINA RESULT:      -4.8      2.552      6.647
REMARK  Name = 5282205
REMARK  17 active torsions:
REMARK  status: ('A' for Active; 'I' for Inactive)
REMARK    1  A    between atoms: C_2  and  C_9
REMARK    2  A    between atoms: C_3  and  C_21
REMARK    3  A    between atoms: C_4  and  O_7
REMARK    4  A    between atoms: C_10  and  C_11
REMARK    5  A    between atoms: C_11  and  O_12
REMARK    6  A    between atoms: C_11  and  C_14
REMARK    7  A    between atoms: C_14  and  C_15
REMARK    8  A    between atoms: C_15  and  C_17
REMARK    9  A    between atoms: C_17  and  C_18
REMARK   10  A    between atoms: C_18  and  C_19
REMARK   11  A    between atoms: C_21  and  C_23
REMARK   12  A    between atoms: C_23  and  C_24
REMARK   13  A    between atoms: C_24  and  C_25
REMARK   14  A    between atoms: C_25  and  C_26
REMARK   15  A    between atoms: C_26  and  C_27
REMARK   16  A    between atoms: C_27  and  C_29
REMARK   17  A    between atoms: C_29  and  O_30
REMARK                            x       y       z     vdW  Elec       q    Type
REMARK                         _______ _______ _______ _____ _____    ______ ____
ROOT
ATOM      1  O   UNL     1     -39.764  26.791   1.891  0.00  0.00    -0.296 OA
ATOM      2  C   UNL     1     -38.780  23.410   1.577  0.00  0.00    +0.056 C 
ATOM      3  C   UNL     1     -38.463  24.769   2.222  0.00  0.00    +0.071 C 
ATOM      4  C   UNL     1     -40.304  23.289   1.709  0.00  0.00    +0.122 C 
ATOM      5  C   UNL     1     -40.829  24.687   1.394  0.00  0.00    +0.094 C 
ATOM      6  C   UNL     1     -39.690  25.570   1.839  0.00  0.00    +0.154 C 
ENDROOT
BRANCH   4   7
ATOM      7  O   UNL     1     -40.801  22.347   0.770  0.00  0.00    -0.384 OA
ATOM      8  H   UNL     1     -41.002  21.514   1.224  0.00  0.00    +0.210 HD
ENDBRANCH   4   7
BRANCH   2   9
ATOM      9  C   UNL     1     -38.047  22.280   2.226  0.00  0.00    -0.026 C 
ATOM     10  C   UNL     1     -37.184  21.484   1.578  0.00  0.00    -0.002 C 
BRANCH  10  11
ATOM     11  C   UNL     1     -36.398  20.330   2.148  0.00  0.00    +0.132 C 
BRANCH  11  12
ATOM     12  O   UNL     1     -36.885  19.131   1.543  0.00  0.00    -0.380 OA
ATOM     13  H   UNL     1     -37.210  19.328   0.650  0.00  0.00    +0.211 HD
ENDBRANCH  11  12
BRANCH  11  14
ATOM     14  C   UNL     1     -34.868  20.388   1.989  0.00  0.00    +0.034 C 
BRANCH  14  15
ATOM     15  C   UNL     1     -34.359  20.314   0.528  0.00  0.00    +0.003 C 
ATOM     16  C   UNL     1     -33.412  21.495   0.276  0.00  0.00    +0.000 C 
BRANCH  15  17
ATOM     17  C   UNL     1     -33.677  18.962   0.229  0.00  0.00    +0.000 C 
BRANCH  17  18
ATOM     18  C   UNL     1     -32.869  18.405   1.406  0.00  0.00    +0.000 C 
BRANCH  18  19
ATOM     19  C   UNL     1     -31.445  17.995   1.020  0.00  0.00    +0.000 C 
ATOM     20  C   UNL     1     -30.732  19.022   0.155  0.00  0.00    +0.000 C 
ENDBRANCH  18  19
ENDBRANCH  17  18
ENDBRANCH  15  17
ENDBRANCH  14  15
ENDBRANCH  11  14
ENDBRANCH  10  11
ENDBRANCH   2   9
BRANCH   3  21
ATOM     21  C   UNL     1     -37.177  25.393   1.710  0.00  0.00    +0.072 C 
BRANCH  21  23
ATOM     22  O   UNL     1     -35.604  26.993   2.593  0.00  0.00    -0.296 OA
ATOM     23  C   UNL     1     -36.367  26.054   2.812  0.00  0.00    +0.151 C 
BRANCH  23  24
ATOM     24  C   UNL     1     -36.536  25.450   4.200  0.00  0.00    +0.065 C 
BRANCH  24  25
ATOM     25  C   UNL     1     -35.659  24.223   4.450  0.00  0.00    +0.008 C 
BRANCH  25  26
ATOM     26  C   UNL     1     -34.471  24.535   5.368  0.00  0.00    +0.012 C 
BRANCH  26  27
ATOM     27  C   UNL     1     -34.568  25.925   5.991  0.00  0.00    +0.110 C 
BRANCH  27  29
ATOM     28  O   UNL     1     -32.794  27.416   6.665  0.00  0.00    -0.250 OA
ATOM     29  C   UNL     1     -33.314  26.739   5.787  0.00  0.00    +0.317 C 
BRANCH  29  30
ATOM     30  O   UNL     1     -32.873  26.607   4.504  0.00  0.00    -0.444 OA
ATOM     31  C   UNL     1     -32.355  27.800   3.906  0.00  0.00    +0.256 C 
ENDBRANCH  29  30
ENDBRANCH  27  29
ENDBRANCH  26  27
ENDBRANCH  25  26
ENDBRANCH  24  25
ENDBRANCH  23  24
ENDBRANCH  21  23
ENDBRANCH   3  21
TORSDOF 17
ENDMDL
