MODEL 1
REMARK VINA RESULT:      -6.2      0.000      0.000
REMARK  Name = 5488919
REMARK  4 active torsions:
REMARK  status: ('A' for Active; 'I' for Inactive)
REMARK    1  A    between atoms: C_11  and  O_19
REMARK    2  A    between atoms: C_12  and  O_21
REMARK    3  A    between atoms: C_17  and  O_23
REMARK    4  A    between atoms: C_18  and  O_25
REMARK                            x       y       z     vdW  Elec       q    Type
REMARK                         _______ _______ _______ _____ _____    ______ ____
ROOT
ATOM      1  O   UNL     1     -36.340  23.348   1.586  0.00  0.00    -0.418 OA
ATOM      2  O   UNL     1     -34.668  27.020   4.609  0.00  0.00    -0.418 OA
ATOM      3  O   UNL     1     -36.904  24.439  -0.350  0.00  0.00    -0.244 OA
ATOM      4  O   UNL     1     -34.105  25.929   6.546  0.00  0.00    -0.244 OA
ATOM      5  C   UNL     1     -35.450  24.579   3.479  0.00  0.00    +0.047 A 
ATOM      6  C   UNL     1     -35.558  25.789   2.715  0.00  0.00    +0.047 A 
ATOM      7  C   UNL     1     -36.048  25.775   1.411  0.00  0.00    +0.082 A 
ATOM      8  C   UNL     1     -34.960  24.593   4.784  0.00  0.00    +0.082 A 
ATOM      9  C   UNL     1     -35.841  23.374   2.908  0.00  0.00    +0.186 A 
ATOM     10  C   UNL     1     -35.167  26.994   3.286  0.00  0.00    +0.186 A 
ATOM     11  C   UNL     1     -35.755  22.174   3.608  0.00  0.00    +0.206 C 
ATOM     12  C   UNL     1     -35.251  28.193   2.586  0.00  0.00    +0.206 C 
ATOM     13  C   UNL     1     -36.142  26.971   0.690  0.00  0.00    +0.046 C 
ATOM     14  C   UNL     1     -34.866  23.396   5.504  0.00  0.00    +0.046 C 
ATOM     15  C   UNL     1     -36.468  24.494   0.793  0.00  0.00    +0.346 A 
ATOM     16  C   UNL     1     -34.539  25.874   5.403  0.00  0.00    +0.346 A 
ATOM     17  C   UNL     1     -35.264  22.192   4.913  0.00  0.00    +0.171 C 
ATOM     18  C   UNL     1     -35.742  28.176   1.281  0.00  0.00    +0.171 C 
ENDROOT
BRANCH  11  19
ATOM     19  O   UNL     1     -36.144  21.005   3.031  0.00  0.00    -0.465 OA
ATOM     20  C   UNL     1     -35.169  20.307   2.257  0.00  0.00    +0.253 C 
ENDBRANCH  11  19
BRANCH  12  21
ATOM     21  O   UNL     1     -34.864  29.363   3.163  0.00  0.00    -0.465 OA
ATOM     22  C   UNL     1     -33.502  29.753   2.988  0.00  0.00    +0.253 C 
ENDBRANCH  12  21
BRANCH  17  23
ATOM     23  O   UNL     1     -35.166  21.036   5.628  0.00  0.00    -0.503 OA
ATOM     24  H   UNL     1     -34.465  20.920   6.239  0.00  0.00    +0.292 HD
ENDBRANCH  17  23
BRANCH  18  25
ATOM     25  O   UNL     1     -35.840  29.332   0.565  0.00  0.00    -0.503 OA
ATOM     26  H   UNL     1     -35.119  29.929   0.539  0.00  0.00    +0.292 HD
ENDBRANCH  18  25
TORSDOF 4
ENDMDL
MODEL 2
REMARK VINA RESULT:      -6.2      0.045      6.601
REMARK  Name = 5488919
REMARK  4 active torsions:
REMARK  status: ('A' for Active; 'I' for Inactive)
REMARK    1  A    between atoms: C_11  and  O_19
REMARK    2  A    between atoms: C_12  and  O_21
REMARK    3  A    between atoms: C_17  and  O_23
REMARK    4  A    between atoms: C_18  and  O_25
REMARK                            x       y       z     vdW  Elec       q    Type
REMARK                         _______ _______ _______ _____ _____    ______ ____
ROOT
ATOM      1  O   UNL     1     -34.627  26.986   4.637  0.00  0.00    -0.418 OA
ATOM      2  O   UNL     1     -36.340  23.344   1.601  0.00  0.00    -0.418 OA
ATOM      3  O   UNL     1     -34.062  25.880   6.564  0.00  0.00    -0.244 OA
ATOM      4  O   UNL     1     -36.907  24.450  -0.326  0.00  0.00    -0.244 OA
ATOM      5  C   UNL     1     -35.535  25.772   2.741  0.00  0.00    +0.047 A 
ATOM      6  C   UNL     1     -35.432  24.558   3.497  0.00  0.00    +0.047 A 
ATOM      7  C   UNL     1     -34.935  24.560   4.799  0.00  0.00    +0.082 A 
ATOM      8  C   UNL     1     -36.031  25.770   1.439  0.00  0.00    +0.082 A 
ATOM      9  C   UNL     1     -35.132  26.971   3.317  0.00  0.00    +0.186 A 
ATOM     10  C   UNL     1     -35.835  23.359   2.922  0.00  0.00    +0.186 A 
ATOM     11  C   UNL     1     -35.212  28.176   2.624  0.00  0.00    +0.206 C 
ATOM     12  C   UNL     1     -35.754  22.154   3.614  0.00  0.00    +0.206 C 
ATOM     13  C   UNL     1     -34.847  23.359   5.513  0.00  0.00    +0.046 C 
ATOM     14  C   UNL     1     -36.119  26.972   0.725  0.00  0.00    +0.046 C 
ATOM     15  C   UNL     1     -34.504  25.834   5.423  0.00  0.00    +0.346 A 
ATOM     16  C   UNL     1     -36.463  24.495   0.814  0.00  0.00    +0.346 A 
ATOM     17  C   UNL     1     -35.709  28.169   1.321  0.00  0.00    +0.171 C 
ATOM     18  C   UNL     1     -35.256  22.161   4.917  0.00  0.00    +0.171 C 
ENDROOT
BRANCH  11  19
ATOM     19  O   UNL     1     -34.813  29.339   3.206  0.00  0.00    -0.465 OA
ATOM     20  C   UNL     1     -33.450  29.721   3.027  0.00  0.00    +0.253 C 
ENDBRANCH  11  19
BRANCH  12  21
ATOM     21  O   UNL     1     -36.154  20.991   3.032  0.00  0.00    -0.465 OA
ATOM     22  C   UNL     1     -35.187  20.291   2.250  0.00  0.00    +0.253 C 
ENDBRANCH  12  21
BRANCH  17  23
ATOM     23  O   UNL     1     -35.802  29.330   0.613  0.00  0.00    -0.503 OA
ATOM     24  H   UNL     1     -36.355  29.376  -0.142  0.00  0.00    +0.292 HD
ENDBRANCH  17  23
BRANCH  18  25
ATOM     25  O   UNL     1     -35.164  21.000   5.625  0.00  0.00    -0.503 OA
ATOM     26  H   UNL     1     -34.323  20.658   5.857  0.00  0.00    +0.292 HD
ENDBRANCH  18  25
TORSDOF 4
ENDMDL
MODEL 3
REMARK VINA RESULT:      -6.1      1.981      6.157
REMARK  Name = 5488919
REMARK  4 active torsions:
REMARK  status: ('A' for Active; 'I' for Inactive)
REMARK    1  A    between atoms: C_11  and  O_19
REMARK    2  A    between atoms: C_12  and  O_21
REMARK    3  A    between atoms: C_17  and  O_23
REMARK    4  A    between atoms: C_18  and  O_25
REMARK                            x       y       z     vdW  Elec       q    Type
REMARK                         _______ _______ _______ _____ _____    ______ ____
ROOT
ATOM      1  O   UNL     1     -34.928  24.297   5.673  0.00  0.00    -0.418 OA
ATOM      2  O   UNL     1     -34.542  23.765   0.675  0.00  0.00    -0.418 OA
ATOM      3  O   UNL     1     -35.816  22.303   6.375  0.00  0.00    -0.244 OA
ATOM      4  O   UNL     1     -33.657  25.760  -0.028  0.00  0.00    -0.244 OA
ATOM      5  C   UNL     1     -34.488  24.688   3.318  0.00  0.00    +0.047 A 
ATOM      6  C   UNL     1     -34.982  23.373   3.029  0.00  0.00    +0.047 A 
ATOM      7  C   UNL     1     -35.441  22.537   4.046  0.00  0.00    +0.082 A 
ATOM      8  C   UNL     1     -34.029  25.524   2.302  0.00  0.00    +0.082 A 
ATOM      9  C   UNL     1     -34.465  25.136   4.634  0.00  0.00    +0.186 A 
ATOM     10  C   UNL     1     -35.005  22.926   1.714  0.00  0.00    +0.186 A 
ATOM     11  C   UNL     1     -33.995  26.403   4.965  0.00  0.00    +0.206 C 
ATOM     12  C   UNL     1     -35.474  21.658   1.383  0.00  0.00    +0.206 C 
ATOM     13  C   UNL     1     -35.918  21.259   3.734  0.00  0.00    +0.046 C 
ATOM     14  C   UNL     1     -33.551  26.803   2.614  0.00  0.00    +0.046 C 
ATOM     15  C   UNL     1     -35.422  23.006   5.453  0.00  0.00    +0.346 A 
ATOM     16  C   UNL     1     -34.048  25.056   0.894  0.00  0.00    +0.346 A 
ATOM     17  C   UNL     1     -33.537  27.237   3.945  0.00  0.00    +0.171 C 
ATOM     18  C   UNL     1     -35.932  20.825   2.403  0.00  0.00    +0.171 C 
ENDROOT
BRANCH  11  19
ATOM     19  O   UNL     1     -33.981  26.823   6.259  0.00  0.00    -0.465 OA
ATOM     20  C   UNL     1     -32.705  26.999   6.872  0.00  0.00    +0.253 C 
ENDBRANCH  11  19
BRANCH  12  21
ATOM     21  O   UNL     1     -35.489  21.239   0.089  0.00  0.00    -0.465 OA
ATOM     22  C   UNL     1     -36.673  21.498  -0.664  0.00  0.00    +0.253 C 
ENDBRANCH  12  21
BRANCH  17  23
ATOM     23  O   UNL     1     -33.069  28.484   4.232  0.00  0.00    -0.503 OA
ATOM     24  H   UNL     1     -32.690  29.010   3.556  0.00  0.00    +0.292 HD
ENDBRANCH  17  23
BRANCH  18  25
ATOM     25  O   UNL     1     -36.401  19.577   2.116  0.00  0.00    -0.503 OA
ATOM     26  H   UNL     1     -36.797  19.059   2.788  0.00  0.00    +0.292 HD
ENDBRANCH  18  25
TORSDOF 4
ENDMDL
MODEL 4
REMARK VINA RESULT:      -6.1      1.951      3.123
REMARK  Name = 5488919
REMARK  4 active torsions:
REMARK  status: ('A' for Active; 'I' for Inactive)
REMARK    1  A    between atoms: C_11  and  O_19
REMARK    2  A    between atoms: C_12  and  O_21
REMARK    3  A    between atoms: C_17  and  O_23
REMARK    4  A    between atoms: C_18  and  O_25
REMARK                            x       y       z     vdW  Elec       q    Type
REMARK                         _______ _______ _______ _____ _____    ______ ____
ROOT
ATOM      1  O   UNL     1     -34.601  23.772   0.661  0.00  0.00    -0.418 OA
ATOM      2  O   UNL     1     -34.943  24.215   5.671  0.00  0.00    -0.418 OA
ATOM      3  O   UNL     1     -33.741  25.786  -0.015  0.00  0.00    -0.244 OA
ATOM      4  O   UNL     1     -35.806  22.201   6.348  0.00  0.00    -0.244 OA
ATOM      5  C   UNL     1     -35.014  23.336   3.013  0.00  0.00    +0.047 A 
ATOM      6  C   UNL     1     -34.530  24.651   3.320  0.00  0.00    +0.047 A 
ATOM      7  C   UNL     1     -34.089  25.508   2.313  0.00  0.00    +0.082 A 
ATOM      8  C   UNL     1     -35.455  22.478   4.019  0.00  0.00    +0.082 A 
ATOM      9  C   UNL     1     -35.045  22.910   1.691  0.00  0.00    +0.186 A 
ATOM     10  C   UNL     1     -34.499  25.076   4.642  0.00  0.00    +0.186 A 
ATOM     11  C   UNL     1     -35.507  21.645   1.342  0.00  0.00    +0.206 C 
ATOM     12  C   UNL     1     -34.036  26.342   4.990  0.00  0.00    +0.206 C 
ATOM     13  C   UNL     1     -33.621  26.785   2.642  0.00  0.00    +0.046 C 
ATOM     14  C   UNL     1     -35.923  21.200   3.690  0.00  0.00    +0.046 C 
ATOM     15  C   UNL     1     -34.118  25.064   0.898  0.00  0.00    +0.346 A 
ATOM     16  C   UNL     1     -35.426  22.922   5.435  0.00  0.00    +0.346 A 
ATOM     17  C   UNL     1     -35.947  20.789   2.353  0.00  0.00    +0.171 C 
ATOM     18  C   UNL     1     -33.596  27.197   3.980  0.00  0.00    +0.171 C 
ENDROOT
BRANCH  11  19
ATOM     19  O   UNL     1     -35.529  21.247   0.041  0.00  0.00    -0.465 OA
ATOM     20  C   UNL     1     -34.379  20.560  -0.448  0.00  0.00    +0.253 C 
ENDBRANCH  11  19
BRANCH  12  21
ATOM     21  O   UNL     1     -34.015  26.740   6.291  0.00  0.00    -0.465 OA
ATOM     22  C   UNL     1     -32.737  27.013   6.865  0.00  0.00    +0.253 C 
ENDBRANCH  12  21
BRANCH  17  23
ATOM     23  O   UNL     1     -36.405  19.542   2.048  0.00  0.00    -0.503 OA
ATOM     24  H   UNL     1     -36.857  19.393   1.242  0.00  0.00    +0.292 HD
ENDBRANCH  17  23
BRANCH  18  25
ATOM     25  O   UNL     1     -33.138  28.444   4.284  0.00  0.00    -0.503 OA
ATOM     26  H   UNL     1     -32.324  28.743   3.930  0.00  0.00    +0.292 HD
ENDBRANCH  18  25
TORSDOF 4
ENDMDL
MODEL 5
REMARK VINA RESULT:      -6.1      2.074      4.509
REMARK  Name = 5488919
REMARK  4 active torsions:
REMARK  status: ('A' for Active; 'I' for Inactive)
REMARK    1  A    between atoms: C_11  and  O_19
REMARK    2  A    between atoms: C_12  and  O_21
REMARK    3  A    between atoms: C_17  and  O_23
REMARK    4  A    between atoms: C_18  and  O_25
REMARK                            x       y       z     vdW  Elec       q    Type
REMARK                         _______ _______ _______ _____ _____    ______ ____
ROOT
ATOM      1  O   UNL     1     -37.337  23.619   4.094  0.00  0.00    -0.418 OA
ATOM      2  O   UNL     1     -35.467  27.995   2.432  0.00  0.00    -0.418 OA
ATOM      3  O   UNL     1     -35.959  23.055   5.838  0.00  0.00    -0.244 OA
ATOM      4  O   UNL     1     -36.843  28.558   0.686  0.00  0.00    -0.244 OA
ATOM      5  C   UNL     1     -36.965  25.664   2.842  0.00  0.00    +0.047 A 
ATOM      6  C   UNL     1     -35.839  25.949   3.684  0.00  0.00    +0.047 A 
ATOM      7  C   UNL     1     -35.471  25.083   4.712  0.00  0.00    +0.082 A 
ATOM      8  C   UNL     1     -37.333  26.531   1.814  0.00  0.00    +0.082 A 
ATOM      9  C   UNL     1     -37.701  24.505   3.055  0.00  0.00    +0.186 A 
ATOM     10  C   UNL     1     -35.103  27.109   3.471  0.00  0.00    +0.186 A 
ATOM     11  C   UNL     1     -38.801  24.184   2.265  0.00  0.00    +0.206 C 
ATOM     12  C   UNL     1     -34.004  27.430   4.261  0.00  0.00    +0.206 C 
ATOM     13  C   UNL     1     -34.368  25.387   5.517  0.00  0.00    +0.046 C 
ATOM     14  C   UNL     1     -38.437  26.226   1.009  0.00  0.00    +0.046 C 
ATOM     15  C   UNL     1     -36.249  23.843   4.947  0.00  0.00    +0.346 A 
ATOM     16  C   UNL     1     -36.554  27.772   1.579  0.00  0.00    +0.346 A 
ATOM     17  C   UNL     1     -39.166  25.054   1.238  0.00  0.00    +0.171 C 
ATOM     18  C   UNL     1     -33.639  26.560   5.289  0.00  0.00    +0.171 C 
ENDROOT
BRANCH  11  19
ATOM     19  O   UNL     1     -39.508  23.044   2.490  0.00  0.00    -0.465 OA
ATOM     20  C   UNL     1     -39.078  21.868   1.807  0.00  0.00    +0.253 C 
ENDBRANCH  11  19
BRANCH  12  21
ATOM     21  O   UNL     1     -33.296  28.570   4.036  0.00  0.00    -0.465 OA
ATOM     22  C   UNL     1     -32.195  28.482   3.132  0.00  0.00    +0.253 C 
ENDBRANCH  12  21
BRANCH  17  23
ATOM     23  O   UNL     1     -40.238  24.772   0.445  0.00  0.00    -0.503 OA
ATOM     24  H   UNL     1     -40.782  25.466   0.128  0.00  0.00    +0.292 HD
ENDBRANCH  17  23
BRANCH  18  25
ATOM     25  O   UNL     1     -32.566  26.842   6.082  0.00  0.00    -0.503 OA
ATOM     26  H   UNL     1     -31.739  27.051   5.695  0.00  0.00    +0.292 HD
ENDBRANCH  18  25
TORSDOF 4
ENDMDL
MODEL 6
REMARK VINA RESULT:      -6.1      1.838      6.733
REMARK  Name = 5488919
REMARK  4 active torsions:
REMARK  status: ('A' for Active; 'I' for Inactive)
REMARK    1  A    between atoms: C_11  and  O_19
REMARK    2  A    between atoms: C_12  and  O_21
REMARK    3  A    between atoms: C_17  and  O_23
REMARK    4  A    between atoms: C_18  and  O_25
REMARK                            x       y       z     vdW  Elec       q    Type
REMARK                         _______ _______ _______ _____ _____    ______ ____
ROOT
ATOM      1  O   UNL     1     -33.256  28.157   4.500  0.00  0.00    -0.418 OA
ATOM      2  O   UNL     1     -37.148  25.811   2.317  0.00  0.00    -0.418 OA
ATOM      3  O   UNL     1     -32.669  26.767   6.225  0.00  0.00    -0.244 OA
ATOM      4  O   UNL     1     -37.738  27.203   0.593  0.00  0.00    -0.244 OA
ATOM      5  C   UNL     1     -35.102  27.586   3.032  0.00  0.00    +0.047 A 
ATOM      6  C   UNL     1     -35.302  26.382   3.786  0.00  0.00    +0.047 A 
ATOM      7  C   UNL     1     -34.491  26.074   4.877  0.00  0.00    +0.082 A 
ATOM      8  C   UNL     1     -35.913  27.894   1.940  0.00  0.00    +0.082 A 
ATOM      9  C   UNL     1     -34.085  28.459   3.395  0.00  0.00    +0.186 A 
ATOM     10  C   UNL     1     -36.319  25.509   3.422  0.00  0.00    +0.186 A 
ATOM     11  C   UNL     1     -33.852  29.639   2.695  0.00  0.00    +0.206 C 
ATOM     12  C   UNL     1     -36.552  24.328   4.122  0.00  0.00    +0.206 C 
ATOM     13  C   UNL     1     -34.709  24.892   5.594  0.00  0.00    +0.046 C 
ATOM     14  C   UNL     1     -35.695  29.076   1.223  0.00  0.00    +0.046 C 
ATOM     15  C   UNL     1     -33.402  27.000   5.273  0.00  0.00    +0.346 A 
ATOM     16  C   UNL     1     -37.002  26.968   1.543  0.00  0.00    +0.346 A 
ATOM     17  C   UNL     1     -34.665  29.944   1.604  0.00  0.00    +0.171 C 
ATOM     18  C   UNL     1     -35.738  24.023   5.213  0.00  0.00    +0.171 C 
ENDROOT
BRANCH  11  19
ATOM     19  O   UNL     1     -32.850  30.481   3.067  0.00  0.00    -0.465 OA
ATOM     20  C   UNL     1     -31.569  30.269   2.476  0.00  0.00    +0.253 C 
ENDBRANCH  11  19
BRANCH  12  21
ATOM     21  O   UNL     1     -37.554  23.486   3.750  0.00  0.00    -0.465 OA
ATOM     22  C   UNL     1     -37.242  22.500   2.767  0.00  0.00    +0.253 C 
ENDBRANCH  12  21
BRANCH  17  23
ATOM     23  O   UNL     1     -34.466  31.091   0.895  0.00  0.00    -0.503 OA
ATOM     24  H   UNL     1     -35.199  31.566   0.556  0.00  0.00    +0.292 HD
ENDBRANCH  17  23
BRANCH  18  25
ATOM     25  O   UNL     1     -35.937  22.876   5.922  0.00  0.00    -0.503 OA
ATOM     26  H   UNL     1     -35.396  22.682   6.661  0.00  0.00    +0.292 HD
ENDBRANCH  18  25
TORSDOF 4
ENDMDL
MODEL 7
REMARK VINA RESULT:      -6.1      1.845      2.215
REMARK  Name = 5488919
REMARK  4 active torsions:
REMARK  status: ('A' for Active; 'I' for Inactive)
REMARK    1  A    between atoms: C_11  and  O_19
REMARK    2  A    between atoms: C_12  and  O_21
REMARK    3  A    between atoms: C_17  and  O_23
REMARK    4  A    between atoms: C_18  and  O_25
REMARK                            x       y       z     vdW  Elec       q    Type
REMARK                         _______ _______ _______ _____ _____    ______ ____
ROOT
ATOM      1  O   UNL     1     -37.143  25.829   2.320  0.00  0.00    -0.418 OA
ATOM      2  O   UNL     1     -33.240  28.159   4.500  0.00  0.00    -0.418 OA
ATOM      3  O   UNL     1     -37.730  27.225   0.599  0.00  0.00    -0.244 OA
ATOM      4  O   UNL     1     -32.654  26.764   6.223  0.00  0.00    -0.244 OA
ATOM      5  C   UNL     1     -35.292  26.392   3.786  0.00  0.00    +0.047 A 
ATOM      6  C   UNL     1     -35.090  27.596   3.034  0.00  0.00    +0.047 A 
ATOM      7  C   UNL     1     -35.901  27.908   1.944  0.00  0.00    +0.082 A 
ATOM      8  C   UNL     1     -34.481  26.079   4.876  0.00  0.00    +0.082 A 
ATOM      9  C   UNL     1     -36.314  25.522   3.423  0.00  0.00    +0.186 A 
ATOM     10  C   UNL     1     -34.069  28.465   3.397  0.00  0.00    +0.186 A 
ATOM     11  C   UNL     1     -36.550  24.342   4.122  0.00  0.00    +0.206 C 
ATOM     12  C   UNL     1     -33.833  29.645   2.698  0.00  0.00    +0.206 C 
ATOM     13  C   UNL     1     -35.681  29.091   1.229  0.00  0.00    +0.046 C 
ATOM     14  C   UNL     1     -34.702  24.896   5.591  0.00  0.00    +0.046 C 
ATOM     15  C   UNL     1     -36.995  26.988   1.549  0.00  0.00    +0.346 A 
ATOM     16  C   UNL     1     -33.387  27.000   5.272  0.00  0.00    +0.346 A 
ATOM     17  C   UNL     1     -35.736  24.033   5.211  0.00  0.00    +0.171 C 
ATOM     18  C   UNL     1     -34.646  29.954   1.608  0.00  0.00    +0.171 C 
ENDROOT
BRANCH  11  19
ATOM     19  O   UNL     1     -37.555  23.504   3.750  0.00  0.00    -0.465 OA
ATOM     20  C   UNL     1     -37.242  22.500   2.787  0.00  0.00    +0.253 C 
ENDBRANCH  11  19
BRANCH  12  21
ATOM     21  O   UNL     1     -32.828  30.483   3.070  0.00  0.00    -0.465 OA
ATOM     22  C   UNL     1     -31.546  30.259   2.484  0.00  0.00    +0.253 C 
ENDBRANCH  12  21
BRANCH  17  23
ATOM     23  O   UNL     1     -35.938  22.885   5.918  0.00  0.00    -0.503 OA
ATOM     24  H   UNL     1     -36.619  22.844   6.560  0.00  0.00    +0.292 HD
ENDBRANCH  17  23
BRANCH  18  25
ATOM     25  O   UNL     1     -34.445  31.102   0.901  0.00  0.00    -0.503 OA
ATOM     26  H   UNL     1     -33.601  31.286   0.538  0.00  0.00    +0.292 HD
ENDBRANCH  18  25
TORSDOF 4
ENDMDL
MODEL 8
REMARK VINA RESULT:      -6.0      2.119      5.110
REMARK  Name = 5488919
REMARK  4 active torsions:
REMARK  status: ('A' for Active; 'I' for Inactive)
REMARK    1  A    between atoms: C_11  and  O_19
REMARK    2  A    between atoms: C_12  and  O_21
REMARK    3  A    between atoms: C_17  and  O_23
REMARK    4  A    between atoms: C_18  and  O_25
REMARK                            x       y       z     vdW  Elec       q    Type
REMARK                         _______ _______ _______ _____ _____    ______ ____
ROOT
ATOM      1  O   UNL     1     -35.584  27.995   2.334  0.00  0.00    -0.418 OA
ATOM      2  O   UNL     1     -37.363  23.625   4.108  0.00  0.00    -0.418 OA
ATOM      3  O   UNL     1     -37.007  28.515   0.614  0.00  0.00    -0.244 OA
ATOM      4  O   UNL     1     -35.937  23.103   5.827  0.00  0.00    -0.244 OA
ATOM      5  C   UNL     1     -35.902  25.966   3.626  0.00  0.00    +0.047 A 
ATOM      6  C   UNL     1     -37.044  25.655   2.816  0.00  0.00    +0.047 A 
ATOM      7  C   UNL     1     -37.447  26.501   1.784  0.00  0.00    +0.082 A 
ATOM      8  C   UNL     1     -35.500  25.119   4.658  0.00  0.00    +0.082 A 
ATOM      9  C   UNL     1     -35.185  27.129   3.378  0.00  0.00    +0.186 A 
ATOM     10  C   UNL     1     -37.762  24.491   3.064  0.00  0.00    +0.186 A 
ATOM     11  C   UNL     1     -34.070  27.475   4.136  0.00  0.00    +0.206 C 
ATOM     12  C   UNL     1     -38.877  24.146   2.307  0.00  0.00    +0.206 C 
ATOM     13  C   UNL     1     -38.565  26.172   1.010  0.00  0.00    +0.046 C 
ATOM     14  C   UNL     1     -34.381  25.449   5.433  0.00  0.00    +0.046 C 
ATOM     15  C   UNL     1     -36.687  27.746   1.511  0.00  0.00    +0.346 A 
ATOM     16  C   UNL     1     -36.259  23.874   4.932  0.00  0.00    +0.346 A 
ATOM     17  C   UNL     1     -33.671  26.625   5.168  0.00  0.00    +0.171 C 
ATOM     18  C   UNL     1     -39.276  24.996   1.275  0.00  0.00    +0.171 C 
ENDROOT
BRANCH  11  19
ATOM     19  O   UNL     1     -33.381  28.619   3.877  0.00  0.00    -0.465 OA
ATOM     20  C   UNL     1     -32.312  28.535   2.937  0.00  0.00    +0.253 C 
ENDBRANCH  11  19
BRANCH  12  21
ATOM     21  O   UNL     1     -39.565  23.001   2.565  0.00  0.00    -0.465 OA
ATOM     22  C   UNL     1     -39.148  21.824   1.875  0.00  0.00    +0.253 C 
ENDBRANCH  12  21
BRANCH  17  23
ATOM     23  O   UNL     1     -32.584  26.931   5.931  0.00  0.00    -0.503 OA
ATOM     24  H   UNL     1     -32.119  26.252   6.378  0.00  0.00    +0.292 HD
ENDBRANCH  17  23
BRANCH  18  25
ATOM     25  O   UNL     1     -40.363  24.689   0.512  0.00  0.00    -0.503 OA
ATOM     26  H   UNL     1     -40.257  24.201  -0.280  0.00  0.00    +0.292 HD
ENDBRANCH  18  25
TORSDOF 4
ENDMDL
MODEL 9
REMARK VINA RESULT:      -5.8      3.425      7.036
REMARK  Name = 5488919
REMARK  4 active torsions:
REMARK  status: ('A' for Active; 'I' for Inactive)
REMARK    1  A    between atoms: C_11  and  O_19
REMARK    2  A    between atoms: C_12  and  O_21
REMARK    3  A    between atoms: C_17  and  O_23
REMARK    4  A    between atoms: C_18  and  O_25
REMARK                            x       y       z     vdW  Elec       q    Type
REMARK                         _______ _______ _______ _____ _____    ______ ____
ROOT
ATOM      1  O   UNL     1     -35.427  21.769   2.844  0.00  0.00    -0.418 OA
ATOM      2  O   UNL     1     -39.943  21.883   0.605  0.00  0.00    -0.418 OA
ATOM      3  O   UNL     1     -34.455  19.859   2.030  0.00  0.00    -0.244 OA
ATOM      4  O   UNL     1     -40.917  23.792   1.421  0.00  0.00    -0.244 OA
ATOM      5  C   UNL     1     -37.660  22.410   2.139  0.00  0.00    +0.047 A 
ATOM      6  C   UNL     1     -37.710  21.242   1.310  0.00  0.00    +0.047 A 
ATOM      7  C   UNL     1     -36.637  20.354   1.249  0.00  0.00    +0.082 A 
ATOM      8  C   UNL     1     -38.733  23.298   2.199  0.00  0.00    +0.082 A 
ATOM      9  C   UNL     1     -36.522  22.662   2.896  0.00  0.00    +0.186 A 
ATOM     10  C   UNL     1     -38.848  20.990   0.553  0.00  0.00    +0.186 A 
ATOM     11  C   UNL     1     -36.424  23.782   3.716  0.00  0.00    +0.206 C 
ATOM     12  C   UNL     1     -38.945  19.871  -0.268  0.00  0.00    +0.206 C 
ATOM     13  C   UNL     1     -36.716  19.222   0.431  0.00  0.00    +0.046 C 
ATOM     14  C   UNL     1     -38.654  24.431   3.019  0.00  0.00    +0.046 C 
ATOM     15  C   UNL     1     -35.419  20.613   2.054  0.00  0.00    +0.346 A 
ATOM     16  C   UNL     1     -39.953  23.039   1.395  0.00  0.00    +0.346 A 
ATOM     17  C   UNL     1     -37.501  24.667   3.774  0.00  0.00    +0.171 C 
ATOM     18  C   UNL     1     -37.869  18.985  -0.326  0.00  0.00    +0.171 C 
ENDROOT
BRANCH  11  19
ATOM     19  O   UNL     1     -35.301  24.010   4.450  0.00  0.00    -0.465 OA
ATOM     20  C   UNL     1     -35.235  23.407   5.741  0.00  0.00    +0.253 C 
ENDBRANCH  11  19
BRANCH  12  21
ATOM     21  O   UNL     1     -40.069  19.642  -1.001  0.00  0.00    -0.465 OA
ATOM     22  C   UNL     1     -40.105  20.186  -2.320  0.00  0.00    +0.253 C 
ENDBRANCH  12  21
BRANCH  17  23
ATOM     23  O   UNL     1     -37.440  25.775   4.566  0.00  0.00    -0.503 OA
ATOM     24  H   UNL     1     -37.424  25.684   5.498  0.00  0.00    +0.292 HD
ENDBRANCH  17  23
BRANCH  18  25
ATOM     25  O   UNL     1     -37.930  17.878  -1.118  0.00  0.00    -0.503 OA
ATOM     26  H   UNL     1     -38.749  17.606  -1.481  0.00  0.00    +0.292 HD
ENDBRANCH  18  25
TORSDOF 4
ENDMDL
