MODEL 1
REMARK VINA RESULT:      -6.2      0.000      0.000
REMARK  Name = 191236
REMARK  9 active torsions:
REMARK  status: ('A' for Active; 'I' for Inactive)
REMARK    1  A    between atoms: C_2  and  N_11
REMARK    2  A    between atoms: C_3  and  O_7
REMARK    3  A    between atoms: C_4  and  O_9
REMARK    4  A    between atoms: C_5  and  C_27
REMARK    5  A    between atoms: C_6  and  O_17
REMARK    6  A    between atoms: N_11  and  S_13
REMARK    7  A    between atoms: O_17  and  C_18
REMARK    8  A    between atoms: C_23  and  N_26
REMARK    9  A    between atoms: C_27  and  O_28
REMARK                            x       y       z     vdW  Elec       q    Type
REMARK                         _______ _______ _______ _____ _____    ______ ____
ROOT
ATOM      1  O   UNL     1     -38.233  24.310   3.790  0.00  0.00    -0.317 OA
ATOM      2  C   UNL     1     -37.366  22.420   2.539  0.00  0.00    +0.174 C 
ATOM      3  C   UNL     1     -38.582  22.474   1.613  0.00  0.00    +0.162 C 
ATOM      4  C   UNL     1     -39.760  23.185   2.283  0.00  0.00    +0.168 C 
ATOM      5  C   UNL     1     -39.314  24.523   2.880  0.00  0.00    +0.177 C 
ATOM      6  C   UNL     1     -37.068  23.790   3.153  0.00  0.00    +0.307 C 
ENDROOT
BRANCH   3   7
ATOM      7  O   UNL     1     -38.970  21.136   1.295  0.00  0.00    -0.380 OA
ATOM      8  H   UNL     1     -39.930  21.043   1.400  0.00  0.00    +0.211 HD
ENDBRANCH   3   7
BRANCH   4   9
ATOM      9  O   UNL     1     -40.769  23.390   1.297  0.00  0.00    -0.379 OA
ATOM     10  H   UNL     1     -41.498  22.768   1.447  0.00  0.00    +0.211 HD
ENDBRANCH   4   9
BRANCH   2  11
ATOM     11  N   UNL     1     -36.183  21.979   1.747  0.00  0.00    -0.176 NA
ATOM     12  H   UNL     1     -36.438  22.051   0.762  0.00  0.00    +0.149 HD
BRANCH  11  13
ATOM     13  S   UNL     1     -35.572  20.413   1.993  0.00  0.00    +0.043 S 
ATOM     14  O   UNL     1     -36.474  19.430   1.425  0.00  0.00    -0.157 OA
ATOM     15  O   UNL     1     -35.137  20.310   3.372  0.00  0.00    -0.157 OA
ATOM     16  C   UNL     1     -34.111  20.464   0.979  0.00  0.00    +0.196 C 
ENDBRANCH  11  13
ENDBRANCH   2  11
BRANCH   6  17
ATOM     17  O   UNL     1     -36.030  23.629   4.118  0.00  0.00    -0.451 OA
BRANCH  17  18
ATOM     18  C   UNL     1     -35.182  24.689   4.287  0.00  0.00    +0.141 C 
ATOM     19  C   UNL     1     -34.873  25.128   5.570  0.00  0.00    +0.039 C 
ATOM     20  C   UNL     1     -34.633  25.319   3.174  0.00  0.00    +0.039 C 
ATOM     21  C   UNL     1     -34.006  26.207   5.744  0.00  0.00    +0.027 C 
ATOM     22  C   UNL     1     -33.767  26.399   3.347  0.00  0.00    +0.027 C 
ATOM     23  C   UNL     1     -33.454  26.844   4.632  0.00  0.00    +0.143 C 
BRANCH  23  26
ATOM     24  O   UNL     1     -31.436  27.734   5.293  0.00  0.00    -0.126 OA
ATOM     25  O   UNL     1     -32.963  29.087   4.471  0.00  0.00    -0.126 OA
ATOM     26  N   UNL     1     -32.574  27.944   4.807  0.00  0.00    +0.058 N 
ENDBRANCH  23  26
ENDBRANCH  17  18
ENDBRANCH   6  17
BRANCH   5  27
ATOM     27  C   UNL     1     -40.432  25.210   3.658  0.00  0.00    +0.169 C 
BRANCH  27  28
ATOM     28  O   UNL     1     -40.268  26.611   3.541  0.00  0.00    -0.379 OA
ATOM     29  H   UNL     1     -40.396  27.025   4.409  0.00  0.00    +0.211 HD
ENDBRANCH  27  28
ENDBRANCH   5  27
TORSDOF 9
ENDMDL
MODEL 2
REMARK VINA RESULT:      -6.1      2.327      4.649
REMARK  Name = 191236
REMARK  9 active torsions:
REMARK  status: ('A' for Active; 'I' for Inactive)
REMARK    1  A    between atoms: C_2  and  N_11
REMARK    2  A    between atoms: C_3  and  O_7
REMARK    3  A    between atoms: C_4  and  O_9
REMARK    4  A    between atoms: C_5  and  C_27
REMARK    5  A    between atoms: C_6  and  O_17
REMARK    6  A    between atoms: N_11  and  S_13
REMARK    7  A    between atoms: O_17  and  C_18
REMARK    8  A    between atoms: C_23  and  N_26
REMARK    9  A    between atoms: C_27  and  O_28
REMARK                            x       y       z     vdW  Elec       q    Type
REMARK                         _______ _______ _______ _____ _____    ______ ____
ROOT
ATOM      1  O   UNL     1     -36.669  23.791   2.862  0.00  0.00    -0.317 OA
ATOM      2  C   UNL     1     -38.994  24.465   2.675  0.00  0.00    +0.174 C 
ATOM      3  C   UNL     1     -39.410  22.997   2.564  0.00  0.00    +0.162 C 
ATOM      4  C   UNL     1     -38.247  22.123   2.090  0.00  0.00    +0.168 C 
ATOM      5  C   UNL     1     -36.991  22.400   2.921  0.00  0.00    +0.177 C 
ATOM      6  C   UNL     1     -37.678  24.617   3.442  0.00  0.00    +0.307 C 
ENDROOT
BRANCH   3   7
ATOM      7  O   UNL     1     -40.478  22.899   1.619  0.00  0.00    -0.380 OA
ATOM      8  H   UNL     1     -40.368  22.093   1.089  0.00  0.00    +0.211 HD
ENDBRANCH   3   7
BRANCH   4   9
ATOM      9  O   UNL     1     -38.640  20.759   2.220  0.00  0.00    -0.379 OA
ATOM     10  H   UNL     1     -37.850  20.197   2.260  0.00  0.00    +0.211 HD
ENDBRANCH   4   9
BRANCH   2  11
ATOM     11  N   UNL     1     -40.062  25.209   3.399  0.00  0.00    -0.176 NA
ATOM     12  H   UNL     1     -40.646  24.517   3.867  0.00  0.00    +0.149 HD
BRANCH  11  13
ATOM     13  S   UNL     1     -41.099  26.221   2.510  0.00  0.00    +0.043 S 
ATOM     14  O   UNL     1     -42.087  25.428   1.805  0.00  0.00    -0.157 OA
ATOM     15  O   UNL     1     -40.285  27.191   1.803  0.00  0.00    -0.157 OA
ATOM     16  C   UNL     1     -41.929  27.084   3.826  0.00  0.00    +0.196 C 
ENDBRANCH  11  13
ENDBRANCH   2  11
BRANCH   6  17
ATOM     17  O   UNL     1     -37.275  25.982   3.368  0.00  0.00    -0.451 OA
BRANCH  17  18
ATOM     18  C   UNL     1     -36.065  26.295   3.927  0.00  0.00    +0.141 C 
ATOM     19  C   UNL     1     -35.140  27.035   3.199  0.00  0.00    +0.039 C 
ATOM     20  C   UNL     1     -35.772  25.872   5.220  0.00  0.00    +0.039 C 
ATOM     21  C   UNL     1     -33.908  27.356   3.769  0.00  0.00    +0.027 C 
ATOM     22  C   UNL     1     -34.539  26.191   5.789  0.00  0.00    +0.027 C 
ATOM     23  C   UNL     1     -33.607  26.934   5.064  0.00  0.00    +0.143 C 
BRANCH  23  26
ATOM     24  O   UNL     1     -31.459  27.749   4.912  0.00  0.00    -0.126 OA
ATOM     25  O   UNL     1     -32.179  27.042   6.867  0.00  0.00    -0.126 OA
ATOM     26  N   UNL     1     -32.352  27.258   5.644  0.00  0.00    +0.058 N 
ENDBRANCH  23  26
ENDBRANCH  17  18
ENDBRANCH   6  17
BRANCH   5  27
ATOM     27  C   UNL     1     -35.777  21.633   2.405  0.00  0.00    +0.169 C 
BRANCH  27  28
ATOM     28  O   UNL     1     -35.811  20.323   2.942  0.00  0.00    -0.379 OA
ATOM     29  H   UNL     1     -35.073  20.208   3.561  0.00  0.00    +0.211 HD
ENDBRANCH  27  28
ENDBRANCH   5  27
TORSDOF 9
ENDMDL
MODEL 3
REMARK VINA RESULT:      -6.0      3.259      6.496
REMARK  Name = 191236
REMARK  9 active torsions:
REMARK  status: ('A' for Active; 'I' for Inactive)
REMARK    1  A    between atoms: C_2  and  N_11
REMARK    2  A    between atoms: C_3  and  O_7
REMARK    3  A    between atoms: C_4  and  O_9
REMARK    4  A    between atoms: C_5  and  C_27
REMARK    5  A    between atoms: C_6  and  O_17
REMARK    6  A    between atoms: N_11  and  S_13
REMARK    7  A    between atoms: O_17  and  C_18
REMARK    8  A    between atoms: C_23  and  N_26
REMARK    9  A    between atoms: C_27  and  O_28
REMARK                            x       y       z     vdW  Elec       q    Type
REMARK                         _______ _______ _______ _____ _____    ______ ____
ROOT
ATOM      1  O   UNL     1     -37.036  20.906  -0.046  0.00  0.00    -0.317 OA
ATOM      2  C   UNL     1     -37.088  22.109   2.061  0.00  0.00    +0.174 C 
ATOM      3  C   UNL     1     -38.553  21.712   2.252  0.00  0.00    +0.162 C 
ATOM      4  C   UNL     1     -39.212  21.359   0.917  0.00  0.00    +0.168 C 
ATOM      5  C   UNL     1     -38.347  20.367   0.134  0.00  0.00    +0.177 C 
ATOM      6  C   UNL     1     -36.344  21.097   1.186  0.00  0.00    +0.307 C 
ENDROOT
BRANCH   3   7
ATOM      7  O   UNL     1     -39.250  22.815   2.835  0.00  0.00    -0.380 OA
ATOM      8  H   UNL     1     -39.600  22.555   3.702  0.00  0.00    +0.211 HD
ENDBRANCH   3   7
BRANCH   4   9
ATOM      9  O   UNL     1     -40.492  20.795   1.193  0.00  0.00    -0.379 OA
ATOM     10  H   UNL     1     -40.487  20.400   2.079  0.00  0.00    +0.211 HD
ENDBRANCH   4   9
BRANCH   2  11
ATOM     11  N   UNL     1     -36.432  22.164   3.398  0.00  0.00    -0.176 NA
ATOM     12  H   UNL     1     -37.048  21.687   4.055  0.00  0.00    +0.149 HD
BRANCH  11  13
ATOM     13  S   UNL     1     -36.066  23.684   4.067  0.00  0.00    +0.043 S 
ATOM     14  O   UNL     1     -37.285  24.438   4.286  0.00  0.00    -0.157 OA
ATOM     15  O   UNL     1     -34.966  24.254   3.314  0.00  0.00    -0.157 OA
ATOM     16  C   UNL     1     -35.428  23.202   5.655  0.00  0.00    +0.196 C 
ENDBRANCH  11  13
ENDBRANCH   2  11
BRANCH   6  17
ATOM     17  O   UNL     1     -35.040  21.611   0.923  0.00  0.00    -0.451 OA
BRANCH  17  18
ATOM     18  C   UNL     1     -34.022  20.699   0.866  0.00  0.00    +0.141 C 
ATOM     19  C   UNL     1     -34.137  19.493   1.551  0.00  0.00    +0.039 C 
ATOM     20  C   UNL     1     -32.880  20.983   0.123  0.00  0.00    +0.039 C 
ATOM     21  C   UNL     1     -33.100  18.562   1.492  0.00  0.00    +0.027 C 
ATOM     22  C   UNL     1     -31.843  20.052   0.065  0.00  0.00    +0.027 C 
ATOM     23  C   UNL     1     -31.952  18.841   0.749  0.00  0.00    +0.143 C 
BRANCH  23  26
ATOM     24  O   UNL     1     -29.715  18.312   0.620  0.00  0.00    -0.126 OA
ATOM     25  O   UNL     1     -31.179  16.673   0.711  0.00  0.00    -0.126 OA
ATOM     26  N   UNL     1     -30.896  17.894   0.691  0.00  0.00    +0.058 N 
ENDBRANCH  23  26
ENDBRANCH  17  18
ENDBRANCH   6  17
BRANCH   5  27
ATOM     27  C   UNL     1     -38.913  20.079  -1.254  0.00  0.00    +0.169 C 
BRANCH  27  28
ATOM     28  O   UNL     1     -40.030  19.220  -1.116  0.00  0.00    -0.379 OA
ATOM     29  H   UNL     1     -40.648  19.595  -0.469  0.00  0.00    +0.211 HD
ENDBRANCH  27  28
ENDBRANCH   5  27
TORSDOF 9
ENDMDL
MODEL 4
REMARK VINA RESULT:      -6.0      2.755      6.280
REMARK  Name = 191236
REMARK  9 active torsions:
REMARK  status: ('A' for Active; 'I' for Inactive)
REMARK    1  A    between atoms: C_2  and  N_11
REMARK    2  A    between atoms: C_3  and  O_7
REMARK    3  A    between atoms: C_4  and  O_9
REMARK    4  A    between atoms: C_5  and  C_27
REMARK    5  A    between atoms: C_6  and  O_17
REMARK    6  A    between atoms: N_11  and  S_13
REMARK    7  A    between atoms: O_17  and  C_18
REMARK    8  A    between atoms: C_23  and  N_26
REMARK    9  A    between atoms: C_27  and  O_28
REMARK                            x       y       z     vdW  Elec       q    Type
REMARK                         _______ _______ _______ _____ _____    ______ ____
ROOT
ATOM      1  O   UNL     1     -37.462  22.897   1.570  0.00  0.00    -0.317 OA
ATOM      2  C   UNL     1     -36.199  24.621   2.719  0.00  0.00    +0.174 C 
ATOM      3  C   UNL     1     -37.411  24.921   3.603  0.00  0.00    +0.162 C 
ATOM      4  C   UNL     1     -38.710  24.455   2.942  0.00  0.00    +0.168 C 
ATOM      5  C   UNL     1     -38.579  23.009   2.454  0.00  0.00    +0.177 C 
ATOM      6  C   UNL     1     -36.219  23.178   2.212  0.00  0.00    +0.307 C 
ENDROOT
BRANCH   3   7
ATOM      7  O   UNL     1     -37.480  26.332   3.816  0.00  0.00    -0.380 OA
ATOM      8  H   UNL     1     -38.029  26.737   3.125  0.00  0.00    +0.211 HD
ENDBRANCH   3   7
BRANCH   4   9
ATOM      9  O   UNL     1     -39.757  24.564   3.903  0.00  0.00    -0.379 OA
ATOM     10  H   UNL     1     -39.377  24.588   4.795  0.00  0.00    +0.211 HD
ENDBRANCH   4   9
BRANCH   2  11
ATOM     11  N   UNL     1     -34.961  24.832   3.521  0.00  0.00    -0.176 NA
ATOM     12  H   UNL     1     -35.230  24.793   4.504  0.00  0.00    +0.149 HD
BRANCH  11  13
ATOM     13  S   UNL     1     -34.079  26.268   3.300  0.00  0.00    +0.043 S 
ATOM     14  O   UNL     1     -32.656  25.992   3.348  0.00  0.00    -0.157 OA
ATOM     15  O   UNL     1     -34.664  27.291   4.145  0.00  0.00    -0.157 OA
ATOM     16  C   UNL     1     -34.502  26.663   1.618  0.00  0.00    +0.196 C 
ENDBRANCH  11  13
ENDBRANCH   2  11
BRANCH   6  17
ATOM     17  O   UNL     1     -35.155  23.020   1.275  0.00  0.00    -0.451 OA
BRANCH  17  18
ATOM     18  C   UNL     1     -34.560  21.789   1.226  0.00  0.00    +0.141 C 
ATOM     19  C   UNL     1     -33.496  21.571   0.356  0.00  0.00    +0.039 C 
ATOM     20  C   UNL     1     -35.021  20.765   2.049  0.00  0.00    +0.039 C 
ATOM     21  C   UNL     1     -32.888  20.317   0.307  0.00  0.00    +0.027 C 
ATOM     22  C   UNL     1     -34.413  19.511   1.999  0.00  0.00    +0.027 C 
ATOM     23  C   UNL     1     -33.346  19.286   1.128  0.00  0.00    +0.143 C 
BRANCH  23  26
ATOM     24  O   UNL     1     -33.318  17.078   0.479  0.00  0.00    -0.126 OA
ATOM     25  O   UNL     1     -31.614  17.856   1.632  0.00  0.00    -0.126 OA
ATOM     26  N   UNL     1     -32.728  18.009   1.077  0.00  0.00    +0.058 N 
ENDBRANCH  23  26
ENDBRANCH  17  18
ENDBRANCH   6  17
BRANCH   5  27
ATOM     27  C   UNL     1     -39.813  22.545   1.686  0.00  0.00    +0.169 C 
BRANCH  27  28
ATOM     28  O   UNL     1     -40.149  21.240   2.120  0.00  0.00    -0.379 OA
ATOM     29  H   UNL     1     -39.365  20.671   2.071  0.00  0.00    +0.211 HD
ENDBRANCH  27  28
ENDBRANCH   5  27
TORSDOF 9
ENDMDL
MODEL 5
REMARK VINA RESULT:      -5.9      2.231      4.902
REMARK  Name = 191236
REMARK  9 active torsions:
REMARK  status: ('A' for Active; 'I' for Inactive)
REMARK    1  A    between atoms: C_2  and  N_11
REMARK    2  A    between atoms: C_3  and  O_7
REMARK    3  A    between atoms: C_4  and  O_9
REMARK    4  A    between atoms: C_5  and  C_27
REMARK    5  A    between atoms: C_6  and  O_17
REMARK    6  A    between atoms: N_11  and  S_13
REMARK    7  A    between atoms: O_17  and  C_18
REMARK    8  A    between atoms: C_23  and  N_26
REMARK    9  A    between atoms: C_27  and  O_28
REMARK                            x       y       z     vdW  Elec       q    Type
REMARK                         _______ _______ _______ _____ _____    ______ ____
ROOT
ATOM      1  O   UNL     1     -34.438  21.628   1.131  0.00  0.00    -0.317 OA
ATOM      2  C   UNL     1     -36.764  20.993   1.407  0.00  0.00    +0.174 C 
ATOM      3  C   UNL     1     -36.381  19.520   1.259  0.00  0.00    +0.162 C 
ATOM      4  C   UNL     1     -35.048  19.363   0.523  0.00  0.00    +0.168 C 
ATOM      5  C   UNL     1     -33.981  20.273   1.139  0.00  0.00    +0.177 C 
ATOM      6  C   UNL     1     -35.596  21.825   1.941  0.00  0.00    +0.307 C 
ENDROOT
BRANCH   3   7
ATOM      7  O   UNL     1     -37.402  18.858   0.511  0.00  0.00    -0.380 OA
ATOM      8  H   UNL     1     -38.201  18.776   1.056  0.00  0.00    +0.211 HD
ENDBRANCH   3   7
BRANCH   4   9
ATOM      9  O   UNL     1     -34.652  17.997   0.615  0.00  0.00    -0.379 OA
ATOM     10  H   UNL     1     -34.003  17.801  -0.079  0.00  0.00    +0.211 HD
ENDBRANCH   4   9
BRANCH   2  11
ATOM     11  N   UNL     1     -37.903  21.095   2.362  0.00  0.00    -0.176 NA
ATOM     12  H   UNL     1     -38.200  20.144   2.578  0.00  0.00    +0.149 HD
BRANCH  11  13
ATOM     13  S   UNL     1     -39.291  21.957   1.890  0.00  0.00    +0.043 S 
ATOM     14  O   UNL     1     -39.275  23.286   2.471  0.00  0.00    -0.157 OA
ATOM     15  O   UNL     1     -40.440  21.088   2.060  0.00  0.00    -0.157 OA
ATOM     16  C   UNL     1     -39.002  22.120   0.143  0.00  0.00    +0.196 C 
ENDBRANCH  11  13
ENDBRANCH   2  11
BRANCH   6  17
ATOM     17  O   UNL     1     -35.974  23.200   1.901  0.00  0.00    -0.451 OA
BRANCH  17  18
ATOM     18  C   UNL     1     -35.318  24.040   2.760  0.00  0.00    +0.141 C 
ATOM     19  C   UNL     1     -34.712  25.192   2.270  0.00  0.00    +0.039 C 
ATOM     20  C   UNL     1     -35.265  23.736   4.117  0.00  0.00    +0.039 C 
ATOM     21  C   UNL     1     -34.046  26.050   3.145  0.00  0.00    +0.027 C 
ATOM     22  C   UNL     1     -34.598  24.593   4.992  0.00  0.00    +0.027 C 
ATOM     23  C   UNL     1     -33.988  25.750   4.507  0.00  0.00    +0.143 C 
BRANCH  23  26
ATOM     24  O   UNL     1     -33.646  26.633   6.606  0.00  0.00    -0.126 OA
ATOM     25  O   UNL     1     -32.392  27.351   4.947  0.00  0.00    -0.126 OA
ATOM     26  N   UNL     1     -33.308  26.622   5.398  0.00  0.00    +0.058 N 
ENDBRANCH  23  26
ENDBRANCH  17  18
ENDBRANCH   6  17
BRANCH   5  27
ATOM     27  C   UNL     1     -32.669  20.234   0.362  0.00  0.00    +0.169 C 
BRANCH  27  28
ATOM     28  O   UNL     1     -31.909  19.130   0.818  0.00  0.00    -0.379 OA
ATOM     29  H   UNL     1     -31.090  19.067   0.302  0.00  0.00    +0.211 HD
ENDBRANCH  27  28
ENDBRANCH   5  27
TORSDOF 9
ENDMDL
MODEL 6
REMARK VINA RESULT:      -5.9      2.746      6.071
REMARK  Name = 191236
REMARK  9 active torsions:
REMARK  status: ('A' for Active; 'I' for Inactive)
REMARK    1  A    between atoms: C_2  and  N_11
REMARK    2  A    between atoms: C_3  and  O_7
REMARK    3  A    between atoms: C_4  and  O_9
REMARK    4  A    between atoms: C_5  and  C_27
REMARK    5  A    between atoms: C_6  and  O_17
REMARK    6  A    between atoms: N_11  and  S_13
REMARK    7  A    between atoms: O_17  and  C_18
REMARK    8  A    between atoms: C_23  and  N_26
REMARK    9  A    between atoms: C_27  and  O_28
REMARK                            x       y       z     vdW  Elec       q    Type
REMARK                         _______ _______ _______ _____ _____    ______ ____
ROOT
ATOM      1  O   UNL     1     -35.487  23.084   3.313  0.00  0.00    -0.317 OA
ATOM      2  C   UNL     1     -37.769  23.474   2.586  0.00  0.00    +0.174 C 
ATOM      3  C   UNL     1     -37.783  24.804   3.341  0.00  0.00    +0.162 C 
ATOM      4  C   UNL     1     -36.729  24.825   4.450  0.00  0.00    +0.168 C 
ATOM      5  C   UNL     1     -35.368  24.377   3.910  0.00  0.00    +0.177 C 
ATOM      6  C   UNL     1     -36.349  23.077   2.176  0.00  0.00    +0.307 C 
ENDROOT
BRANCH   3   7
ATOM      7  O   UNL     1     -39.074  24.980   3.927  0.00  0.00    -0.380 OA
ATOM      8  H   UNL     1     -39.745  25.025   3.226  0.00  0.00    +0.211 HD
ENDBRANCH   3   7
BRANCH   4   9
ATOM      9  O   UNL     1     -36.651  26.154   4.959  0.00  0.00    -0.379 OA
ATOM     10  H   UNL     1     -35.905  26.221   5.575  0.00  0.00    +0.211 HD
ENDBRANCH   4   9
BRANCH   2  11
ATOM     11  N   UNL     1     -38.603  23.614   1.359  0.00  0.00    -0.176 NA
ATOM     12  H   UNL     1     -38.893  24.590   1.304  0.00  0.00    +0.149 HD
BRANCH  11  13
ATOM     13  S   UNL     1     -40.005  22.665   1.210  0.00  0.00    +0.043 S 
ATOM     14  O   UNL     1     -41.174  23.516   1.093  0.00  0.00    -0.157 OA
ATOM     15  O   UNL     1     -39.948  21.617   2.211  0.00  0.00    -0.157 OA
ATOM     16  C   UNL     1     -39.723  21.903  -0.372  0.00  0.00    +0.196 C 
ENDBRANCH  11  13
ENDBRANCH   2  11
BRANCH   6  17
ATOM     17  O   UNL     1     -36.396  21.764   1.623  0.00  0.00    -0.451 OA
BRANCH  17  18
ATOM     18  C   UNL     1     -35.195  21.190   1.305  0.00  0.00    +0.141 C 
ATOM     19  C   UNL     1     -34.319  21.853   0.451  0.00  0.00    +0.039 C 
ATOM     20  C   UNL     1     -34.858  19.950   1.839  0.00  0.00    +0.039 C 
ATOM     21  C   UNL     1     -33.094  21.270   0.128  0.00  0.00    +0.027 C 
ATOM     22  C   UNL     1     -33.634  19.366   1.515  0.00  0.00    +0.027 C 
ATOM     23  C   UNL     1     -32.751  20.026   0.659  0.00  0.00    +0.143 C 
BRANCH  23  26
ATOM     24  O   UNL     1     -31.275  18.259   0.715  0.00  0.00    -0.126 OA
ATOM     25  O   UNL     1     -30.677  20.096  -0.339  0.00  0.00    -0.126 OA
ATOM     26  N   UNL     1     -31.505  19.430   0.328  0.00  0.00    +0.058 N 
ENDBRANCH  23  26
ENDBRANCH  17  18
ENDBRANCH   6  17
BRANCH   5  27
ATOM     27  C   UNL     1     -34.316  24.272   5.010  0.00  0.00    +0.169 C 
BRANCH  27  28
ATOM     28  O   UNL     1     -33.643  25.514   5.110  0.00  0.00    -0.379 OA
ATOM     29  H   UNL     1     -33.859  25.931   5.958  0.00  0.00    +0.211 HD
ENDBRANCH  27  28
ENDBRANCH   5  27
TORSDOF 9
ENDMDL
MODEL 7
REMARK VINA RESULT:      -5.9      1.429      2.019
REMARK  Name = 191236
REMARK  9 active torsions:
REMARK  status: ('A' for Active; 'I' for Inactive)
REMARK    1  A    between atoms: C_2  and  N_11
REMARK    2  A    between atoms: C_3  and  O_7
REMARK    3  A    between atoms: C_4  and  O_9
REMARK    4  A    between atoms: C_5  and  C_27
REMARK    5  A    between atoms: C_6  and  O_17
REMARK    6  A    between atoms: N_11  and  S_13
REMARK    7  A    between atoms: O_17  and  C_18
REMARK    8  A    between atoms: C_23  and  N_26
REMARK    9  A    between atoms: C_27  and  O_28
REMARK                            x       y       z     vdW  Elec       q    Type
REMARK                         _______ _______ _______ _____ _____    ______ ____
ROOT
ATOM      1  O   UNL     1     -37.968  24.152   3.031  0.00  0.00    -0.317 OA
ATOM      2  C   UNL     1     -38.197  21.770   2.625  0.00  0.00    +0.174 C 
ATOM      3  C   UNL     1     -39.424  22.036   1.751  0.00  0.00    +0.162 C 
ATOM      4  C   UNL     1     -40.063  23.385   2.086  0.00  0.00    +0.168 C 
ATOM      5  C   UNL     1     -39.006  24.493   2.109  0.00  0.00    +0.177 C 
ATOM      6  C   UNL     1     -37.255  22.977   2.651  0.00  0.00    +0.307 C 
ENDROOT
BRANCH   3   7
ATOM      7  O   UNL     1     -40.380  21.000   1.984  0.00  0.00    -0.380 OA
ATOM      8  H   UNL     1     -39.929  20.140   2.000  0.00  0.00    +0.211 HD
ENDBRANCH   3   7
BRANCH   4   9
ATOM      9  O   UNL     1     -41.053  23.661   1.098  0.00  0.00    -0.379 OA
ATOM     10  H   UNL     1     -41.523  24.477   1.330  0.00  0.00    +0.211 HD
ENDBRANCH   4   9
BRANCH   2  11
ATOM     11  N   UNL     1     -37.462  20.598   2.071  0.00  0.00    -0.176 NA
ATOM     12  H   UNL     1     -36.518  20.627   2.454  0.00  0.00    +0.149 HD
BRANCH  11  13
ATOM     13  S   UNL     1     -37.313  20.449   0.384  0.00  0.00    +0.043 S 
ATOM     14  O   UNL     1     -36.841  21.696  -0.187  0.00  0.00    -0.157 OA
ATOM     15  O   UNL     1     -38.515  19.811  -0.119  0.00  0.00    -0.157 OA
ATOM     16  C   UNL     1     -35.995  19.261   0.271  0.00  0.00    +0.196 C 
ENDBRANCH  11  13
ENDBRANCH   2  11
BRANCH   6  17
ATOM     17  O   UNL     1     -36.225  22.718   3.602  0.00  0.00    -0.451 OA
BRANCH  17  18
ATOM     18  C   UNL     1     -35.494  23.795   4.021  0.00  0.00    +0.141 C 
ATOM     19  C   UNL     1     -34.595  24.401   3.149  0.00  0.00    +0.039 C 
ATOM     20  C   UNL     1     -35.656  24.279   5.316  0.00  0.00    +0.039 C 
ATOM     21  C   UNL     1     -33.850  25.500   3.575  0.00  0.00    +0.027 C 
ATOM     22  C   UNL     1     -34.911  25.378   5.743  0.00  0.00    +0.027 C 
ATOM     23  C   UNL     1     -34.008  25.989   4.873  0.00  0.00    +0.143 C 
BRANCH  23  26
ATOM     24  O   UNL     1     -33.291  28.164   4.634  0.00  0.00    -0.126 OA
ATOM     25  O   UNL     1     -32.561  27.000   6.352  0.00  0.00    -0.126 OA
ATOM     26  N   UNL     1     -33.249  27.107   5.308  0.00  0.00    +0.058 N 
ENDBRANCH  23  26
ENDBRANCH  17  18
ENDBRANCH   6  17
BRANCH   5  27
ATOM     27  C   UNL     1     -39.584  25.833   2.553  0.00  0.00    +0.169 C 
BRANCH  27  28
ATOM     28  O   UNL     1     -38.632  26.484   3.375  0.00  0.00    -0.379 OA
ATOM     29  H   UNL     1     -37.755  26.102   3.218  0.00  0.00    +0.211 HD
ENDBRANCH  27  28
ENDBRANCH   5  27
TORSDOF 9
ENDMDL
MODEL 8
REMARK VINA RESULT:      -5.8      3.617      6.321
REMARK  Name = 191236
REMARK  9 active torsions:
REMARK  status: ('A' for Active; 'I' for Inactive)
REMARK    1  A    between atoms: C_2  and  N_11
REMARK    2  A    between atoms: C_3  and  O_7
REMARK    3  A    between atoms: C_4  and  O_9
REMARK    4  A    between atoms: C_5  and  C_27
REMARK    5  A    between atoms: C_6  and  O_17
REMARK    6  A    between atoms: N_11  and  S_13
REMARK    7  A    between atoms: O_17  and  C_18
REMARK    8  A    between atoms: C_23  and  N_26
REMARK    9  A    between atoms: C_27  and  O_28
REMARK                            x       y       z     vdW  Elec       q    Type
REMARK                         _______ _______ _______ _____ _____    ______ ____
ROOT
ATOM      1  O   UNL     1     -35.233  21.317   3.395  0.00  0.00    -0.317 OA
ATOM      2  C   UNL     1     -36.986  21.262   1.717  0.00  0.00    +0.174 C 
ATOM      3  C   UNL     1     -37.504  22.613   2.212  0.00  0.00    +0.162 C 
ATOM      4  C   UNL     1     -37.063  22.884   3.653  0.00  0.00    +0.168 C 
ATOM      5  C   UNL     1     -35.559  22.645   3.811  0.00  0.00    +0.177 C 
ATOM      6  C   UNL     1     -35.494  21.092   2.010  0.00  0.00    +0.307 C 
ENDROOT
BRANCH   3   7
ATOM      7  O   UNL     1     -38.931  22.599   2.160  0.00  0.00    -0.380 OA
ATOM      8  H   UNL     1     -39.244  23.360   1.644  0.00  0.00    +0.211 HD
ENDBRANCH   3   7
BRANCH   4   9
ATOM      9  O   UNL     1     -37.390  24.235   3.967  0.00  0.00    -0.379 OA
ATOM     10  H   UNL     1     -38.146  24.252   4.574  0.00  0.00    +0.211 HD
ENDBRANCH   4   9
BRANCH   2  11
ATOM     11  N   UNL     1     -37.199  21.181   0.244  0.00  0.00    -0.176 NA
ATOM     12  H   UNL     1     -37.434  22.120  -0.077  0.00  0.00    +0.149 HD
BRANCH  11  13
ATOM     13  S   UNL     1     -38.397  20.133  -0.352  0.00  0.00    +0.043 S 
ATOM     14  O   UNL     1     -39.667  20.408   0.293  0.00  0.00    -0.157 OA
ATOM     15  O   UNL     1     -37.851  18.790  -0.372  0.00  0.00    -0.157 OA
ATOM     16  C   UNL     1     -38.511  20.685  -2.039  0.00  0.00    +0.196 C 
ENDBRANCH  11  13
ENDBRANCH   2  11
BRANCH   6  17
ATOM     17  O   UNL     1     -35.121  19.759   1.667  0.00  0.00    -0.451 OA
BRANCH  17  18
ATOM     18  C   UNL     1     -33.844  19.578   1.211  0.00  0.00    +0.141 C 
ATOM     19  C   UNL     1     -33.231  20.577   0.462  0.00  0.00    +0.039 C 
ATOM     20  C   UNL     1     -33.167  18.397   1.500  0.00  0.00    +0.039 C 
ATOM     21  C   UNL     1     -31.929  20.394  -0.002  0.00  0.00    +0.027 C 
ATOM     22  C   UNL     1     -31.865  18.213   1.035  0.00  0.00    +0.027 C 
ATOM     23  C   UNL     1     -31.246  19.212   0.283  0.00  0.00    +0.143 C 
BRANCH  23  26
ATOM     24  O   UNL     1     -29.461  17.858  -0.251  0.00  0.00    -0.126 OA
ATOM     25  O   UNL     1     -29.255  20.029  -0.534  0.00  0.00    -0.126 OA
ATOM     26  N   UNL     1     -29.921  19.024  -0.191  0.00  0.00    +0.058 N 
ENDBRANCH  23  26
ENDBRANCH  17  18
ENDBRANCH   6  17
BRANCH   5  27
ATOM     27  C   UNL     1     -35.100  22.791   5.258  0.00  0.00    +0.169 C 
BRANCH  27  28
ATOM     28  O   UNL     1     -36.138  22.336   6.107  0.00  0.00    -0.379 OA
ATOM     29  H   UNL     1     -36.650  21.650   5.653  0.00  0.00    +0.211 HD
ENDBRANCH  27  28
ENDBRANCH   5  27
TORSDOF 9
ENDMDL
MODEL 9
REMARK VINA RESULT:      -5.8      2.918      7.509
REMARK  Name = 191236
REMARK  9 active torsions:
REMARK  status: ('A' for Active; 'I' for Inactive)
REMARK    1  A    between atoms: C_2  and  N_11
REMARK    2  A    between atoms: C_3  and  O_7
REMARK    3  A    between atoms: C_4  and  O_9
REMARK    4  A    between atoms: C_5  and  C_27
REMARK    5  A    between atoms: C_6  and  O_17
REMARK    6  A    between atoms: N_11  and  S_13
REMARK    7  A    between atoms: O_17  and  C_18
REMARK    8  A    between atoms: C_23  and  N_26
REMARK    9  A    between atoms: C_27  and  O_28
REMARK                            x       y       z     vdW  Elec       q    Type
REMARK                         _______ _______ _______ _____ _____    ______ ____
ROOT
ATOM      1  O   UNL     1     -36.695  22.867   4.547  0.00  0.00    -0.317 OA
ATOM      2  C   UNL     1     -36.914  24.990   3.391  0.00  0.00    +0.174 C 
ATOM      3  C   UNL     1     -35.557  25.431   3.943  0.00  0.00    +0.162 C 
ATOM      4  C   UNL     1     -35.187  24.646   5.203  0.00  0.00    +0.168 C 
ATOM      5  C   UNL     1     -35.358  23.142   4.972  0.00  0.00    +0.177 C 
ATOM      6  C   UNL     1     -37.010  23.466   3.291  0.00  0.00    +0.307 C 
ENDROOT
BRANCH   3   7
ATOM      7  O   UNL     1     -35.629  26.821   4.267  0.00  0.00    -0.380 OA
ATOM      8  H   UNL     1     -34.963  27.308   3.756  0.00  0.00    +0.211 HD
ENDBRANCH   3   7
BRANCH   4   9
ATOM      9  O   UNL     1     -33.833  24.950   5.530  0.00  0.00    -0.379 OA
ATOM     10  H   UNL     1     -33.561  25.755   5.063  0.00  0.00    +0.211 HD
ENDBRANCH   4   9
BRANCH   2  11
ATOM     11  N   UNL     1     -37.089  25.574   2.032  0.00  0.00    -0.176 NA
ATOM     12  H   UNL     1     -36.275  26.161   1.851  0.00  0.00    +0.149 HD
BRANCH  11  13
ATOM     13  S   UNL     1     -38.467  26.519   1.718  0.00  0.00    +0.043 S 
ATOM     14  O   UNL     1     -38.077  27.801   1.164  0.00  0.00    -0.157 OA
ATOM     15  O   UNL     1     -39.337  26.445   2.876  0.00  0.00    -0.157 OA
ATOM     16  C   UNL     1     -39.229  25.572   0.420  0.00  0.00    +0.196 C 
ENDBRANCH  11  13
ENDBRANCH   2  11
BRANCH   6  17
ATOM     17  O   UNL     1     -38.345  23.127   2.924  0.00  0.00    -0.451 OA
BRANCH  17  18
ATOM     18  C   UNL     1     -38.490  22.198   1.930  0.00  0.00    +0.141 C 
ATOM     19  C   UNL     1     -39.729  22.027   1.320  0.00  0.00    +0.039 C 
ATOM     20  C   UNL     1     -37.397  21.432   1.536  0.00  0.00    +0.039 C 
ATOM     21  C   UNL     1     -39.877  21.082   0.306  0.00  0.00    +0.027 C 
ATOM     22  C   UNL     1     -37.545  20.485   0.522  0.00  0.00    +0.027 C 
ATOM     23  C   UNL     1     -38.785  20.310  -0.093  0.00  0.00    +0.143 C 
BRANCH  23  26
ATOM     24  O   UNL     1     -39.079  18.140  -0.807  0.00  0.00    -0.126 OA
ATOM     25  O   UNL     1     -38.920  19.731  -2.318  0.00  0.00    -0.126 OA
ATOM     26  N   UNL     1     -38.936  19.345  -1.125  0.00  0.00    +0.058 N 
ENDBRANCH  23  26
ENDBRANCH  17  18
ENDBRANCH   6  17
BRANCH   5  27
ATOM     27  C   UNL     1     -35.111  22.331   6.240  0.00  0.00    +0.169 C 
BRANCH  27  28
ATOM     28  O   UNL     1     -35.359  20.966   5.958  0.00  0.00    -0.379 OA
ATOM     29  H   UNL     1     -35.935  20.896   5.181  0.00  0.00    +0.211 HD
ENDBRANCH  27  28
ENDBRANCH   5  27
TORSDOF 9
ENDMDL
