MODEL 1
REMARK VINA RESULT:      -6.5      0.000      0.000
REMARK  Name = 193999
REMARK  9 active torsions:
REMARK  status: ('A' for Active; 'I' for Inactive)
REMARK    1  A    between atoms: C_1  and  C_8
REMARK    2  A    between atoms: C_1  and  N_21
REMARK    3  A    between atoms: C_1  and  C_31
REMARK    4  A    between atoms: C_4  and  C_11
REMARK    5  A    between atoms: N_10  and  C_13
REMARK    6  A    between atoms: C_13  and  C_14
REMARK    7  A    between atoms: C_14  and  C_17
REMARK    8  A    between atoms: C_22  and  C_26
REMARK    9  A    between atoms: C_31  and  C_34
REMARK                            x       y       z     vdW  Elec       q    Type
REMARK                         _______ _______ _______ _____ _____    ______ ____
ROOT
ATOM      1  C   UNL     1     -35.947  22.527   3.283  0.00  0.00    +0.151 C 
ENDROOT
BRANCH   1   8
ATOM      2  O   UNL     1     -36.032  20.220   2.695  0.00  0.00    -0.273 OA
ATOM      3  N   UNL     1     -35.132  21.676   1.137  0.00  0.00    -0.272 N 
ATOM      4  C   UNL     1     -34.987  20.701   0.064  0.00  0.00    +0.152 C 
ATOM      5  C   UNL     1     -34.751  21.537  -1.190  0.00  0.00    +0.031 C 
ATOM      6  C   UNL     1     -34.743  23.011   0.691  0.00  0.00    +0.094 C 
ATOM      7  C   UNL     1     -34.067  22.793  -0.654  0.00  0.00    +0.024 C 
ATOM      8  C   UNL     1     -35.716  21.362   2.354  0.00  0.00    +0.244 C 
BRANCH   4  11
ATOM      9  O   UNL     1     -32.665  20.317   0.463  0.00  0.00    -0.273 OA
ATOM     10  N   UNL     1     -34.142  18.522   0.588  0.00  0.00    -0.302 N 
ATOM     11  C   UNL     1     -33.799  19.850   0.397  0.00  0.00    +0.241 C 
ATOM     12  H   UNL     1     -35.089  18.267   0.508  0.00  0.00    +0.149 HD
BRANCH  10  13
ATOM     13  C   UNL     1     -33.177  17.493   0.897  0.00  0.00    +0.099 C 
BRANCH  13  14
ATOM     14  C   UNL     1     -33.399  16.230   0.078  0.00  0.00    +0.106 C 
BRANCH  14  17
ATOM     15  O   UNL     1     -35.282  16.635  -1.401  0.00  0.00    -0.275 OA
ATOM     16  N   UNL     1     -35.566  15.229   0.396  0.00  0.00    -0.329 N 
ATOM     17  C   UNL     1     -34.828  16.071  -0.410  0.00  0.00    +0.221 C 
ATOM     18  H   UNL     1     -36.509  15.046   0.183  0.00  0.00    +0.145 HD
ATOM     19  H   UNL     1     -35.148  14.811   1.184  0.00  0.00    +0.145 HD
ENDBRANCH  14  17
ENDBRANCH  13  14
ENDBRANCH  10  13
ENDBRANCH   4  11
ENDBRANCH   1   8
BRANCH   1  21
ATOM     20  O   UNL     1     -37.450  24.701   2.081  0.00  0.00    -0.273 OA
ATOM     21  N   UNL     1     -37.371  22.705   3.279  0.00  0.00    -0.297 N 
ATOM     22  C   UNL     1     -38.009  23.783   2.675  0.00  0.00    +0.241 C 
ATOM     23  H   UNL     1     -37.926  22.027   3.729  0.00  0.00    +0.150 HD
BRANCH  22  26
ATOM     24  O   UNL     1     -40.783  26.941   3.437  0.00  0.00    -0.275 OA
ATOM     25  N   UNL     1     -39.893  24.787   3.661  0.00  0.00    -0.298 N 
ATOM     26  C   UNL     1     -39.497  23.711   2.797  0.00  0.00    +0.149 C 
ATOM     27  C   UNL     1     -40.209  24.015   1.493  0.00  0.00    +0.039 C 
ATOM     28  C   UNL     1     -40.379  25.534   1.499  0.00  0.00    +0.087 C 
ATOM     29  C   UNL     1     -40.407  25.878   2.969  0.00  0.00    +0.223 C 
ATOM     30  H   UNL     1     -39.809  24.756   4.641  0.00  0.00    +0.150 HD
ENDBRANCH  22  26
ENDBRANCH   1  21
BRANCH   1  31
ATOM     31  C   UNL     1     -35.394  22.220   4.665  0.00  0.00    +0.059 C 
BRANCH  31  34
ATOM     32  N   UNL     1     -36.118  24.283   5.798  0.00  0.00    -0.246 NA
ATOM     33  N   UNL     1     -34.871  25.552   4.363  0.00  0.00    -0.225 NA
ATOM     34  C   UNL     1     -34.947  23.481   5.393  0.00  0.00    +0.148 C 
ATOM     35  C   UNL     1     -34.252  24.431   4.475  0.00  0.00    +0.098 C 
ATOM     36  C   UNL     1     -35.971  25.409   5.169  0.00  0.00    +0.194 C 
ENDBRANCH  31  34
ENDBRANCH   1  31
TORSDOF 9
ENDMDL
MODEL 2
REMARK VINA RESULT:      -6.3      3.033      8.366
REMARK  Name = 193999
REMARK  9 active torsions:
REMARK  status: ('A' for Active; 'I' for Inactive)
REMARK    1  A    between atoms: C_1  and  C_8
REMARK    2  A    between atoms: C_1  and  N_21
REMARK    3  A    between atoms: C_1  and  C_31
REMARK    4  A    between atoms: C_4  and  C_11
REMARK    5  A    between atoms: N_10  and  C_13
REMARK    6  A    between atoms: C_13  and  C_14
REMARK    7  A    between atoms: C_14  and  C_17
REMARK    8  A    between atoms: C_22  and  C_26
REMARK    9  A    between atoms: C_31  and  C_34
REMARK                            x       y       z     vdW  Elec       q    Type
REMARK                         _______ _______ _______ _____ _____    ______ ____
ROOT
ATOM      1  C   UNL     1     -37.522  23.178   2.256  0.00  0.00    +0.151 C 
ENDROOT
BRANCH   1   8
ATOM      2  O   UNL     1     -38.894  24.535   3.652  0.00  0.00    -0.273 OA
ATOM      3  N   UNL     1     -39.008  24.911   1.371  0.00  0.00    -0.272 N 
ATOM      4  C   UNL     1     -39.862  26.089   1.440  0.00  0.00    +0.152 C 
ATOM      5  C   UNL     1     -39.762  26.722   0.056  0.00  0.00    +0.031 C 
ATOM      6  C   UNL     1     -38.609  24.629  -0.005  0.00  0.00    +0.094 C 
ATOM      7  C   UNL     1     -39.488  25.530  -0.859  0.00  0.00    +0.024 C 
ATOM      8  C   UNL     1     -38.533  24.269   2.504  0.00  0.00    +0.244 C 
BRANCH   4  11
ATOM      9  O   UNL     1     -41.637  24.493   1.401  0.00  0.00    -0.273 OA
ATOM     10  N   UNL     1     -42.012  26.571   2.380  0.00  0.00    -0.302 N 
ATOM     11  C   UNL     1     -41.253  25.611   1.733  0.00  0.00    +0.241 C 
ATOM     12  H   UNL     1     -41.591  27.434   2.595  0.00  0.00    +0.149 HD
BRANCH  10  13
ATOM     13  C   UNL     1     -43.393  26.367   2.753  0.00  0.00    +0.099 C 
BRANCH  13  14
ATOM     14  C   UNL     1     -43.755  27.096   4.039  0.00  0.00    +0.106 C 
BRANCH  14  17
ATOM     15  O   UNL     1     -41.987  28.677   4.556  0.00  0.00    -0.275 OA
ATOM     16  N   UNL     1     -43.986  29.475   3.752  0.00  0.00    -0.329 N 
ATOM     17  C   UNL     1     -43.126  28.474   4.149  0.00  0.00    +0.221 C 
ATOM     18  H   UNL     1     -43.693  30.414   3.778  0.00  0.00    +0.145 HD
ATOM     19  H   UNL     1     -44.894  29.250   3.442  0.00  0.00    +0.145 HD
ENDBRANCH  14  17
ENDBRANCH  13  14
ENDBRANCH  10  13
ENDBRANCH   4  11
ENDBRANCH   1   8
BRANCH   1  21
ATOM     20  O   UNL     1     -34.855  24.318   2.130  0.00  0.00    -0.273 OA
ATOM     21  N   UNL     1     -36.582  23.317   3.331  0.00  0.00    -0.297 N 
ATOM     22  C   UNL     1     -35.319  23.879   3.179  0.00  0.00    +0.241 C 
ATOM     23  H   UNL     1     -36.845  22.997   4.224  0.00  0.00    +0.150 HD
BRANCH  22  26
ATOM     24  O   UNL     1     -33.691  27.274   5.198  0.00  0.00    -0.275 OA
ATOM     25  N   UNL     1     -33.697  25.076   4.390  0.00  0.00    -0.298 N 
ATOM     26  C   UNL     1     -34.552  23.925   4.461  0.00  0.00    +0.149 C 
ATOM     27  C   UNL     1     -35.433  24.204   5.663  0.00  0.00    +0.039 C 
ATOM     28  C   UNL     1     -35.483  25.729   5.751  0.00  0.00    +0.087 C 
ATOM     29  C   UNL     1     -34.185  26.160   5.112  0.00  0.00    +0.223 C 
ATOM     30  H   UNL     1     -32.854  25.096   3.882  0.00  0.00    +0.150 HD
ENDBRANCH  22  26
ENDBRANCH   1  21
BRANCH   1  31
ATOM     31  C   UNL     1     -38.203  21.818   2.240  0.00  0.00    +0.059 C 
BRANCH  31  34
ATOM     32  N   UNL     1     -36.403  20.141   2.342  0.00  0.00    -0.246 NA
ATOM     33  N   UNL     1     -35.261  21.211   0.676  0.00  0.00    -0.225 NA
ATOM     34  C   UNL     1     -37.396  20.787   1.462  0.00  0.00    +0.148 C 
ATOM     35  C   UNL     1     -36.507  21.431   0.449  0.00  0.00    +0.098 C 
ATOM     36  C   UNL     1     -35.258  20.441   1.810  0.00  0.00    +0.194 C 
ENDBRANCH  31  34
ENDBRANCH   1  31
TORSDOF 9
ENDMDL
MODEL 3
REMARK VINA RESULT:      -6.1      3.491      5.976
REMARK  Name = 193999
REMARK  9 active torsions:
REMARK  status: ('A' for Active; 'I' for Inactive)
REMARK    1  A    between atoms: C_1  and  C_8
REMARK    2  A    between atoms: C_1  and  N_21
REMARK    3  A    between atoms: C_1  and  C_31
REMARK    4  A    between atoms: C_4  and  C_11
REMARK    5  A    between atoms: N_10  and  C_13
REMARK    6  A    between atoms: C_13  and  C_14
REMARK    7  A    between atoms: C_14  and  C_17
REMARK    8  A    between atoms: C_22  and  C_26
REMARK    9  A    between atoms: C_31  and  C_34
REMARK                            x       y       z     vdW  Elec       q    Type
REMARK                         _______ _______ _______ _____ _____    ______ ____
ROOT
ATOM      1  C   UNL     1     -39.191  25.418   1.704  0.00  0.00    +0.151 C 
ENDROOT
BRANCH   1   8
ATOM      2  O   UNL     1     -38.674  24.292   3.738  0.00  0.00    -0.273 OA
ATOM      3  N   UNL     1     -38.118  23.218   1.765  0.00  0.00    -0.272 N 
ATOM      4  C   UNL     1     -37.698  21.963   2.371  0.00  0.00    +0.152 C 
ATOM      5  C   UNL     1     -37.638  20.973   1.212  0.00  0.00    +0.031 C 
ATOM      6  C   UNL     1     -38.063  23.143   0.307  0.00  0.00    +0.094 C 
ATOM      7  C   UNL     1     -37.310  21.855   0.010  0.00  0.00    +0.024 C 
ATOM      8  C   UNL     1     -38.644  24.264   2.506  0.00  0.00    +0.244 C 
BRANCH   4  11
ATOM      9  O   UNL     1     -35.312  22.046   2.328  0.00  0.00    -0.273 OA
ATOM     10  N   UNL     1     -36.422  22.559   4.308  0.00  0.00    -0.302 N 
ATOM     11  C   UNL     1     -36.345  22.194   2.975  0.00  0.00    +0.241 C 
ATOM     12  H   UNL     1     -37.312  22.646   4.720  0.00  0.00    +0.149 HD
BRANCH  10  13
ATOM     13  C   UNL     1     -35.259  22.817   5.125  0.00  0.00    +0.099 C 
BRANCH  13  14
ATOM     14  C   UNL     1     -35.252  24.230   5.690  0.00  0.00    +0.106 C 
BRANCH  14  17
ATOM     15  O   UNL     1     -35.194  25.376   3.550  0.00  0.00    -0.275 OA
ATOM     16  N   UNL     1     -36.624  26.141   5.178  0.00  0.00    -0.329 N 
ATOM     17  C   UNL     1     -35.666  25.285   4.679  0.00  0.00    +0.221 C 
ATOM     18  H   UNL     1     -36.974  26.869   4.616  0.00  0.00    +0.145 HD
ATOM     19  H   UNL     1     -36.959  26.023   6.097  0.00  0.00    +0.145 HD
ENDBRANCH  14  17
ENDBRANCH  13  14
ENDBRANCH  10  13
ENDBRANCH   4  11
ENDBRANCH   1   8
BRANCH   1  21
ATOM     20  O   UNL     1     -41.657  26.230   0.405  0.00  0.00    -0.273 OA
ATOM     21  N   UNL     1     -40.447  25.719   2.329  0.00  0.00    -0.297 N 
ATOM     22  C   UNL     1     -41.583  26.102   1.625  0.00  0.00    +0.241 C 
ATOM     23  H   UNL     1     -40.508  25.650   3.310  0.00  0.00    +0.150 HD
BRANCH  22  26
ATOM     24  O   UNL     1     -42.030  28.932   4.794  0.00  0.00    -0.275 OA
ATOM     25  N   UNL     1     -42.250  26.846   3.753  0.00  0.00    -0.298 N 
ATOM     26  C   UNL     1     -42.762  26.330   2.515  0.00  0.00    +0.149 C 
ATOM     27  C   UNL     1     -43.673  27.434   2.014  0.00  0.00    +0.039 C 
ATOM     28  C   UNL     1     -43.090  28.711   2.620  0.00  0.00    +0.087 C 
ATOM     29  C   UNL     1     -42.405  28.222   3.873  0.00  0.00    +0.223 C 
ATOM     30  H   UNL     1     -41.833  26.284   4.445  0.00  0.00    +0.150 HD
ENDBRANCH  22  26
ENDBRANCH   1  21
BRANCH   1  31
ATOM     31  C   UNL     1     -38.222  26.590   1.734  0.00  0.00    +0.059 C 
BRANCH  31  34
ATOM     32  N   UNL     1     -38.475  26.460  -0.712  0.00  0.00    -0.246 NA
ATOM     33  N   UNL     1     -36.418  27.413  -1.012  0.00  0.00    -0.225 NA
ATOM     34  C   UNL     1     -38.231  27.369   0.425  0.00  0.00    +0.148 C 
ATOM     35  C   UNL     1     -36.876  27.897   0.086  0.00  0.00    +0.098 C 
ATOM     36  C   UNL     1     -37.408  26.567  -1.443  0.00  0.00    +0.194 C 
ENDBRANCH  31  34
ENDBRANCH   1  31
TORSDOF 9
ENDMDL
MODEL 4
REMARK VINA RESULT:      -6.1      4.677      8.197
REMARK  Name = 193999
REMARK  9 active torsions:
REMARK  status: ('A' for Active; 'I' for Inactive)
REMARK    1  A    between atoms: C_1  and  C_8
REMARK    2  A    between atoms: C_1  and  N_21
REMARK    3  A    between atoms: C_1  and  C_31
REMARK    4  A    between atoms: C_4  and  C_11
REMARK    5  A    between atoms: N_10  and  C_13
REMARK    6  A    between atoms: C_13  and  C_14
REMARK    7  A    between atoms: C_14  and  C_17
REMARK    8  A    between atoms: C_22  and  C_26
REMARK    9  A    between atoms: C_31  and  C_34
REMARK                            x       y       z     vdW  Elec       q    Type
REMARK                         _______ _______ _______ _____ _____    ______ ____
ROOT
ATOM      1  C   UNL     1     -33.444  26.556   4.673  0.00  0.00    +0.151 C 
ENDROOT
BRANCH   1   8
ATOM      2  O   UNL     1     -35.058  27.884   3.530  0.00  0.00    -0.273 OA
ATOM      3  N   UNL     1     -33.414  26.881   2.246  0.00  0.00    -0.272 N 
ATOM      4  C   UNL     1     -33.771  27.522   0.988  0.00  0.00    +0.152 C 
ATOM      5  C   UNL     1     -32.574  27.281   0.076  0.00  0.00    +0.031 C 
ATOM      6  C   UNL     1     -32.223  26.049   2.094  0.00  0.00    +0.094 C 
ATOM      7  C   UNL     1     -31.995  25.965   0.592  0.00  0.00    +0.024 C 
ATOM      8  C   UNL     1     -34.053  27.176   3.440  0.00  0.00    +0.244 C 
BRANCH   4  11
ATOM      9  O   UNL     1     -34.946  25.880  -0.285  0.00  0.00    -0.273 OA
ATOM     10  N   UNL     1     -36.164  27.431   0.951  0.00  0.00    -0.302 N 
ATOM     11  C   UNL     1     -35.005  26.839   0.478  0.00  0.00    +0.241 C 
ATOM     12  H   UNL     1     -36.084  28.199   1.561  0.00  0.00    +0.149 HD
BRANCH  10  13
ATOM     13  C   UNL     1     -37.487  26.976   0.589  0.00  0.00    +0.099 C 
BRANCH  13  14
ATOM     14  C   UNL     1     -37.930  25.776   1.415  0.00  0.00    +0.106 C 
BRANCH  14  17
ATOM     15  O   UNL     1     -39.772  26.423   2.859  0.00  0.00    -0.275 OA
ATOM     16  N   UNL     1     -37.676  26.185   3.773  0.00  0.00    -0.329 N 
ATOM     17  C   UNL     1     -38.580  26.158   2.733  0.00  0.00    +0.221 C 
ATOM     18  H   UNL     1     -37.978  26.420   4.681  0.00  0.00    +0.145 HD
ATOM     19  H   UNL     1     -36.729  25.971   3.609  0.00  0.00    +0.145 HD
ENDBRANCH  14  17
ENDBRANCH  13  14
ENDBRANCH  10  13
ENDBRANCH   4  11
ENDBRANCH   1   8
BRANCH   1  21
ATOM     20  O   UNL     1     -30.776  27.683   4.862  0.00  0.00    -0.273 OA
ATOM     21  N   UNL     1     -33.026  27.679   5.463  0.00  0.00    -0.297 N 
ATOM     22  C   UNL     1     -31.719  28.153   5.492  0.00  0.00    +0.241 C 
ATOM     23  H   UNL     1     -33.701  28.138   6.013  0.00  0.00    +0.150 HD
BRANCH  22  26
ATOM     24  O   UNL     1     -28.664  31.139   5.429  0.00  0.00    -0.275 OA
ATOM     25  N   UNL     1     -30.156  29.638   6.431  0.00  0.00    -0.298 N 
ATOM     26  C   UNL     1     -31.561  29.348   6.376  0.00  0.00    +0.149 C 
ATOM     27  C   UNL     1     -32.166  30.604   5.781  0.00  0.00    +0.039 C 
ATOM     28  C   UNL     1     -31.042  31.202   4.935  0.00  0.00    +0.087 C 
ATOM     29  C   UNL     1     -29.789  30.700   5.612  0.00  0.00    +0.223 C 
ATOM     30  H   UNL     1     -29.519  29.137   6.990  0.00  0.00    +0.150 HD
ENDBRANCH  22  26
ENDBRANCH   1  21
BRANCH   1  31
ATOM     31  C   UNL     1     -34.464  25.681   5.385  0.00  0.00    +0.059 C 
BRANCH  31  34
ATOM     32  N   UNL     1     -35.225  24.068   3.687  0.00  0.00    -0.246 NA
ATOM     33  N   UNL     1     -36.110  22.722   5.310  0.00  0.00    -0.225 NA
ATOM     34  C   UNL     1     -34.408  24.237   4.905  0.00  0.00    +0.148 C 
ATOM     35  C   UNL     1     -35.104  23.313   5.849  0.00  0.00    +0.098 C 
ATOM     36  C   UNL     1     -36.135  23.207   4.028  0.00  0.00    +0.194 C 
ENDBRANCH  31  34
ENDBRANCH   1  31
TORSDOF 9
ENDMDL
MODEL 5
REMARK VINA RESULT:      -6.1      3.004      7.339
REMARK  Name = 193999
REMARK  9 active torsions:
REMARK  status: ('A' for Active; 'I' for Inactive)
REMARK    1  A    between atoms: C_1  and  C_8
REMARK    2  A    between atoms: C_1  and  N_21
REMARK    3  A    between atoms: C_1  and  C_31
REMARK    4  A    between atoms: C_4  and  C_11
REMARK    5  A    between atoms: N_10  and  C_13
REMARK    6  A    between atoms: C_13  and  C_14
REMARK    7  A    between atoms: C_14  and  C_17
REMARK    8  A    between atoms: C_22  and  C_26
REMARK    9  A    between atoms: C_31  and  C_34
REMARK                            x       y       z     vdW  Elec       q    Type
REMARK                         _______ _______ _______ _____ _____    ______ ____
ROOT
ATOM      1  C   UNL     1     -35.955  23.274   1.699  0.00  0.00    +0.151 C 
ENDROOT
BRANCH   1   8
ATOM      2  O   UNL     1     -35.525  25.583   1.304  0.00  0.00    -0.273 OA
ATOM      3  N   UNL     1     -35.484  24.861   3.503  0.00  0.00    -0.272 N 
ATOM      4  C   UNL     1     -35.336  26.178   4.107  0.00  0.00    +0.152 C 
ATOM      5  C   UNL     1     -35.660  25.966   5.582  0.00  0.00    +0.031 C 
ATOM      6  C   UNL     1     -35.610  23.825   4.524  0.00  0.00    +0.094 C 
ATOM      7  C   UNL     1     -35.251  24.517   5.830  0.00  0.00    +0.024 C 
ATOM      8  C   UNL     1     -35.639  24.682   2.137  0.00  0.00    +0.244 C 
BRANCH   4  11
ATOM      9  O   UNL     1     -33.022  25.788   3.674  0.00  0.00    -0.273 OA
ATOM     10  N   UNL     1     -33.748  27.969   4.034  0.00  0.00    -0.302 N 
ATOM     11  C   UNL     1     -33.912  26.601   3.906  0.00  0.00    +0.241 C 
ATOM     12  H   UNL     1     -34.541  28.521   4.221  0.00  0.00    +0.149 HD
BRANCH  10  13
ATOM     13  C   UNL     1     -32.468  28.627   3.908  0.00  0.00    +0.099 C 
BRANCH  13  14
ATOM     14  C   UNL     1     -32.107  29.429   5.150  0.00  0.00    +0.106 C 
BRANCH  14  17
ATOM     15  O   UNL     1     -31.546  27.357   6.285  0.00  0.00    -0.275 OA
ATOM     16  N   UNL     1     -31.741  29.283   7.525  0.00  0.00    -0.329 N 
ATOM     17  C   UNL     1     -31.765  28.563   6.349  0.00  0.00    +0.221 C 
ATOM     18  H   UNL     1     -31.530  28.831   8.374  0.00  0.00    +0.145 HD
ATOM     19  H   UNL     1     -31.934  30.249   7.515  0.00  0.00    +0.145 HD
ENDBRANCH  14  17
ENDBRANCH  13  14
ENDBRANCH  10  13
ENDBRANCH   4  11
ENDBRANCH   1   8
BRANCH   1  21
ATOM     20  O   UNL     1     -38.659  22.574   2.491  0.00  0.00    -0.273 OA
ATOM     21  N   UNL     1     -37.153  23.407   0.921  0.00  0.00    -0.297 N 
ATOM     22  C   UNL     1     -38.414  23.045   1.383  0.00  0.00    +0.241 C 
ATOM     23  H   UNL     1     -37.079  23.775   0.011  0.00  0.00    +0.150 HD
BRANCH  22  26
ATOM     24  O   UNL     1     -41.947  25.406   1.824  0.00  0.00    -0.275 OA
ATOM     25  N   UNL     1     -40.695  23.555   1.126  0.00  0.00    -0.298 N 
ATOM     26  C   UNL     1     -39.492  23.311   0.382  0.00  0.00    +0.149 C 
ATOM     27  C   UNL     1     -39.275  24.599  -0.386  0.00  0.00    +0.039 C 
ATOM     28  C   UNL     1     -39.944  25.671   0.474  0.00  0.00    +0.087 C 
ATOM     29  C   UNL     1     -41.010  24.906   1.222  0.00  0.00    +0.223 C 
ATOM     30  H   UNL     1     -41.240  22.840   1.528  0.00  0.00    +0.150 HD
ENDBRANCH  22  26
ENDBRANCH   1  21
BRANCH   1  31
ATOM     31  C   UNL     1     -34.796  22.694   0.904  0.00  0.00    +0.059 C 
BRANCH  31  34
ATOM     32  N   UNL     1     -35.674  20.525   0.138  0.00  0.00    -0.246 NA
ATOM     33  N   UNL     1     -36.239  19.956   2.279  0.00  0.00    -0.225 NA
ATOM     34  C   UNL     1     -34.711  21.180   1.045  0.00  0.00    +0.148 C 
ATOM     35  C   UNL     1     -35.210  20.720   2.375  0.00  0.00    +0.098 C 
ATOM     36  C   UNL     1     -36.471  19.874   0.930  0.00  0.00    +0.194 C 
ENDBRANCH  31  34
ENDBRANCH   1  31
TORSDOF 9
ENDMDL
MODEL 6
REMARK VINA RESULT:      -6.1      1.352      1.668
REMARK  Name = 193999
REMARK  9 active torsions:
REMARK  status: ('A' for Active; 'I' for Inactive)
REMARK    1  A    between atoms: C_1  and  C_8
REMARK    2  A    between atoms: C_1  and  N_21
REMARK    3  A    between atoms: C_1  and  C_31
REMARK    4  A    between atoms: C_4  and  C_11
REMARK    5  A    between atoms: N_10  and  C_13
REMARK    6  A    between atoms: C_13  and  C_14
REMARK    7  A    between atoms: C_14  and  C_17
REMARK    8  A    between atoms: C_22  and  C_26
REMARK    9  A    between atoms: C_31  and  C_34
REMARK                            x       y       z     vdW  Elec       q    Type
REMARK                         _______ _______ _______ _____ _____    ______ ____
ROOT
ATOM      1  C   UNL     1     -35.878  22.844   3.435  0.00  0.00    +0.151 C 
ENDROOT
BRANCH   1   8
ATOM      2  O   UNL     1     -35.730  20.497   3.065  0.00  0.00    -0.273 OA
ATOM      3  N   UNL     1     -35.132  21.883   1.311  0.00  0.00    -0.272 N 
ATOM      4  C   UNL     1     -34.952  20.830   0.321  0.00  0.00    +0.152 C 
ATOM      5  C   UNL     1     -34.913  21.559  -1.018  0.00  0.00    +0.031 C 
ATOM      6  C   UNL     1     -34.940  23.203   0.717  0.00  0.00    +0.094 C 
ATOM      7  C   UNL     1     -34.347  22.930  -0.657  0.00  0.00    +0.024 C 
ATOM      8  C   UNL     1     -35.580  21.627   2.598  0.00  0.00    +0.244 C 
BRANCH   4  11
ATOM      9  O   UNL     1     -32.570  20.680   0.363  0.00  0.00    -0.273 OA
ATOM     10  N   UNL     1     -33.826  18.905   1.193  0.00  0.00    -0.302 N 
ATOM     11  C   UNL     1     -33.648  20.154   0.624  0.00  0.00    +0.241 C 
ATOM     12  H   UNL     1     -34.744  18.589   1.355  0.00  0.00    +0.149 HD
BRANCH  10  13
ATOM     13  C   UNL     1     -32.728  18.040   1.559  0.00  0.00    +0.099 C 
BRANCH  13  14
ATOM     14  C   UNL     1     -32.324  17.110   0.424  0.00  0.00    +0.106 C 
BRANCH  14  17
ATOM     15  O   UNL     1     -30.353  16.660  -0.921  0.00  0.00    -0.275 OA
ATOM     16  N   UNL     1     -30.367  18.512   0.439  0.00  0.00    -0.329 N 
ATOM     17  C   UNL     1     -30.927  17.377  -0.107  0.00  0.00    +0.221 C 
ATOM     18  H   UNL     1     -29.462  18.791   0.173  0.00  0.00    +0.145 HD
ATOM     19  H   UNL     1     -30.874  19.044   1.096  0.00  0.00    +0.145 HD
ENDBRANCH  14  17
ENDBRANCH  13  14
ENDBRANCH  10  13
ENDBRANCH   4  11
ENDBRANCH   1   8
BRANCH   1  21
ATOM     20  O   UNL     1     -37.508  24.826   2.078  0.00  0.00    -0.273 OA
ATOM     21  N   UNL     1     -37.310  22.938   3.426  0.00  0.00    -0.297 N 
ATOM     22  C   UNL     1     -38.012  23.926   2.744  0.00  0.00    +0.241 C 
ATOM     23  H   UNL     1     -37.824  22.265   3.930  0.00  0.00    +0.150 HD
BRANCH  22  26
ATOM     24  O   UNL     1     -40.943  26.940   3.506  0.00  0.00    -0.275 OA
ATOM     25  N   UNL     1     -39.938  24.838   3.738  0.00  0.00    -0.298 N 
ATOM     26  C   UNL     1     -39.493  23.777   2.880  0.00  0.00    +0.149 C 
ATOM     27  C   UNL     1     -40.230  24.032   1.580  0.00  0.00    +0.039 C 
ATOM     28  C   UNL     1     -40.480  25.540   1.575  0.00  0.00    +0.087 C 
ATOM     29  C   UNL     1     -40.515  25.894   3.042  0.00  0.00    +0.223 C 
ATOM     30  H   UNL     1     -39.844  24.819   4.718  0.00  0.00    +0.150 HD
ENDBRANCH  22  26
ENDBRANCH   1  21
BRANCH   1  31
ATOM     31  C   UNL     1     -35.307  22.678   4.835  0.00  0.00    +0.059 C 
BRANCH  31  34
ATOM     32  N   UNL     1     -35.981  24.904   5.643  0.00  0.00    -0.246 NA
ATOM     33  N   UNL     1     -34.591  25.913   4.134  0.00  0.00    -0.225 NA
ATOM     34  C   UNL     1     -34.834  24.003   5.417  0.00  0.00    +0.148 C 
ATOM     35  C   UNL     1     -34.040  24.790   4.428  0.00  0.00    +0.098 C 
ATOM     36  C   UNL     1     -35.740  25.928   4.883  0.00  0.00    +0.194 C 
ENDBRANCH  31  34
ENDBRANCH   1  31
TORSDOF 9
ENDMDL
MODEL 7
REMARK VINA RESULT:      -6.0      2.499      4.499
REMARK  Name = 193999
REMARK  9 active torsions:
REMARK  status: ('A' for Active; 'I' for Inactive)
REMARK    1  A    between atoms: C_1  and  C_8
REMARK    2  A    between atoms: C_1  and  N_21
REMARK    3  A    between atoms: C_1  and  C_31
REMARK    4  A    between atoms: C_4  and  C_11
REMARK    5  A    between atoms: N_10  and  C_13
REMARK    6  A    between atoms: C_13  and  C_14
REMARK    7  A    between atoms: C_14  and  C_17
REMARK    8  A    between atoms: C_22  and  C_26
REMARK    9  A    between atoms: C_31  and  C_34
REMARK                            x       y       z     vdW  Elec       q    Type
REMARK                         _______ _______ _______ _____ _____    ______ ____
ROOT
ATOM      1  C   UNL     1     -35.769  21.994   2.085  0.00  0.00    +0.151 C 
ENDROOT
BRANCH   1   8
ATOM      2  O   UNL     1     -34.888  22.673  -0.021  0.00  0.00    -0.273 OA
ATOM      3  N   UNL     1     -34.118  20.672   0.852  0.00  0.00    -0.272 N 
ATOM      4  C   UNL     1     -33.098  20.431  -0.160  0.00  0.00    +0.152 C 
ATOM      5  C   UNL     1     -32.214  19.339   0.433  0.00  0.00    +0.031 C 
ATOM      6  C   UNL     1     -34.086  19.642   1.887  0.00  0.00    +0.094 C 
ATOM      7  C   UNL     1     -33.169  18.561   1.335  0.00  0.00    +0.024 C 
ATOM      8  C   UNL     1     -34.888  21.825   0.873  0.00  0.00    +0.244 C 
BRANCH   4  11
ATOM      9  O   UNL     1     -33.199  19.733  -2.441  0.00  0.00    -0.273 OA
ATOM     10  N   UNL     1     -35.172  19.857  -1.212  0.00  0.00    -0.302 N 
ATOM     11  C   UNL     1     -33.804  19.964  -1.398  0.00  0.00    +0.241 C 
ATOM     12  H   UNL     1     -35.543  20.071  -0.326  0.00  0.00    +0.149 HD
BRANCH  10  13
ATOM     13  C   UNL     1     -36.082  19.449  -2.258  0.00  0.00    +0.099 C 
BRANCH  13  14
ATOM     14  C   UNL     1     -36.894  18.222  -1.868  0.00  0.00    +0.106 C 
BRANCH  14  17
ATOM     15  O   UNL     1     -35.332  16.855  -0.609  0.00  0.00    -0.275 OA
ATOM     16  N   UNL     1     -37.185  17.692   0.462  0.00  0.00    -0.329 N 
ATOM     17  C   UNL     1     -36.365  17.517  -0.632  0.00  0.00    +0.221 C 
ATOM     18  H   UNL     1     -36.949  17.282   1.325  0.00  0.00    +0.145 HD
ATOM     19  H   UNL     1     -38.008  18.228   0.380  0.00  0.00    +0.145 HD
ENDBRANCH  14  17
ENDBRANCH  13  14
ENDBRANCH  10  13
ENDBRANCH   4  11
ENDBRANCH   1   8
BRANCH   1  21
ATOM     20  O   UNL     1     -36.055  22.513   4.927  0.00  0.00    -0.273 OA
ATOM     21  N   UNL     1     -35.119  23.016   2.855  0.00  0.00    -0.297 N 
ATOM     22  C   UNL     1     -35.316  23.192   4.220  0.00  0.00    +0.241 C 
ATOM     23  H   UNL     1     -34.499  23.625   2.391  0.00  0.00    +0.150 HD
BRANCH  22  26
ATOM     24  O   UNL     1     -35.358  27.328   3.148  0.00  0.00    -0.275 OA
ATOM     25  N   UNL     1     -34.368  25.289   3.736  0.00  0.00    -0.298 N 
ATOM     26  C   UNL     1     -34.498  24.312   4.779  0.00  0.00    +0.149 C 
ATOM     27  C   UNL     1     -35.208  25.061   5.889  0.00  0.00    +0.039 C 
ATOM     28  C   UNL     1     -36.012  26.140   5.164  0.00  0.00    +0.087 C 
ATOM     29  C   UNL     1     -35.224  26.373   3.897  0.00  0.00    +0.223 C 
ATOM     30  H   UNL     1     -33.739  25.201   2.984  0.00  0.00    +0.150 HD
ENDBRANCH  22  26
ENDBRANCH   1  21
BRANCH   1  31
ATOM     31  C   UNL     1     -37.179  22.378   1.666  0.00  0.00    +0.059 C 
BRANCH  31  34
ATOM     32  N   UNL     1     -38.226  20.589   0.338  0.00  0.00    -0.246 NA
ATOM     33  N   UNL     1     -40.310  21.314   0.938  0.00  0.00    -0.225 NA
ATOM     34  C   UNL     1     -38.124  21.185   1.685  0.00  0.00    +0.148 C 
ATOM     35  C   UNL     1     -39.538  21.602   1.924  0.00  0.00    +0.098 C 
ATOM     36  C   UNL     1     -39.480  20.714   0.026  0.00  0.00    +0.194 C 
ENDBRANCH  31  34
ENDBRANCH   1  31
TORSDOF 9
ENDMDL
MODEL 8
REMARK VINA RESULT:      -5.9      2.772      5.115
REMARK  Name = 193999
REMARK  9 active torsions:
REMARK  status: ('A' for Active; 'I' for Inactive)
REMARK    1  A    between atoms: C_1  and  C_8
REMARK    2  A    between atoms: C_1  and  N_21
REMARK    3  A    between atoms: C_1  and  C_31
REMARK    4  A    between atoms: C_4  and  C_11
REMARK    5  A    between atoms: N_10  and  C_13
REMARK    6  A    between atoms: C_13  and  C_14
REMARK    7  A    between atoms: C_14  and  C_17
REMARK    8  A    between atoms: C_22  and  C_26
REMARK    9  A    between atoms: C_31  and  C_34
REMARK                            x       y       z     vdW  Elec       q    Type
REMARK                         _______ _______ _______ _____ _____    ______ ____
ROOT
ATOM      1  C   UNL     1     -35.099  21.014   1.261  0.00  0.00    +0.151 C 
ENDROOT
BRANCH   1   8
ATOM      2  O   UNL     1     -37.159  20.006   0.619  0.00  0.00    -0.273 OA
ATOM      3  N   UNL     1     -36.043  21.245  -0.986  0.00  0.00    -0.272 N 
ATOM      4  C   UNL     1     -37.086  21.180  -2.001  0.00  0.00    +0.152 C 
ATOM      5  C   UNL     1     -36.706  22.252  -3.016  0.00  0.00    +0.031 C 
ATOM      6  C   UNL     1     -34.927  22.077  -1.430  0.00  0.00    +0.094 C 
ATOM      7  C   UNL     1     -35.184  22.317  -2.909  0.00  0.00    +0.024 C 
ATOM      8  C   UNL     1     -36.202  20.704   0.281  0.00  0.00    +0.244 C 
BRANCH   4  11
ATOM      9  O   UNL     1     -36.205  19.498  -3.447  0.00  0.00    -0.273 OA
ATOM     10  N   UNL     1     -38.028  18.980  -2.097  0.00  0.00    -0.302 N 
ATOM     11  C   UNL     1     -37.036  19.805  -2.598  0.00  0.00    +0.241 C 
ATOM     12  H   UNL     1     -38.639  19.342  -1.415  0.00  0.00    +0.149 HD
BRANCH  10  13
ATOM     13  C   UNL     1     -38.211  17.613  -2.527  0.00  0.00    +0.099 C 
BRANCH  13  14
ATOM     14  C   UNL     1     -37.264  16.655  -1.819  0.00  0.00    +0.106 C 
BRANCH  14  17
ATOM     15  O   UNL     1     -38.438  15.290  -0.190  0.00  0.00    -0.275 OA
ATOM     16  N   UNL     1     -37.277  17.134   0.540  0.00  0.00    -0.329 N 
ATOM     17  C   UNL     1     -37.730  16.263  -0.428  0.00  0.00    +0.221 C 
ATOM     18  H   UNL     1     -37.513  16.986   1.484  0.00  0.00    +0.145 HD
ATOM     19  H   UNL     1     -36.717  17.904   0.287  0.00  0.00    +0.145 HD
ENDBRANCH  14  17
ENDBRANCH  13  14
ENDBRANCH  10  13
ENDBRANCH   4  11
ENDBRANCH   1   8
BRANCH   1  21
ATOM     20  O   UNL     1     -34.933  23.842   1.896  0.00  0.00    -0.273 OA
ATOM     21  N   UNL     1     -35.760  21.708   2.329  0.00  0.00    -0.297 N 
ATOM     22  C   UNL     1     -35.622  23.072   2.560  0.00  0.00    +0.241 C 
ATOM     23  H   UNL     1     -36.343  21.190   2.931  0.00  0.00    +0.150 HD
BRANCH  22  26
ATOM     24  O   UNL     1     -35.221  22.075   6.694  0.00  0.00    -0.275 OA
ATOM     25  N   UNL     1     -36.386  22.508   4.711  0.00  0.00    -0.298 N 
ATOM     26  C   UNL     1     -36.439  23.545   3.719  0.00  0.00    +0.149 C 
ATOM     27  C   UNL     1     -35.829  24.744   4.419  0.00  0.00    +0.039 C 
ATOM     28  C   UNL     1     -34.884  24.137   5.456  0.00  0.00    +0.087 C 
ATOM     29  C   UNL     1     -35.498  22.788   5.743  0.00  0.00    +0.223 C 
ATOM     30  H   UNL     1     -36.923  21.684   4.665  0.00  0.00    +0.150 HD
ENDBRANCH  22  26
ENDBRANCH   1  21
BRANCH   1  31
ATOM     31  C   UNL     1     -34.423  19.731   1.721  0.00  0.00    +0.059 C 
BRANCH  31  34
ATOM     32  N   UNL     1     -34.262  17.890   0.094  0.00  0.00    -0.246 NA
ATOM     33  N   UNL     1     -32.249  17.246   0.966  0.00  0.00    -0.225 NA
ATOM     34  C   UNL     1     -33.592  19.098   0.613  0.00  0.00    +0.148 C 
ATOM     35  C   UNL     1     -32.320  18.518   1.139  0.00  0.00    +0.098 C 
ATOM     36  C   UNL     1     -33.428  16.927   0.342  0.00  0.00    +0.194 C 
ENDBRANCH  31  34
ENDBRANCH   1  31
TORSDOF 9
ENDMDL
MODEL 9
REMARK VINA RESULT:      -5.8      4.107      8.369
REMARK  Name = 193999
REMARK  9 active torsions:
REMARK  status: ('A' for Active; 'I' for Inactive)
REMARK    1  A    between atoms: C_1  and  C_8
REMARK    2  A    between atoms: C_1  and  N_21
REMARK    3  A    between atoms: C_1  and  C_31
REMARK    4  A    between atoms: C_4  and  C_11
REMARK    5  A    between atoms: N_10  and  C_13
REMARK    6  A    between atoms: C_13  and  C_14
REMARK    7  A    between atoms: C_14  and  C_17
REMARK    8  A    between atoms: C_22  and  C_26
REMARK    9  A    between atoms: C_31  and  C_34
REMARK                            x       y       z     vdW  Elec       q    Type
REMARK                         _______ _______ _______ _____ _____    ______ ____
ROOT
ATOM      1  C   UNL     1     -34.572  25.837   3.703  0.00  0.00    +0.151 C 
ENDROOT
BRANCH   1   8
ATOM      2  O   UNL     1     -32.436  26.885   3.816  0.00  0.00    -0.273 OA
ATOM      3  N   UNL     1     -34.158  28.095   2.853  0.00  0.00    -0.272 N 
ATOM      4  C   UNL     1     -33.343  29.217   2.406  0.00  0.00    +0.152 C 
ATOM      5  C   UNL     1     -34.226  29.966   1.414  0.00  0.00    +0.031 C 
ATOM      6  C   UNL     1     -35.545  28.247   2.421  0.00  0.00    +0.094 C 
ATOM      7  C   UNL     1     -35.641  29.676   1.910  0.00  0.00    +0.024 C 
ATOM      8  C   UNL     1     -33.614  26.977   3.465  0.00  0.00    +0.244 C 
BRANCH   4  11
ATOM      9  O   UNL     1     -33.873  30.786   4.125  0.00  0.00    -0.273 OA
ATOM     10  N   UNL     1     -31.727  29.891   4.039  0.00  0.00    -0.302 N 
ATOM     11  C   UNL     1     -33.035  30.049   3.615  0.00  0.00    +0.241 C 
ATOM     12  H   UNL     1     -31.146  29.268   3.546  0.00  0.00    +0.149 HD
BRANCH  10  13
ATOM     13  C   UNL     1     -31.172  30.599   5.170  0.00  0.00    +0.099 C 
BRANCH  13  14
ATOM     14  C   UNL     1     -31.522  29.935   6.494  0.00  0.00    +0.106 C 
BRANCH  14  17
ATOM     15  O   UNL     1     -30.280  27.880   6.131  0.00  0.00    -0.275 OA
ATOM     16  N   UNL     1     -32.437  27.749   6.914  0.00  0.00    -0.329 N 
ATOM     17  C   UNL     1     -31.318  28.431   6.486  0.00  0.00    +0.221 C 
ATOM     18  H   UNL     1     -32.429  26.766   6.954  0.00  0.00    +0.145 HD
ATOM     19  H   UNL     1     -33.245  28.246   7.179  0.00  0.00    +0.145 HD
ENDBRANCH  14  17
ENDBRANCH  13  14
ENDBRANCH  10  13
ENDBRANCH   4  11
ENDBRANCH   1   8
BRANCH   1  21
ATOM     20  O   UNL     1     -35.656  25.369   1.051  0.00  0.00    -0.273 OA
ATOM     21  N   UNL     1     -34.167  24.833   2.760  0.00  0.00    -0.297 N 
ATOM     22  C   UNL     1     -34.746  24.681   1.505  0.00  0.00    +0.241 C 
ATOM     23  H   UNL     1     -33.441  24.219   3.016  0.00  0.00    +0.150 HD
BRANCH  22  26
ATOM     24  O   UNL     1     -36.097  20.661   0.996  0.00  0.00    -0.275 OA
ATOM     25  N   UNL     1     -34.511  22.347   1.342  0.00  0.00    -0.298 N 
ATOM     26  C   UNL     1     -34.120  23.578   0.714  0.00  0.00    +0.149 C 
ATOM     27  C   UNL     1     -34.688  23.463  -0.688  0.00  0.00    +0.039 C 
ATOM     28  C   UNL     1     -35.895  22.538  -0.533  0.00  0.00    +0.087 C 
ATOM     29  C   UNL     1     -35.541  21.698   0.671  0.00  0.00    +0.223 C 
ATOM     30  H   UNL     1     -34.093  21.999   2.162  0.00  0.00    +0.150 HD
ENDBRANCH  22  26
ENDBRANCH   1  21
BRANCH   1  31
ATOM     31  C   UNL     1     -34.483  25.361   5.145  0.00  0.00    +0.059 C 
BRANCH  31  34
ATOM     32  N   UNL     1     -35.121  23.009   5.489  0.00  0.00    -0.246 NA
ATOM     33  N   UNL     1     -36.755  23.181   3.899  0.00  0.00    -0.225 NA
ATOM     34  C   UNL     1     -35.611  24.401   5.498  0.00  0.00    +0.148 C 
ATOM     35  C   UNL     1     -36.648  24.349   4.425  0.00  0.00    +0.098 C 
ATOM     36  C   UNL     1     -35.826  22.426   4.568  0.00  0.00    +0.194 C 
ENDBRANCH  31  34
ENDBRANCH   1  31
TORSDOF 9
ENDMDL
