MODEL 1
REMARK VINA RESULT:      -5.1      0.000      0.000
REMARK  Name = 193131
REMARK  6 active torsions:
REMARK  status: ('A' for Active; 'I' for Inactive)
REMARK    1  A    between atoms: C_7  and  C_12
REMARK    2  A    between atoms: C_12  and  C_13
REMARK    3  A    between atoms: C_13  and  C_14
REMARK    4  A    between atoms: C_14  and  C_15
REMARK    5  A    between atoms: C_15  and  C_18
REMARK    6  A    between atoms: C_18  and  O_19
REMARK                            x       y       z     vdW  Elec       q    Type
REMARK                         _______ _______ _______ _____ _____    ______ ____
ROOT
ATOM      1  S   UNL     1     -36.034  21.697   0.513  0.00  0.00    -0.138 S 
ATOM      2  O   UNL     1     -40.741  21.001   0.834  0.00  0.00    -0.253 OA
ATOM      3  N   UNL     1     -38.876  21.101   2.250  0.00  0.00    -0.288 N 
ATOM      4  N   UNL     1     -39.209  22.773   0.781  0.00  0.00    -0.288 N 
ATOM      5  C   UNL     1     -37.772  22.011   2.495  0.00  0.00    +0.102 C 
ATOM      6  C   UNL     1     -38.007  23.162   1.494  0.00  0.00    +0.103 C 
ATOM      7  C   UNL     1     -36.419  21.335   2.250  0.00  0.00    +0.067 C 
ATOM      8  C   UNL     1     -36.818  23.323   0.559  0.00  0.00    +0.079 C 
ATOM      9  C   UNL     1     -39.728  21.557   1.238  0.00  0.00    +0.301 C 
ATOM     10  H   UNL     1     -39.010  20.257   2.741  0.00  0.00    +0.151 HD
ATOM     11  H   UNL     1     -39.614  23.306   0.059  0.00  0.00    +0.151 HD
ENDROOT
BRANCH   7  12
ATOM     12  C   UNL     1     -35.328  21.902   3.154  0.00  0.00    +0.013 C 
BRANCH  12  13
ATOM     13  C   UNL     1     -35.846  22.377   4.515  0.00  0.00    +0.001 C 
BRANCH  13  14
ATOM     14  C   UNL     1     -34.939  23.425   5.173  0.00  0.00    +0.011 C 
BRANCH  14  15
ATOM     15  C   UNL     1     -35.612  24.782   5.434  0.00  0.00    +0.099 C 
ATOM     16  C   UNL     1     -34.618  25.876   5.821  0.00  0.00    +0.012 C 
BRANCH  15  18
ATOM     17  O   UNL     1     -36.012  25.608   3.175  0.00  0.00    -0.250 OA
ATOM     18  C   UNL     1     -36.457  25.216   4.246  0.00  0.00    +0.313 C 
BRANCH  18  19
ATOM     19  O   UNL     1     -37.788  25.120   4.499  0.00  0.00    -0.480 OA
ATOM     20  H   UNL     1     -38.293  24.438   4.102  0.00  0.00    +0.295 HD
ENDBRANCH  18  19
ENDBRANCH  15  18
ENDBRANCH  14  15
ENDBRANCH  13  14
ENDBRANCH  12  13
ENDBRANCH   7  12
TORSDOF 6
ENDMDL
MODEL 2
REMARK VINA RESULT:      -5.0      3.799      5.487
REMARK  Name = 193131
REMARK  6 active torsions:
REMARK  status: ('A' for Active; 'I' for Inactive)
REMARK    1  A    between atoms: C_7  and  C_12
REMARK    2  A    between atoms: C_12  and  C_13
REMARK    3  A    between atoms: C_13  and  C_14
REMARK    4  A    between atoms: C_14  and  C_15
REMARK    5  A    between atoms: C_15  and  C_18
REMARK    6  A    between atoms: C_18  and  O_19
REMARK                            x       y       z     vdW  Elec       q    Type
REMARK                         _______ _______ _______ _____ _____    ______ ____
ROOT
ATOM      1  S   UNL     1     -33.220  26.294   1.663  0.00  0.00    -0.138 S 
ATOM      2  O   UNL     1     -37.019  29.087   0.959  0.00  0.00    -0.253 OA
ATOM      3  N   UNL     1     -36.285  27.468   2.485  0.00  0.00    -0.288 N 
ATOM      4  N   UNL     1     -34.914  29.181   1.983  0.00  0.00    -0.288 N 
ATOM      5  C   UNL     1     -35.102  27.221   3.289  0.00  0.00    +0.102 C 
ATOM      6  C   UNL     1     -34.167  28.402   2.952  0.00  0.00    +0.103 C 
ATOM      7  C   UNL     1     -34.448  25.882   2.936  0.00  0.00    +0.067 C 
ATOM      8  C   UNL     1     -32.845  27.905   2.385  0.00  0.00    +0.079 C 
ATOM      9  C   UNL     1     -36.173  28.632   1.716  0.00  0.00    +0.301 C 
ATOM     10  H   UNL     1     -37.077  26.883   2.481  0.00  0.00    +0.151 HD
ATOM     11  H   UNL     1     -34.574  30.004   1.561  0.00  0.00    +0.151 HD
ENDROOT
BRANCH   7  12
ATOM     12  C   UNL     1     -33.759  25.249   4.141  0.00  0.00    +0.013 C 
BRANCH  12  13
ATOM     13  C   UNL     1     -34.561  25.371   5.439  0.00  0.00    +0.001 C 
BRANCH  13  14
ATOM     14  C   UNL     1     -35.675  24.322   5.560  0.00  0.00    +0.011 C 
BRANCH  14  15
ATOM     15  C   UNL     1     -35.235  22.881   5.254  0.00  0.00    +0.099 C 
ATOM     16  C   UNL     1     -35.228  21.984   6.491  0.00  0.00    +0.012 C 
BRANCH  15  18
ATOM     17  O   UNL     1     -36.987  22.845   3.559  0.00  0.00    -0.250 OA
ATOM     18  C   UNL     1     -36.081  22.270   4.148  0.00  0.00    +0.313 C 
BRANCH  18  19
ATOM     19  O   UNL     1     -35.718  20.990   3.870  0.00  0.00    -0.480 OA
ATOM     20  H   UNL     1     -34.887  20.666   4.157  0.00  0.00    +0.295 HD
ENDBRANCH  18  19
ENDBRANCH  15  18
ENDBRANCH  14  15
ENDBRANCH  13  14
ENDBRANCH  12  13
ENDBRANCH   7  12
TORSDOF 6
ENDMDL
MODEL 3
REMARK VINA RESULT:      -5.0      4.413      5.920
REMARK  Name = 193131
REMARK  6 active torsions:
REMARK  status: ('A' for Active; 'I' for Inactive)
REMARK    1  A    between atoms: C_7  and  C_12
REMARK    2  A    between atoms: C_12  and  C_13
REMARK    3  A    between atoms: C_13  and  C_14
REMARK    4  A    between atoms: C_14  and  C_15
REMARK    5  A    between atoms: C_15  and  C_18
REMARK    6  A    between atoms: C_18  and  O_19
REMARK                            x       y       z     vdW  Elec       q    Type
REMARK                         _______ _______ _______ _____ _____    ______ ____
ROOT
ATOM      1  S   UNL     1     -34.345  24.927   3.064  0.00  0.00    -0.138 S 
ATOM      2  O   UNL     1     -35.198  20.672   5.040  0.00  0.00    -0.253 OA
ATOM      3  N   UNL     1     -34.643  22.847   5.715  0.00  0.00    -0.288 N 
ATOM      4  N   UNL     1     -36.381  22.560   4.313  0.00  0.00    -0.288 N 
ATOM      5  C   UNL     1     -35.139  24.192   5.488  0.00  0.00    +0.102 C 
ATOM      6  C   UNL     1     -36.336  23.993   4.535  0.00  0.00    +0.103 C 
ATOM      7  C   UNL     1     -34.070  25.087   4.852  0.00  0.00    +0.067 C 
ATOM      8  C   UNL     1     -36.134  24.763   3.237  0.00  0.00    +0.079 C 
ATOM      9  C   UNL     1     -35.384  21.882   5.022  0.00  0.00    +0.301 C 
ATOM     10  H   UNL     1     -33.873  22.636   6.292  0.00  0.00    +0.151 HD
ATOM     11  H   UNL     1     -37.039  22.115   3.731  0.00  0.00    +0.151 HD
ENDROOT
BRANCH   7  12
ATOM     12  C   UNL     1     -34.223  26.545   5.275  0.00  0.00    +0.013 C 
BRANCH  12  13
ATOM     13  C   UNL     1     -33.023  27.420   4.902  0.00  0.00    +0.001 C 
BRANCH  13  14
ATOM     14  C   UNL     1     -32.246  27.930   6.122  0.00  0.00    +0.011 C 
BRANCH  14  15
ATOM     15  C   UNL     1     -31.211  29.024   5.813  0.00  0.00    +0.099 C 
ATOM     16  C   UNL     1     -31.741  30.434   6.066  0.00  0.00    +0.012 C 
BRANCH  15  18
ATOM     17  O   UNL     1     -29.166  29.671   6.971  0.00  0.00    -0.250 OA
ATOM     18  C   UNL     1     -29.916  28.788   6.574  0.00  0.00    +0.313 C 
BRANCH  18  19
ATOM     19  O   UNL     1     -29.670  27.468   6.775  0.00  0.00    -0.480 OA
ATOM     20  H   UNL     1     -28.875  27.086   6.461  0.00  0.00    +0.295 HD
ENDBRANCH  18  19
ENDBRANCH  15  18
ENDBRANCH  14  15
ENDBRANCH  13  14
ENDBRANCH  12  13
ENDBRANCH   7  12
TORSDOF 6
ENDMDL
MODEL 4
REMARK VINA RESULT:      -4.9      4.020      5.717
REMARK  Name = 193131
REMARK  6 active torsions:
REMARK  status: ('A' for Active; 'I' for Inactive)
REMARK    1  A    between atoms: C_7  and  C_12
REMARK    2  A    between atoms: C_12  and  C_13
REMARK    3  A    between atoms: C_13  and  C_14
REMARK    4  A    between atoms: C_14  and  C_15
REMARK    5  A    between atoms: C_15  and  C_18
REMARK    6  A    between atoms: C_18  and  O_19
REMARK                            x       y       z     vdW  Elec       q    Type
REMARK                         _______ _______ _______ _____ _____    ______ ____
ROOT
ATOM      1  S   UNL     1     -35.117  25.485   2.075  0.00  0.00    -0.138 S 
ATOM      2  O   UNL     1     -35.370  22.910   6.080  0.00  0.00    -0.253 OA
ATOM      3  N   UNL     1     -34.823  25.092   5.423  0.00  0.00    -0.288 N 
ATOM      4  N   UNL     1     -36.765  24.203   4.711  0.00  0.00    -0.288 N 
ATOM      5  C   UNL     1     -35.425  26.147   4.627  0.00  0.00    +0.102 C 
ATOM      6  C   UNL     1     -36.760  25.539   4.148  0.00  0.00    +0.103 C 
ATOM      7  C   UNL     1     -34.537  26.534   3.440  0.00  0.00    +0.067 C 
ATOM      8  C   UNL     1     -36.834  25.517   2.628  0.00  0.00    +0.079 C 
ATOM      9  C   UNL     1     -35.621  23.943   5.475  0.00  0.00    +0.301 C 
ATOM     10  H   UNL     1     -33.953  25.176   5.875  0.00  0.00    +0.151 HD
ATOM     11  H   UNL     1     -37.490  23.551   4.572  0.00  0.00    +0.151 HD
ENDROOT
BRANCH   7  12
ATOM     12  C   UNL     1     -34.693  28.006   3.069  0.00  0.00    +0.013 C 
BRANCH  12  13
ATOM     13  C   UNL     1     -33.389  28.804   3.170  0.00  0.00    +0.001 C 
BRANCH  13  14
ATOM     14  C   UNL     1     -32.277  28.050   3.911  0.00  0.00    +0.011 C 
BRANCH  14  15
ATOM     15  C   UNL     1     -31.712  28.785   5.138  0.00  0.00    +0.099 C 
ATOM     16  C   UNL     1     -32.114  30.258   5.188  0.00  0.00    +0.012 C 
BRANCH  15  18
ATOM     17  O   UNL     1     -32.582  26.956   6.496  0.00  0.00    -0.250 OA
ATOM     18  C   UNL     1     -32.093  28.076   6.429  0.00  0.00    +0.313 C 
BRANCH  18  19
ATOM     19  O   UNL     1     -31.825  28.829   7.527  0.00  0.00    -0.480 OA
ATOM     20  H   UNL     1     -32.337  28.723   8.304  0.00  0.00    +0.295 HD
ENDBRANCH  18  19
ENDBRANCH  15  18
ENDBRANCH  14  15
ENDBRANCH  13  14
ENDBRANCH  12  13
ENDBRANCH   7  12
TORSDOF 6
ENDMDL
MODEL 5
REMARK VINA RESULT:      -4.8      3.063      6.045
REMARK  Name = 193131
REMARK  6 active torsions:
REMARK  status: ('A' for Active; 'I' for Inactive)
REMARK    1  A    between atoms: C_7  and  C_12
REMARK    2  A    between atoms: C_12  and  C_13
REMARK    3  A    between atoms: C_13  and  C_14
REMARK    4  A    between atoms: C_14  and  C_15
REMARK    5  A    between atoms: C_15  and  C_18
REMARK    6  A    between atoms: C_18  and  O_19
REMARK                            x       y       z     vdW  Elec       q    Type
REMARK                         _______ _______ _______ _____ _____    ______ ____
ROOT
ATOM      1  S   UNL     1     -36.058  24.497   2.426  0.00  0.00    -0.138 S 
ATOM      2  O   UNL     1     -33.568  26.874   5.725  0.00  0.00    -0.253 OA
ATOM      3  N   UNL     1     -35.801  26.584   5.077  0.00  0.00    -0.288 N 
ATOM      4  N   UNL     1     -34.524  24.759   5.407  0.00  0.00    -0.288 N 
ATOM      5  C   UNL     1     -36.697  25.473   4.810  0.00  0.00    +0.102 C 
ATOM      6  C   UNL     1     -35.823  24.223   5.047  0.00  0.00    +0.103 C 
ATOM      7  C   UNL     1     -37.229  25.510   3.374  0.00  0.00    +0.067 C 
ATOM      8  C   UNL     1     -35.755  23.361   3.794  0.00  0.00    +0.079 C 
ATOM      9  C   UNL     1     -34.516  26.158   5.435  0.00  0.00    +0.301 C 
ATOM     10  H   UNL     1     -36.067  27.530   5.013  0.00  0.00    +0.151 HD
ATOM     11  H   UNL     1     -33.738  24.203   5.610  0.00  0.00    +0.151 HD
ENDROOT
BRANCH   7  12
ATOM     12  C   UNL     1     -38.632  24.918   3.272  0.00  0.00    +0.013 C 
BRANCH  12  13
ATOM     13  C   UNL     1     -39.242  25.026   1.872  0.00  0.00    +0.001 C 
BRANCH  13  14
ATOM     14  C   UNL     1     -40.305  23.956   1.593  0.00  0.00    +0.011 C 
BRANCH  14  15
ATOM     15  C   UNL     1     -39.794  22.730   0.819  0.00  0.00    +0.099 C 
ATOM     16  C   UNL     1     -38.693  23.073  -0.183  0.00  0.00    +0.012 C 
BRANCH  15  18
ATOM     17  O   UNL     1     -38.174  21.386   2.048  0.00  0.00    -0.250 OA
ATOM     18  C   UNL     1     -39.340  21.631   1.767  0.00  0.00    +0.313 C 
BRANCH  18  19
ATOM     19  O   UNL     1     -40.384  20.933   2.284  0.00  0.00    -0.480 OA
ATOM     20  H   UNL     1     -41.134  21.387   2.614  0.00  0.00    +0.295 HD
ENDBRANCH  18  19
ENDBRANCH  15  18
ENDBRANCH  14  15
ENDBRANCH  13  14
ENDBRANCH  12  13
ENDBRANCH   7  12
TORSDOF 6
ENDMDL
MODEL 6
REMARK VINA RESULT:      -4.8      3.123      5.453
REMARK  Name = 193131
REMARK  6 active torsions:
REMARK  status: ('A' for Active; 'I' for Inactive)
REMARK    1  A    between atoms: C_7  and  C_12
REMARK    2  A    between atoms: C_12  and  C_13
REMARK    3  A    between atoms: C_13  and  C_14
REMARK    4  A    between atoms: C_14  and  C_15
REMARK    5  A    between atoms: C_15  and  C_18
REMARK    6  A    between atoms: C_18  and  O_19
REMARK                            x       y       z     vdW  Elec       q    Type
REMARK                         _______ _______ _______ _____ _____    ______ ____
ROOT
ATOM      1  S   UNL     1     -38.264  24.652   3.372  0.00  0.00    -0.138 S 
ATOM      2  O   UNL     1     -35.861  22.160   6.651  0.00  0.00    -0.253 OA
ATOM      3  N   UNL     1     -36.181  22.163   4.330  0.00  0.00    -0.288 N 
ATOM      4  N   UNL     1     -35.599  24.087   5.344  0.00  0.00    -0.288 N 
ATOM      5  C   UNL     1     -36.097  23.124   3.244  0.00  0.00    +0.102 C 
ATOM      6  C   UNL     1     -35.689  24.439   3.940  0.00  0.00    +0.103 C 
ATOM      7  C   UNL     1     -37.439  23.276   2.521  0.00  0.00    +0.067 C 
ATOM      8  C   UNL     1     -36.720  25.531   3.692  0.00  0.00    +0.079 C 
ATOM      9  C   UNL     1     -35.881  22.735   5.572  0.00  0.00    +0.301 C 
ATOM     10  H   UNL     1     -36.421  21.217   4.206  0.00  0.00    +0.151 HD
ATOM     11  H   UNL     1     -35.366  24.726   6.056  0.00  0.00    +0.151 HD
ENDROOT
BRANCH   7  12
ATOM     12  C   UNL     1     -37.255  23.612   1.044  0.00  0.00    +0.013 C 
BRANCH  12  13
ATOM     13  C   UNL     1     -37.965  22.637   0.101  0.00  0.00    +0.001 C 
BRANCH  13  14
ATOM     14  C   UNL     1     -38.181  21.249   0.719  0.00  0.00    +0.011 C 
BRANCH  14  15
ATOM     15  C   UNL     1     -37.134  20.198   0.316  0.00  0.00    +0.099 C 
ATOM     16  C   UNL     1     -36.344  20.591  -0.932  0.00  0.00    +0.012 C 
BRANCH  15  18
ATOM     17  O   UNL     1     -34.980  19.780   1.379  0.00  0.00    -0.250 OA
ATOM     18  C   UNL     1     -36.197  19.881   1.471  0.00  0.00    +0.313 C 
BRANCH  18  19
ATOM     19  O   UNL     1     -36.862  19.721   2.644  0.00  0.00    -0.480 OA
ATOM     20  H   UNL     1     -37.680  19.264   2.661  0.00  0.00    +0.295 HD
ENDBRANCH  18  19
ENDBRANCH  15  18
ENDBRANCH  14  15
ENDBRANCH  13  14
ENDBRANCH  12  13
ENDBRANCH   7  12
TORSDOF 6
ENDMDL
MODEL 7
REMARK VINA RESULT:      -4.7      3.041      3.936
REMARK  Name = 193131
REMARK  6 active torsions:
REMARK  status: ('A' for Active; 'I' for Inactive)
REMARK    1  A    between atoms: C_7  and  C_12
REMARK    2  A    between atoms: C_12  and  C_13
REMARK    3  A    between atoms: C_13  and  C_14
REMARK    4  A    between atoms: C_14  and  C_15
REMARK    5  A    between atoms: C_15  and  C_18
REMARK    6  A    between atoms: C_18  and  O_19
REMARK                            x       y       z     vdW  Elec       q    Type
REMARK                         _______ _______ _______ _____ _____    ______ ____
ROOT
ATOM      1  S   UNL     1     -35.530  24.579   2.537  0.00  0.00    -0.138 S 
ATOM      2  O   UNL     1     -35.449  19.864   1.827  0.00  0.00    -0.253 OA
ATOM      3  N   UNL     1     -35.579  21.372   3.616  0.00  0.00    -0.288 N 
ATOM      4  N   UNL     1     -36.996  21.623   1.886  0.00  0.00    -0.288 N 
ATOM      5  C   UNL     1     -36.384  22.522   3.983  0.00  0.00    +0.102 C 
ATOM      6  C   UNL     1     -37.362  22.687   2.801  0.00  0.00    +0.103 C 
ATOM      7  C   UNL     1     -35.524  23.777   4.167  0.00  0.00    +0.067 C 
ATOM      8  C   UNL     1     -37.218  24.061   2.162  0.00  0.00    +0.079 C 
ATOM      9  C   UNL     1     -35.947  20.838   2.376  0.00  0.00    +0.301 C 
ATOM     10  H   UNL     1     -34.855  21.008   4.176  0.00  0.00    +0.151 HD
ATOM     11  H   UNL     1     -37.437  21.469   1.019  0.00  0.00    +0.151 HD
ENDROOT
BRANCH   7  12
ATOM     12  C   UNL     1     -36.110  24.720   5.214  0.00  0.00    +0.013 C 
BRANCH  12  13
ATOM     13  C   UNL     1     -35.477  26.115   5.203  0.00  0.00    +0.001 C 
BRANCH  13  14
ATOM     14  C   UNL     1     -34.036  26.128   5.729  0.00  0.00    +0.011 C 
BRANCH  14  15
ATOM     15  C   UNL     1     -33.065  27.000   4.917  0.00  0.00    +0.099 C 
ATOM     16  C   UNL     1     -33.739  27.710   3.744  0.00  0.00    +0.012 C 
BRANCH  15  18
ATOM     17  O   UNL     1     -32.362  29.213   5.661  0.00  0.00    -0.250 OA
ATOM     18  C   UNL     1     -32.343  27.999   5.809  0.00  0.00    +0.313 C 
BRANCH  18  19
ATOM     19  O   UNL     1     -31.661  27.390   6.814  0.00  0.00    -0.480 OA
ATOM     20  H   UNL     1     -30.898  27.797   7.175  0.00  0.00    +0.295 HD
ENDBRANCH  18  19
ENDBRANCH  15  18
ENDBRANCH  14  15
ENDBRANCH  13  14
ENDBRANCH  12  13
ENDBRANCH   7  12
TORSDOF 6
ENDMDL
MODEL 8
REMARK VINA RESULT:      -4.7      4.494      6.557
REMARK  Name = 193131
REMARK  6 active torsions:
REMARK  status: ('A' for Active; 'I' for Inactive)
REMARK    1  A    between atoms: C_7  and  C_12
REMARK    2  A    between atoms: C_12  and  C_13
REMARK    3  A    between atoms: C_13  and  C_14
REMARK    4  A    between atoms: C_14  and  C_15
REMARK    5  A    between atoms: C_15  and  C_18
REMARK    6  A    between atoms: C_18  and  O_19
REMARK                            x       y       z     vdW  Elec       q    Type
REMARK                         _______ _______ _______ _____ _____    ______ ____
ROOT
ATOM      1  S   UNL     1     -36.129  24.374   2.492  0.00  0.00    -0.138 S 
ATOM      2  O   UNL     1     -33.599  26.866   5.674  0.00  0.00    -0.253 OA
ATOM      3  N   UNL     1     -35.828  26.639   4.988  0.00  0.00    -0.288 N 
ATOM      4  N   UNL     1     -34.656  24.784   5.487  0.00  0.00    -0.288 N 
ATOM      5  C   UNL     1     -36.773  25.558   4.779  0.00  0.00    +0.102 C 
ATOM      6  C   UNL     1     -35.972  24.288   5.132  0.00  0.00    +0.103 C 
ATOM      7  C   UNL     1     -37.269  25.513   3.330  0.00  0.00    +0.067 C 
ATOM      8  C   UNL     1     -35.918  23.331   3.949  0.00  0.00    +0.079 C 
ATOM      9  C   UNL     1     -34.576  26.179   5.412  0.00  0.00    +0.301 C 
ATOM     10  H   UNL     1     -36.043  27.590   4.847  0.00  0.00    +0.151 HD
ATOM     11  H   UNL     1     -33.905  24.205   5.753  0.00  0.00    +0.151 HD
ENDROOT
BRANCH   7  12
ATOM     12  C   UNL     1     -38.697  24.986   3.233  0.00  0.00    +0.013 C 
BRANCH  12  13
ATOM     13  C   UNL     1     -39.689  26.006   2.667  0.00  0.00    +0.001 C 
BRANCH  13  14
ATOM     14  C   UNL     1     -40.955  26.155   3.522  0.00  0.00    +0.011 C 
BRANCH  14  15
ATOM     15  C   UNL     1     -42.056  27.023   2.891  0.00  0.00    +0.099 C 
ATOM     16  C   UNL     1     -43.083  26.207   2.108  0.00  0.00    +0.012 C 
BRANCH  15  18
ATOM     17  O   UNL     1     -43.938  27.885   4.179  0.00  0.00    -0.250 OA
ATOM     18  C   UNL     1     -42.738  27.893   3.936  0.00  0.00    +0.313 C 
BRANCH  18  19
ATOM     19  O   UNL     1     -41.860  28.697   4.589  0.00  0.00    -0.480 OA
ATOM     20  H   UNL     1     -41.340  28.353   5.287  0.00  0.00    +0.295 HD
ENDBRANCH  18  19
ENDBRANCH  15  18
ENDBRANCH  14  15
ENDBRANCH  13  14
ENDBRANCH  12  13
ENDBRANCH   7  12
TORSDOF 6
ENDMDL
MODEL 9
REMARK VINA RESULT:      -4.6      3.906      5.646
REMARK  Name = 193131
REMARK  6 active torsions:
REMARK  status: ('A' for Active; 'I' for Inactive)
REMARK    1  A    between atoms: C_7  and  C_12
REMARK    2  A    between atoms: C_12  and  C_13
REMARK    3  A    between atoms: C_13  and  C_14
REMARK    4  A    between atoms: C_14  and  C_15
REMARK    5  A    between atoms: C_15  and  C_18
REMARK    6  A    between atoms: C_18  and  O_19
REMARK                            x       y       z     vdW  Elec       q    Type
REMARK                         _______ _______ _______ _____ _____    ______ ____
ROOT
ATOM      1  S   UNL     1     -34.684  24.421   2.927  0.00  0.00    -0.138 S 
ATOM      2  O   UNL     1     -38.782  26.735   2.160  0.00  0.00    -0.253 OA
ATOM      3  N   UNL     1     -38.033  24.534   2.459  0.00  0.00    -0.288 N 
ATOM      4  N   UNL     1     -37.411  26.100   3.952  0.00  0.00    -0.288 N 
ATOM      5  C   UNL     1     -37.220  23.807   3.416  0.00  0.00    +0.102 C 
ATOM      6  C   UNL     1     -36.803  24.879   4.444  0.00  0.00    +0.103 C 
ATOM      7  C   UNL     1     -35.993  23.175   2.750  0.00  0.00    +0.067 C 
ATOM      8  C   UNL     1     -35.287  24.993   4.529  0.00  0.00    +0.079 C 
ATOM      9  C   UNL     1     -38.149  25.892   2.781  0.00  0.00    +0.301 C 
ATOM     10  H   UNL     1     -38.455  24.120   1.672  0.00  0.00    +0.151 HD
ATOM     11  H   UNL     1     -37.317  26.976   4.391  0.00  0.00    +0.151 HD
ENDROOT
BRANCH   7  12
ATOM     12  C   UNL     1     -35.576  21.879   3.437  0.00  0.00    +0.013 C 
BRANCH  12  13
ATOM     13  C   UNL     1     -35.644  20.652   2.524  0.00  0.00    +0.001 C 
BRANCH  13  14
ATOM     14  C   UNL     1     -34.447  20.544   1.569  0.00  0.00    +0.011 C 
BRANCH  14  15
ATOM     15  C   UNL     1     -34.048  19.105   1.201  0.00  0.00    +0.099 C 
ATOM     16  C   UNL     1     -34.726  18.607  -0.075  0.00  0.00    +0.012 C 
BRANCH  15  18
ATOM     17  O   UNL     1     -31.791  19.761   0.556  0.00  0.00    -0.250 OA
ATOM     18  C   UNL     1     -32.538  18.960   1.102  0.00  0.00    +0.313 C 
BRANCH  18  19
ATOM     19  O   UNL     1     -32.090  17.825   1.699  0.00  0.00    -0.480 OA
ATOM     20  H   UNL     1     -32.652  17.345   2.274  0.00  0.00    +0.295 HD
ENDBRANCH  18  19
ENDBRANCH  15  18
ENDBRANCH  14  15
ENDBRANCH  13  14
ENDBRANCH  12  13
ENDBRANCH   7  12
TORSDOF 6
ENDMDL
