MODEL 1
REMARK VINA RESULT:      -6.9      0.000      0.000
REMARK  Name = 54707854
REMARK  12 active torsions:
REMARK  status: ('A' for Active; 'I' for Inactive)
REMARK    1  A    between atoms: C_3  and  C_9
REMARK    2  A    between atoms: C_4  and  O_19
REMARK    3  A    between atoms: C_6  and  C_22
REMARK    4  A    between atoms: C_9  and  O_15
REMARK    5  A    between atoms: C_14  and  O_17
REMARK    6  A    between atoms: C_22  and  C_23
REMARK    7  A    between atoms: C_24  and  C_26
REMARK    8  A    between atoms: C_25  and  C_28
REMARK    9  A    between atoms: C_27  and  C_30
REMARK   10  A    between atoms: C_30  and  C_32
REMARK   11  A    between atoms: C_32  and  C_33
REMARK   12  A    between atoms: C_33  and  C_35
REMARK                            x       y       z     vdW  Elec       q    Type
REMARK                         _______ _______ _______ _____ _____    ______ ____
ROOT
ATOM      1  O   UNL     1     -32.917  28.200   0.688  0.00  0.00    -0.270 OA
ATOM      2  N   UNL     1     -33.552  26.012   0.983  0.00  0.00    -0.279 N 
ATOM      3  C   UNL     1     -34.609  25.296   2.970  0.00  0.00    +0.050 C 
ATOM      4  C   UNL     1     -34.525  26.660   3.483  0.00  0.00    +0.140 C 
ATOM      5  C   UNL     1     -34.121  25.032   1.749  0.00  0.00    +0.065 C 
ATOM      6  C   UNL     1     -33.969  27.652   2.753  0.00  0.00    +0.126 C 
ATOM      7  C   UNL     1     -33.430  27.328   1.385  0.00  0.00    +0.256 C 
ATOM      8  H   UNL     1     -33.209  25.765   0.093  0.00  0.00    +0.155 HD
ENDROOT
BRANCH   3   9
ATOM      9  C   UNL     1     -35.229  24.201   3.788  0.00  0.00    +0.111 C 
ATOM     10  C   UNL     1     -35.224  22.878   3.006  0.00  0.00    +0.034 C 
ATOM     11  C   UNL     1     -34.498  24.042   5.133  0.00  0.00    +0.034 C 
ATOM     12  C   UNL     1     -35.046  22.875   5.953  0.00  0.00    +0.032 C 
ATOM     13  C   UNL     1     -35.766  21.713   3.835  0.00  0.00    +0.032 C 
ATOM     14  C   UNL     1     -35.024  21.571   5.161  0.00  0.00    +0.111 C 
BRANCH   9  15
ATOM     15  O   UNL     1     -36.590  24.563   4.036  0.00  0.00    -0.383 OA
ATOM     16  H   UNL     1     -36.839  25.299   3.455  0.00  0.00    +0.211 HD
ENDBRANCH   9  15
BRANCH  14  17
ATOM     17  O   UNL     1     -35.643  20.538   5.920  0.00  0.00    -0.384 OA
ATOM     18  H   UNL     1     -35.993  20.908   6.745  0.00  0.00    +0.210 HD
ENDBRANCH  14  17
ENDBRANCH   3   9
BRANCH   4  19
ATOM     19  O   UNL     1     -35.034  26.913   4.745  0.00  0.00    -0.505 OA
ATOM     20  H   UNL     1     -35.840  27.383   4.840  0.00  0.00    +0.292 HD
ENDBRANCH   4  19
BRANCH   6  22
ATOM     21  O   UNL     1     -33.033  29.337   4.103  0.00  0.00    -0.286 OA
ATOM     22  C   UNL     1     -33.899  29.019   3.298  0.00  0.00    +0.203 C 
BRANCH  22  23
ATOM     23  C   UNL     1     -34.945  29.942   2.793  0.00  0.00    +0.042 C 
ATOM     24  C   UNL     1     -34.606  31.168   2.370  0.00  0.00    +0.003 C 
BRANCH  24  26
ATOM     25  C   UNL     1     -36.870  32.078   1.948  0.00  0.00    -0.005 C 
ATOM     26  C   UNL     1     -35.533  32.142   1.830  0.00  0.00    -0.000 C 
BRANCH  25  28
ATOM     27  C   UNL     1     -37.527  34.366   1.509  0.00  0.00    -0.031 C 
ATOM     28  C   UNL     1     -37.839  33.055   1.443  0.00  0.00    -0.026 C 
ATOM     29  C   UNL     1     -39.140  32.527   0.897  0.00  0.00    +0.031 C 
BRANCH  27  30
ATOM     30  C   UNL     1     -38.345  35.552   1.034  0.00  0.00    +0.022 C 
ATOM     31  C   UNL     1     -37.396  36.679   0.617  0.00  0.00    +0.005 C 
BRANCH  30  32
ATOM     32  C   UNL     1     -39.313  35.980   2.159  0.00  0.00    +0.004 C 
BRANCH  32  33
ATOM     33  C   UNL     1     -40.811  35.997   1.783  0.00  0.00    +0.000 C 
ATOM     34  C   UNL     1     -41.588  34.856   2.444  0.00  0.00    +0.000 C 
BRANCH  33  35
ATOM     35  C   UNL     1     -40.997  35.996   0.250  0.00  0.00    +0.000 C 
ATOM     36  C   UNL     1     -42.243  36.706  -0.262  0.00  0.00    +0.000 C 
ENDBRANCH  33  35
ENDBRANCH  32  33
ENDBRANCH  30  32
ENDBRANCH  27  30
ENDBRANCH  25  28
ENDBRANCH  24  26
ENDBRANCH  22  23
ENDBRANCH   6  22
TORSDOF 12
ENDMDL
MODEL 2
REMARK VINA RESULT:      -6.7      5.425      7.383
REMARK  Name = 54707854
REMARK  12 active torsions:
REMARK  status: ('A' for Active; 'I' for Inactive)
REMARK    1  A    between atoms: C_3  and  C_9
REMARK    2  A    between atoms: C_4  and  O_19
REMARK    3  A    between atoms: C_6  and  C_22
REMARK    4  A    between atoms: C_9  and  O_15
REMARK    5  A    between atoms: C_14  and  O_17
REMARK    6  A    between atoms: C_22  and  C_23
REMARK    7  A    between atoms: C_24  and  C_26
REMARK    8  A    between atoms: C_25  and  C_28
REMARK    9  A    between atoms: C_27  and  C_30
REMARK   10  A    between atoms: C_30  and  C_32
REMARK   11  A    between atoms: C_32  and  C_33
REMARK   12  A    between atoms: C_33  and  C_35
REMARK                            x       y       z     vdW  Elec       q    Type
REMARK                         _______ _______ _______ _____ _____    ______ ____
ROOT
ATOM      1  O   UNL     1     -39.277  22.024   2.099  0.00  0.00    -0.270 OA
ATOM      2  N   UNL     1     -37.406  22.523   3.336  0.00  0.00    -0.279 N 
ATOM      3  C   UNL     1     -36.811  24.757   3.817  0.00  0.00    +0.050 C 
ATOM      4  C   UNL     1     -37.982  25.209   3.073  0.00  0.00    +0.140 C 
ATOM      5  C   UNL     1     -36.574  23.441   3.915  0.00  0.00    +0.065 C 
ATOM      6  C   UNL     1     -38.825  24.329   2.488  0.00  0.00    +0.126 C 
ATOM      7  C   UNL     1     -38.536  22.858   2.615  0.00  0.00    +0.256 C 
ATOM      8  H   UNL     1     -37.187  21.567   3.438  0.00  0.00    +0.155 HD
ENDROOT
BRANCH   3   9
ATOM      9  C   UNL     1     -35.881  25.740   4.463  0.00  0.00    +0.111 C 
ATOM     10  C   UNL     1     -34.894  25.017   5.394  0.00  0.00    +0.034 C 
ATOM     11  C   UNL     1     -35.126  26.561   3.401  0.00  0.00    +0.034 C 
ATOM     12  C   UNL     1     -34.103  27.510   4.024  0.00  0.00    +0.032 C 
ATOM     13  C   UNL     1     -33.869  25.971   6.007  0.00  0.00    +0.032 C 
ATOM     14  C   UNL     1     -33.130  26.769   4.936  0.00  0.00    +0.111 C 
BRANCH   9  15
ATOM     15  O   UNL     1     -36.672  26.625   5.261  0.00  0.00    -0.383 OA
ATOM     16  H   UNL     1     -36.993  26.153   6.045  0.00  0.00    +0.211 HD
ENDBRANCH   9  15
BRANCH  14  17
ATOM     17  O   UNL     1     -32.269  27.703   5.578  0.00  0.00    -0.384 OA
ATOM     18  H   UNL     1     -32.366  27.624   6.540  0.00  0.00    +0.210 HD
ENDBRANCH  14  17
ENDBRANCH   3   9
BRANCH   4  19
ATOM     19  O   UNL     1     -38.209  26.571   2.982  0.00  0.00    -0.505 OA
ATOM     20  H   UNL     1     -38.991  26.941   3.346  0.00  0.00    +0.292 HD
ENDBRANCH   4  19
BRANCH   6  22
ATOM     21  O   UNL     1     -40.023  24.807   0.520  0.00  0.00    -0.286 OA
ATOM     22  C   UNL     1     -40.000  24.816   1.743  0.00  0.00    +0.203 C 
BRANCH  22  23
ATOM     23  C   UNL     1     -41.114  25.303   2.594  0.00  0.00    +0.042 C 
ATOM     24  C   UNL     1     -41.588  26.546   2.426  0.00  0.00    +0.003 C 
BRANCH  24  26
ATOM     25  C   UNL     1     -42.565  28.069   4.116  0.00  0.00    -0.005 C 
ATOM     26  C   UNL     1     -42.688  27.119   3.174  0.00  0.00    -0.000 C 
BRANCH  25  28
ATOM     27  C   UNL     1     -43.433  29.899   5.442  0.00  0.00    -0.031 C 
ATOM     28  C   UNL     1     -43.653  28.695   4.873  0.00  0.00    -0.026 C 
ATOM     29  C   UNL     1     -44.950  27.937   4.985  0.00  0.00    +0.031 C 
BRANCH  27  30
ATOM     30  C   UNL     1     -44.398  30.750   6.244  0.00  0.00    +0.022 C 
ATOM     31  C   UNL     1     -44.280  32.207   5.787  0.00  0.00    +0.005 C 
BRANCH  30  32
ATOM     32  C   UNL     1     -44.094  30.575   7.749  0.00  0.00    +0.004 C 
BRANCH  32  33
ATOM     33  C   UNL     1     -45.306  30.230   8.641  0.00  0.00    +0.000 C 
ATOM     34  C   UNL     1     -45.673  28.745   8.569  0.00  0.00    +0.000 C 
BRANCH  33  35
ATOM     35  C   UNL     1     -46.515  31.130   8.307  0.00  0.00    +0.000 C 
ATOM     36  C   UNL     1     -47.872  30.440   8.322  0.00  0.00    +0.000 C 
ENDBRANCH  33  35
ENDBRANCH  32  33
ENDBRANCH  30  32
ENDBRANCH  27  30
ENDBRANCH  25  28
ENDBRANCH  24  26
ENDBRANCH  22  23
ENDBRANCH   6  22
TORSDOF 12
ENDMDL
MODEL 3
REMARK VINA RESULT:      -6.7      0.999      1.472
REMARK  Name = 54707854
REMARK  12 active torsions:
REMARK  status: ('A' for Active; 'I' for Inactive)
REMARK    1  A    between atoms: C_3  and  C_9
REMARK    2  A    between atoms: C_4  and  O_19
REMARK    3  A    between atoms: C_6  and  C_22
REMARK    4  A    between atoms: C_9  and  O_15
REMARK    5  A    between atoms: C_14  and  O_17
REMARK    6  A    between atoms: C_22  and  C_23
REMARK    7  A    between atoms: C_24  and  C_26
REMARK    8  A    between atoms: C_25  and  C_28
REMARK    9  A    between atoms: C_27  and  C_30
REMARK   10  A    between atoms: C_30  and  C_32
REMARK   11  A    between atoms: C_32  and  C_33
REMARK   12  A    between atoms: C_33  and  C_35
REMARK                            x       y       z     vdW  Elec       q    Type
REMARK                         _______ _______ _______ _____ _____    ______ ____
ROOT
ATOM      1  O   UNL     1     -33.035  28.261   0.566  0.00  0.00    -0.270 OA
ATOM      2  N   UNL     1     -33.478  26.046   0.986  0.00  0.00    -0.279 N 
ATOM      3  C   UNL     1     -34.695  25.376   2.896  0.00  0.00    +0.050 C 
ATOM      4  C   UNL     1     -34.812  26.777   3.289  0.00  0.00    +0.140 C 
ATOM      5  C   UNL     1     -34.036  25.073   1.768  0.00  0.00    +0.065 C 
ATOM      6  C   UNL     1     -34.273  27.764   2.539  0.00  0.00    +0.126 C 
ATOM      7  C   UNL     1     -33.540  27.395   1.277  0.00  0.00    +0.256 C 
ATOM      8  H   UNL     1     -33.005  25.770   0.167  0.00  0.00    +0.155 HD
ENDROOT
BRANCH   3   9
ATOM      9  C   UNL     1     -35.297  24.287   3.734  0.00  0.00    +0.111 C 
ATOM     10  C   UNL     1     -35.259  22.947   2.983  0.00  0.00    +0.034 C 
ATOM     11  C   UNL     1     -34.572  24.174   5.088  0.00  0.00    +0.034 C 
ATOM     12  C   UNL     1     -35.101  23.014   5.930  0.00  0.00    +0.032 C 
ATOM     13  C   UNL     1     -35.782  21.790   3.834  0.00  0.00    +0.032 C 
ATOM     14  C   UNL     1     -35.046  21.693   5.167  0.00  0.00    +0.111 C 
BRANCH   9  15
ATOM     15  O   UNL     1     -36.667  24.625   3.965  0.00  0.00    -0.383 OA
ATOM     16  H   UNL     1     -37.235  23.912   3.634  0.00  0.00    +0.211 HD
ENDBRANCH   9  15
BRANCH  14  17
ATOM     17  O   UNL     1     -35.648  20.665   5.945  0.00  0.00    -0.384 OA
ATOM     18  H   UNL     1     -35.999  19.977   5.358  0.00  0.00    +0.210 HD
ENDBRANCH  14  17
ENDBRANCH   3   9
BRANCH   4  19
ATOM     19  O   UNL     1     -35.496  27.070   4.456  0.00  0.00    -0.505 OA
ATOM     20  H   UNL     1     -36.200  27.690   4.444  0.00  0.00    +0.292 HD
ENDBRANCH   4  19
BRANCH   6  22
ATOM     21  O   UNL     1     -33.630  29.668   3.763  0.00  0.00    -0.286 OA
ATOM     22  C   UNL     1     -34.409  29.169   2.962  0.00  0.00    +0.203 C 
BRANCH  22  23
ATOM     23  C   UNL     1     -35.545  29.896   2.342  0.00  0.00    +0.042 C 
ATOM     24  C   UNL     1     -35.773  31.176   2.665  0.00  0.00    +0.003 C 
BRANCH  24  26
ATOM     25  C   UNL     1     -37.338  31.852   0.868  0.00  0.00    -0.005 C 
ATOM     26  C   UNL     1     -36.830  31.994   2.104  0.00  0.00    -0.000 C 
BRANCH  25  28
ATOM     27  C   UNL     1     -38.112  33.772  -0.386  0.00  0.00    -0.031 C 
ATOM     28  C   UNL     1     -38.424  32.637   0.273  0.00  0.00    -0.026 C 
ATOM     29  C   UNL     1     -39.831  32.130   0.456  0.00  0.00    +0.031 C 
BRANCH  27  30
ATOM     30  C   UNL     1     -39.046  34.731  -1.099  0.00  0.00    +0.022 C 
ATOM     31  C   UNL     1     -38.348  35.269  -2.353  0.00  0.00    +0.005 C 
BRANCH  30  32
ATOM     32  C   UNL     1     -39.456  35.855  -0.123  0.00  0.00    +0.004 C 
BRANCH  32  33
ATOM     33  C   UNL     1     -40.797  35.643   0.616  0.00  0.00    +0.000 C 
ATOM     34  C   UNL     1     -41.879  36.617   0.142  0.00  0.00    +0.000 C 
BRANCH  33  35
ATOM     35  C   UNL     1     -40.603  35.710   2.146  0.00  0.00    +0.000 C 
ATOM     36  C   UNL     1     -39.158  35.711   2.626  0.00  0.00    +0.000 C 
ENDBRANCH  33  35
ENDBRANCH  32  33
ENDBRANCH  30  32
ENDBRANCH  27  30
ENDBRANCH  25  28
ENDBRANCH  24  26
ENDBRANCH  22  23
ENDBRANCH   6  22
TORSDOF 12
ENDMDL
MODEL 4
REMARK VINA RESULT:      -6.6      6.752      8.719
REMARK  Name = 54707854
REMARK  12 active torsions:
REMARK  status: ('A' for Active; 'I' for Inactive)
REMARK    1  A    between atoms: C_3  and  C_9
REMARK    2  A    between atoms: C_4  and  O_19
REMARK    3  A    between atoms: C_6  and  C_22
REMARK    4  A    between atoms: C_9  and  O_15
REMARK    5  A    between atoms: C_14  and  O_17
REMARK    6  A    between atoms: C_22  and  C_23
REMARK    7  A    between atoms: C_24  and  C_26
REMARK    8  A    between atoms: C_25  and  C_28
REMARK    9  A    between atoms: C_27  and  C_30
REMARK   10  A    between atoms: C_30  and  C_32
REMARK   11  A    between atoms: C_32  and  C_33
REMARK   12  A    between atoms: C_33  and  C_35
REMARK                            x       y       z     vdW  Elec       q    Type
REMARK                         _______ _______ _______ _____ _____    ______ ____
ROOT
ATOM      1  O   UNL     1     -36.475  25.622   3.043  0.00  0.00    -0.270 OA
ATOM      2  N   UNL     1     -36.673  24.004   1.424  0.00  0.00    -0.279 N 
ATOM      3  C   UNL     1     -36.148  21.746   1.872  0.00  0.00    +0.050 C 
ATOM      4  C   UNL     1     -35.806  22.117   3.242  0.00  0.00    +0.140 C 
ATOM      5  C   UNL     1     -36.564  22.700   1.027  0.00  0.00    +0.065 C 
ATOM      6  C   UNL     1     -35.902  23.397   3.667  0.00  0.00    +0.126 C 
ATOM      7  C   UNL     1     -36.373  24.447   2.698  0.00  0.00    +0.256 C 
ATOM      8  H   UNL     1     -36.984  24.667   0.764  0.00  0.00    +0.155 HD
ENDROOT
BRANCH   3   9
ATOM      9  C   UNL     1     -36.039  20.324   1.409  0.00  0.00    +0.111 C 
ATOM     10  C   UNL     1     -36.767  20.137   0.068  0.00  0.00    +0.034 C 
ATOM     11  C   UNL     1     -34.564  19.897   1.292  0.00  0.00    +0.034 C 
ATOM     12  C   UNL     1     -34.414  18.482   0.735  0.00  0.00    +0.032 C 
ATOM     13  C   UNL     1     -36.606  18.721  -0.487  0.00  0.00    +0.032 C 
ATOM     14  C   UNL     1     -35.138  18.323  -0.599  0.00  0.00    +0.111 C 
BRANCH   9  15
ATOM     15  O   UNL     1     -36.687  19.500   2.381  0.00  0.00    -0.383 OA
ATOM     16  H   UNL     1     -36.027  18.946   2.827  0.00  0.00    +0.211 HD
ENDBRANCH   9  15
BRANCH  14  17
ATOM     17  O   UNL     1     -35.066  16.967  -1.024  0.00  0.00    -0.384 OA
ATOM     18  H   UNL     1     -35.035  16.932  -1.993  0.00  0.00    +0.210 HD
ENDBRANCH  14  17
ENDBRANCH   3   9
BRANCH   4  19
ATOM     19  O   UNL     1     -35.378  21.119   4.099  0.00  0.00    -0.505 OA
ATOM     20  H   UNL     1     -34.628  20.601   3.878  0.00  0.00    +0.292 HD
ENDBRANCH   4  19
BRANCH   6  22
ATOM     21  O   UNL     1     -36.203  23.317   6.000  0.00  0.00    -0.286 OA
ATOM     22  C   UNL     1     -35.550  23.741   5.056  0.00  0.00    +0.203 C 
BRANCH  22  23
ATOM     23  C   UNL     1     -34.365  24.624   5.194  0.00  0.00    +0.042 C 
ATOM     24  C   UNL     1     -34.445  25.736   5.937  0.00  0.00    +0.003 C 
BRANCH  24  26
ATOM     25  C   UNL     1     -32.878  27.533   5.266  0.00  0.00    -0.005 C 
ATOM     26  C   UNL     1     -33.349  26.656   6.168  0.00  0.00    -0.000 C 
BRANCH  25  28
ATOM     27  C   UNL     1     -30.848  28.616   4.513  0.00  0.00    -0.031 C 
ATOM     28  C   UNL     1     -31.794  28.498   5.468  0.00  0.00    -0.026 C 
ATOM     29  C   UNL     1     -31.795  29.289   6.751  0.00  0.00    +0.031 C 
BRANCH  27  30
ATOM     30  C   UNL     1     -29.655  29.551   4.481  0.00  0.00    +0.022 C 
ATOM     31  C   UNL     1     -29.692  30.366   3.185  0.00  0.00    +0.005 C 
BRANCH  30  32
ATOM     32  C   UNL     1     -28.360  28.721   4.621  0.00  0.00    +0.004 C 
BRANCH  32  33
ATOM     33  C   UNL     1     -27.795  28.599   6.053  0.00  0.00    +0.000 C 
ATOM     34  C   UNL     1     -28.275  27.328   6.759  0.00  0.00    +0.000 C 
BRANCH  33  35
ATOM     35  C   UNL     1     -28.110  29.862   6.883  0.00  0.00    +0.000 C 
ATOM     36  C   UNL     1     -28.387  29.625   8.361  0.00  0.00    +0.000 C 
ENDBRANCH  33  35
ENDBRANCH  32  33
ENDBRANCH  30  32
ENDBRANCH  27  30
ENDBRANCH  25  28
ENDBRANCH  24  26
ENDBRANCH  22  23
ENDBRANCH   6  22
TORSDOF 12
ENDMDL
MODEL 5
REMARK VINA RESULT:      -6.6      5.806      7.757
REMARK  Name = 54707854
REMARK  12 active torsions:
REMARK  status: ('A' for Active; 'I' for Inactive)
REMARK    1  A    between atoms: C_3  and  C_9
REMARK    2  A    between atoms: C_4  and  O_19
REMARK    3  A    between atoms: C_6  and  C_22
REMARK    4  A    between atoms: C_9  and  O_15
REMARK    5  A    between atoms: C_14  and  O_17
REMARK    6  A    between atoms: C_22  and  C_23
REMARK    7  A    between atoms: C_24  and  C_26
REMARK    8  A    between atoms: C_25  and  C_28
REMARK    9  A    between atoms: C_27  and  C_30
REMARK   10  A    between atoms: C_30  and  C_32
REMARK   11  A    between atoms: C_32  and  C_33
REMARK   12  A    between atoms: C_33  and  C_35
REMARK                            x       y       z     vdW  Elec       q    Type
REMARK                         _______ _______ _______ _____ _____    ______ ____
ROOT
ATOM      1  O   UNL     1     -40.161  22.324   1.687  0.00  0.00    -0.270 OA
ATOM      2  N   UNL     1     -38.143  22.550   2.761  0.00  0.00    -0.279 N 
ATOM      3  C   UNL     1     -37.384  24.652   3.524  0.00  0.00    +0.050 C 
ATOM      4  C   UNL     1     -38.606  25.260   3.005  0.00  0.00    +0.140 C 
ATOM      5  C   UNL     1     -37.206  23.331   3.380  0.00  0.00    +0.065 C 
ATOM      6  C   UNL     1     -39.552  24.517   2.388  0.00  0.00    +0.126 C 
ATOM      7  C   UNL     1     -39.327  23.037   2.241  0.00  0.00    +0.256 C 
ATOM      8  H   UNL     1     -37.963  21.584   2.681  0.00  0.00    +0.155 HD
ENDROOT
BRANCH   3   9
ATOM      9  C   UNL     1     -36.340  25.484   4.207  0.00  0.00    +0.111 C 
ATOM     10  C   UNL     1     -35.361  24.588   4.983  0.00  0.00    +0.034 C 
ATOM     11  C   UNL     1     -35.587  26.362   3.191  0.00  0.00    +0.034 C 
ATOM     12  C   UNL     1     -34.454  27.156   3.840  0.00  0.00    +0.032 C 
ATOM     13  C   UNL     1     -34.226  25.388   5.623  0.00  0.00    +0.032 C 
ATOM     14  C   UNL     1     -33.491  26.245   4.597  0.00  0.00    +0.111 C 
BRANCH   9  15
ATOM     15  O   UNL     1     -37.006  26.329   5.149  0.00  0.00    -0.383 OA
ATOM     16  H   UNL     1     -36.854  25.994   6.047  0.00  0.00    +0.211 HD
ENDBRANCH   9  15
BRANCH  14  17
ATOM     17  O   UNL     1     -32.519  27.033   5.275  0.00  0.00    -0.384 OA
ATOM     18  H   UNL     1     -31.776  27.215   4.679  0.00  0.00    +0.210 HD
ENDBRANCH  14  17
ENDBRANCH   3   9
BRANCH   4  19
ATOM     19  O   UNL     1     -38.772  26.625   3.163  0.00  0.00    -0.505 OA
ATOM     20  H   UNL     1     -39.334  26.954   3.838  0.00  0.00    +0.292 HD
ENDBRANCH   4  19
BRANCH   6  22
ATOM     21  O   UNL     1     -40.940  25.342   0.676  0.00  0.00    -0.286 OA
ATOM     22  C   UNL     1     -40.775  25.159   1.875  0.00  0.00    +0.203 C 
BRANCH  22  23
ATOM     23  C   UNL     1     -41.755  25.550   2.919  0.00  0.00    +0.042 C 
ATOM     24  C   UNL     1     -42.324  26.762   2.880  0.00  0.00    +0.003 C 
BRANCH  24  26
ATOM     25  C   UNL     1     -44.481  26.634   4.089  0.00  0.00    -0.005 C 
ATOM     26  C   UNL     1     -43.313  27.242   3.824  0.00  0.00    -0.000 C 
BRANCH  25  28
ATOM     27  C   UNL     1     -45.546  28.375   5.390  0.00  0.00    -0.031 C 
ATOM     28  C   UNL     1     -45.494  27.069   5.056  0.00  0.00    -0.026 C 
ATOM     29  C   UNL     1     -46.405  26.017   5.631  0.00  0.00    +0.031 C 
BRANCH  27  30
ATOM     30  C   UNL     1     -46.510  29.064   6.337  0.00  0.00    +0.022 C 
ATOM     31  C   UNL     1     -47.755  29.497   5.556  0.00  0.00    +0.005 C 
BRANCH  30  32
ATOM     32  C   UNL     1     -45.790  30.254   7.010  0.00  0.00    +0.004 C 
BRANCH  32  33
ATOM     33  C   UNL     1     -44.263  30.102   7.182  0.00  0.00    +0.000 C 
ATOM     34  C   UNL     1     -43.812  30.375   8.620  0.00  0.00    +0.000 C 
BRANCH  33  35
ATOM     35  C   UNL     1     -43.500  30.985   6.171  0.00  0.00    +0.000 C 
ATOM     36  C   UNL     1     -44.274  32.178   5.625  0.00  0.00    +0.000 C 
ENDBRANCH  33  35
ENDBRANCH  32  33
ENDBRANCH  30  32
ENDBRANCH  27  30
ENDBRANCH  25  28
ENDBRANCH  24  26
ENDBRANCH  22  23
ENDBRANCH   6  22
TORSDOF 12
ENDMDL
MODEL 6
REMARK VINA RESULT:      -6.6      6.249      8.635
REMARK  Name = 54707854
REMARK  12 active torsions:
REMARK  status: ('A' for Active; 'I' for Inactive)
REMARK    1  A    between atoms: C_3  and  C_9
REMARK    2  A    between atoms: C_4  and  O_19
REMARK    3  A    between atoms: C_6  and  C_22
REMARK    4  A    between atoms: C_9  and  O_15
REMARK    5  A    between atoms: C_14  and  O_17
REMARK    6  A    between atoms: C_22  and  C_23
REMARK    7  A    between atoms: C_24  and  C_26
REMARK    8  A    between atoms: C_25  and  C_28
REMARK    9  A    between atoms: C_27  and  C_30
REMARK   10  A    between atoms: C_30  and  C_32
REMARK   11  A    between atoms: C_32  and  C_33
REMARK   12  A    between atoms: C_33  and  C_35
REMARK                            x       y       z     vdW  Elec       q    Type
REMARK                         _______ _______ _______ _____ _____    ______ ____
ROOT
ATOM      1  O   UNL     1     -37.165  25.461   3.539  0.00  0.00    -0.270 OA
ATOM      2  N   UNL     1     -37.611  23.919   1.896  0.00  0.00    -0.279 N 
ATOM      3  C   UNL     1     -36.750  21.723   2.004  0.00  0.00    +0.050 C 
ATOM      4  C   UNL     1     -36.100  22.061   3.267  0.00  0.00    +0.140 C 
ATOM      5  C   UNL     1     -37.473  22.661   1.376  0.00  0.00    +0.065 C 
ATOM      6  C   UNL     1     -36.215  23.294   3.808  0.00  0.00    +0.126 C 
ATOM      7  C   UNL     1     -37.034  24.328   3.082  0.00  0.00    +0.256 C 
ATOM      8  H   UNL     1     -38.153  24.571   1.394  0.00  0.00    +0.155 HD
ENDROOT
BRANCH   3   9
ATOM      9  C   UNL     1     -36.616  20.351   1.411  0.00  0.00    +0.111 C 
ATOM     10  C   UNL     1     -37.690  20.123   0.336  0.00  0.00    +0.034 C 
ATOM     11  C   UNL     1     -35.207  20.142   0.827  0.00  0.00    +0.034 C 
ATOM     12  C   UNL     1     -35.065  18.788   0.133  0.00  0.00    +0.032 C 
ATOM     13  C   UNL     1     -37.537  18.769  -0.358  0.00  0.00    +0.032 C 
ATOM     14  C   UNL     1     -36.136  18.587  -0.935  0.00  0.00    +0.111 C 
BRANCH   9  15
ATOM     15  O   UNL     1     -36.832  19.403   2.460  0.00  0.00    -0.383 OA
ATOM     16  H   UNL     1     -36.016  18.901   2.613  0.00  0.00    +0.211 HD
ENDBRANCH   9  15
BRANCH  14  17
ATOM     17  O   UNL     1     -36.034  17.274  -1.474  0.00  0.00    -0.384 OA
ATOM     18  H   UNL     1     -35.108  17.084  -1.691  0.00  0.00    +0.210 HD
ENDBRANCH  14  17
ENDBRANCH   3   9
BRANCH   4  19
ATOM     19  O   UNL     1     -35.357  21.079   3.900  0.00  0.00    -0.505 OA
ATOM     20  H   UNL     1     -34.421  21.093   3.847  0.00  0.00    +0.292 HD
ENDBRANCH   4  19
BRANCH   6  22
ATOM     21  O   UNL     1     -35.909  23.087   6.132  0.00  0.00    -0.286 OA
ATOM     22  C   UNL     1     -35.547  23.605   5.084  0.00  0.00    +0.203 C 
BRANCH  22  23
ATOM     23  C   UNL     1     -34.431  24.577   4.978  0.00  0.00    +0.042 C 
ATOM     24  C   UNL     1     -34.428  25.676   5.745  0.00  0.00    +0.003 C 
BRANCH  24  26
ATOM     25  C   UNL     1     -33.008  27.406   4.685  0.00  0.00    -0.005 C 
ATOM     26  C   UNL     1     -33.380  26.677   5.750  0.00  0.00    -0.000 C 
BRANCH  25  28
ATOM     27  C   UNL     1     -31.948  29.356   5.651  0.00  0.00    -0.031 C 
ATOM     28  C   UNL     1     -31.975  28.447   4.655  0.00  0.00    -0.026 C 
ATOM     29  C   UNL     1     -31.016  28.443   3.493  0.00  0.00    +0.031 C 
BRANCH  27  30
ATOM     30  C   UNL     1     -30.973  30.500   5.852  0.00  0.00    +0.022 C 
ATOM     31  C   UNL     1     -31.230  31.570   4.786  0.00  0.00    +0.005 C 
BRANCH  30  32
ATOM     32  C   UNL     1     -29.531  29.948   5.801  0.00  0.00    +0.004 C 
BRANCH  32  33
ATOM     33  C   UNL     1     -29.178  28.898   6.877  0.00  0.00    +0.000 C 
ATOM     34  C   UNL     1     -28.316  29.484   7.997  0.00  0.00    +0.000 C 
BRANCH  33  35
ATOM     35  C   UNL     1     -28.516  27.655   6.242  0.00  0.00    +0.000 C 
ATOM     36  C   UNL     1     -27.795  26.728   7.211  0.00  0.00    +0.000 C 
ENDBRANCH  33  35
ENDBRANCH  32  33
ENDBRANCH  30  32
ENDBRANCH  27  30
ENDBRANCH  25  28
ENDBRANCH  24  26
ENDBRANCH  22  23
ENDBRANCH   6  22
TORSDOF 12
ENDMDL
MODEL 7
REMARK VINA RESULT:      -6.3      1.563      2.336
REMARK  Name = 54707854
REMARK  12 active torsions:
REMARK  status: ('A' for Active; 'I' for Inactive)
REMARK    1  A    between atoms: C_3  and  C_9
REMARK    2  A    between atoms: C_4  and  O_19
REMARK    3  A    between atoms: C_6  and  C_22
REMARK    4  A    between atoms: C_9  and  O_15
REMARK    5  A    between atoms: C_14  and  O_17
REMARK    6  A    between atoms: C_22  and  C_23
REMARK    7  A    between atoms: C_24  and  C_26
REMARK    8  A    between atoms: C_25  and  C_28
REMARK    9  A    between atoms: C_27  and  C_30
REMARK   10  A    between atoms: C_30  and  C_32
REMARK   11  A    between atoms: C_32  and  C_33
REMARK   12  A    between atoms: C_33  and  C_35
REMARK                            x       y       z     vdW  Elec       q    Type
REMARK                         _______ _______ _______ _____ _____    ______ ____
ROOT
ATOM      1  O   UNL     1     -33.288  29.632   2.960  0.00  0.00    -0.270 OA
ATOM      2  N   UNL     1     -33.327  27.808   4.357  0.00  0.00    -0.279 N 
ATOM      3  C   UNL     1     -34.871  26.050   4.040  0.00  0.00    +0.050 C 
ATOM      4  C   UNL     1     -35.412  26.759   2.885  0.00  0.00    +0.140 C 
ATOM      5  C   UNL     1     -33.858  26.602   4.723  0.00  0.00    +0.065 C 
ATOM      6  C   UNL     1     -34.911  27.952   2.496  0.00  0.00    +0.126 C 
ATOM      7  C   UNL     1     -33.773  28.549   3.280  0.00  0.00    +0.256 C 
ATOM      8  H   UNL     1     -32.583  28.169   4.892  0.00  0.00    +0.155 HD
ENDROOT
BRANCH   3   9
ATOM      9  C   UNL     1     -35.434  24.725   4.464  0.00  0.00    +0.111 C 
ATOM     10  C   UNL     1     -35.101  23.642   3.426  0.00  0.00    +0.034 C 
ATOM     11  C   UNL     1     -34.907  24.327   5.855  0.00  0.00    +0.034 C 
ATOM     12  C   UNL     1     -35.389  22.940   6.280  0.00  0.00    +0.032 C 
ATOM     13  C   UNL     1     -35.578  22.256   3.861  0.00  0.00    +0.032 C 
ATOM     14  C   UNL     1     -35.040  21.880   5.238  0.00  0.00    +0.111 C 
BRANCH   9  15
ATOM     15  O   UNL     1     -36.856  24.857   4.524  0.00  0.00    -0.383 OA
ATOM     16  H   UNL     1     -37.085  25.742   4.850  0.00  0.00    +0.211 HD
ENDBRANCH   9  15
BRANCH  14  17
ATOM     17  O   UNL     1     -35.602  20.630   5.620  0.00  0.00    -0.384 OA
ATOM     18  H   UNL     1     -36.514  20.764   5.925  0.00  0.00    +0.210 HD
ENDBRANCH  14  17
ENDBRANCH   3   9
BRANCH   4  19
ATOM     19  O   UNL     1     -36.459  26.174   2.193  0.00  0.00    -0.505 OA
ATOM     20  H   UNL     1     -37.252  26.652   2.051  0.00  0.00    +0.292 HD
ENDBRANCH   4  19
BRANCH   6  22
ATOM     21  O   UNL     1     -35.279  28.237   0.189  0.00  0.00    -0.286 OA
ATOM     22  C   UNL     1     -35.479  28.645   1.325  0.00  0.00    +0.203 C 
BRANCH  22  23
ATOM     23  C   UNL     1     -36.289  29.846   1.648  0.00  0.00    +0.042 C 
ATOM     24  C   UNL     1     -36.011  31.016   1.057  0.00  0.00    +0.003 C 
BRANCH  24  26
ATOM     25  C   UNL     1     -36.292  33.475   0.982  0.00  0.00    -0.005 C 
ATOM     26  C   UNL     1     -36.749  32.245   1.270  0.00  0.00    -0.000 C 
BRANCH  25  28
ATOM     27  C   UNL     1     -38.245  34.707   1.711  0.00  0.00    -0.031 C 
ATOM     28  C   UNL     1     -37.016  34.739   1.154  0.00  0.00    -0.026 C 
ATOM     29  C   UNL     1     -36.342  35.998   0.676  0.00  0.00    +0.031 C 
BRANCH  27  30
ATOM     30  C   UNL     1     -39.169  35.870   2.013  0.00  0.00    +0.022 C 
ATOM     31  C   UNL     1     -39.549  35.835   3.497  0.00  0.00    +0.005 C 
BRANCH  30  32
ATOM     32  C   UNL     1     -40.402  35.789   1.085  0.00  0.00    +0.004 C 
BRANCH  32  33
ATOM     33  C   UNL     1     -40.166  35.110  -0.282  0.00  0.00    +0.000 C 
ATOM     34  C   UNL     1     -40.222  36.107  -1.442  0.00  0.00    +0.000 C 
BRANCH  33  35
ATOM     35  C   UNL     1     -41.147  33.936  -0.494  0.00  0.00    +0.000 C 
ATOM     36  C   UNL     1     -42.299  33.856   0.498  0.00  0.00    +0.000 C 
ENDBRANCH  33  35
ENDBRANCH  32  33
ENDBRANCH  30  32
ENDBRANCH  27  30
ENDBRANCH  25  28
ENDBRANCH  24  26
ENDBRANCH  22  23
ENDBRANCH   6  22
TORSDOF 12
ENDMDL
MODEL 8
REMARK VINA RESULT:      -6.3      0.965      1.481
REMARK  Name = 54707854
REMARK  12 active torsions:
REMARK  status: ('A' for Active; 'I' for Inactive)
REMARK    1  A    between atoms: C_3  and  C_9
REMARK    2  A    between atoms: C_4  and  O_19
REMARK    3  A    between atoms: C_6  and  C_22
REMARK    4  A    between atoms: C_9  and  O_15
REMARK    5  A    between atoms: C_14  and  O_17
REMARK    6  A    between atoms: C_22  and  C_23
REMARK    7  A    between atoms: C_24  and  C_26
REMARK    8  A    between atoms: C_25  and  C_28
REMARK    9  A    between atoms: C_27  and  C_30
REMARK   10  A    between atoms: C_30  and  C_32
REMARK   11  A    between atoms: C_32  and  C_33
REMARK   12  A    between atoms: C_33  and  C_35
REMARK                            x       y       z     vdW  Elec       q    Type
REMARK                         _______ _______ _______ _____ _____    ______ ____
ROOT
ATOM      1  O   UNL     1     -33.235  28.329   0.514  0.00  0.00    -0.270 OA
ATOM      2  N   UNL     1     -33.682  26.109   0.900  0.00  0.00    -0.279 N 
ATOM      3  C   UNL     1     -34.789  25.401   2.862  0.00  0.00    +0.050 C 
ATOM      4  C   UNL     1     -34.864  26.792   3.299  0.00  0.00    +0.140 C 
ATOM      5  C   UNL     1     -34.204  25.121   1.689  0.00  0.00    +0.065 C 
ATOM      6  C   UNL     1     -34.358  27.792   2.544  0.00  0.00    +0.126 C 
ATOM      7  C   UNL     1     -33.708  27.450   1.231  0.00  0.00    +0.256 C 
ATOM      8  H   UNL     1     -33.263  25.849   0.047  0.00  0.00    +0.155 HD
ENDROOT
BRANCH   3   9
ATOM      9  C   UNL     1     -35.354  24.296   3.706  0.00  0.00    +0.111 C 
ATOM     10  C   UNL     1     -35.317  22.963   2.943  0.00  0.00    +0.034 C 
ATOM     11  C   UNL     1     -34.592  24.182   5.040  0.00  0.00    +0.034 C 
ATOM     12  C   UNL     1     -35.083  23.007   5.885  0.00  0.00    +0.032 C 
ATOM     13  C   UNL     1     -35.801  21.791   3.797  0.00  0.00    +0.032 C 
ATOM     14  C   UNL     1     -35.029  21.694   5.110  0.00  0.00    +0.111 C 
BRANCH   9  15
ATOM     15  O   UNL     1     -36.722  24.613   3.976  0.00  0.00    -0.383 OA
ATOM     16  H   UNL     1     -37.046  25.239   3.309  0.00  0.00    +0.211 HD
ENDBRANCH   9  15
BRANCH  14  17
ATOM     17  O   UNL     1     -35.597  20.651   5.894  0.00  0.00    -0.384 OA
ATOM     18  H   UNL     1     -35.078  19.839   5.778  0.00  0.00    +0.210 HD
ENDBRANCH  14  17
ENDBRANCH   3   9
BRANCH   4  19
ATOM     19  O   UNL     1     -35.471  27.061   4.513  0.00  0.00    -0.505 OA
ATOM     20  H   UNL     1     -35.098  27.697   5.093  0.00  0.00    +0.292 HD
ENDBRANCH   4  19
BRANCH   6  22
ATOM     21  O   UNL     1     -33.746  29.596   3.926  0.00  0.00    -0.286 OA
ATOM     22  C   UNL     1     -34.449  29.187   3.012  0.00  0.00    +0.203 C 
BRANCH  22  23
ATOM     23  C   UNL     1     -35.444  30.019   2.290  0.00  0.00    +0.042 C 
ATOM     24  C   UNL     1     -35.251  31.340   2.176  0.00  0.00    +0.003 C 
BRANCH  24  26
ATOM     25  C   UNL     1     -37.362  32.603   1.888  0.00  0.00    -0.005 C 
ATOM     26  C   UNL     1     -36.135  32.246   1.471  0.00  0.00    -0.000 C 
BRANCH  25  28
ATOM     27  C   UNL     1     -39.233  34.137   1.957  0.00  0.00    -0.031 C 
ATOM     28  C   UNL     1     -38.275  33.537   1.221  0.00  0.00    -0.026 C 
ATOM     29  C   UNL     1     -38.093  33.751  -0.259  0.00  0.00    +0.031 C 
BRANCH  27  30
ATOM     30  C   UNL     1     -40.268  35.149   1.506  0.00  0.00    +0.022 C 
ATOM     31  C   UNL     1     -40.738  35.959   2.718  0.00  0.00    +0.005 C 
BRANCH  30  32
ATOM     32  C   UNL     1     -41.428  34.406   0.806  0.00  0.00    +0.004 C 
BRANCH  32  33
ATOM     33  C   UNL     1     -41.919  35.030  -0.518  0.00  0.00    +0.000 C 
ATOM     34  C   UNL     1     -40.937  36.066  -1.070  0.00  0.00    +0.000 C 
BRANCH  33  35
ATOM     35  C   UNL     1     -43.337  35.621  -0.360  0.00  0.00    +0.000 C 
ATOM     36  C   UNL     1     -43.458  37.117  -0.613  0.00  0.00    +0.000 C 
ENDBRANCH  33  35
ENDBRANCH  32  33
ENDBRANCH  30  32
ENDBRANCH  27  30
ENDBRANCH  25  28
ENDBRANCH  24  26
ENDBRANCH  22  23
ENDBRANCH   6  22
TORSDOF 12
ENDMDL
MODEL 9
REMARK VINA RESULT:      -6.3      6.763      8.710
REMARK  Name = 54707854
REMARK  12 active torsions:
REMARK  status: ('A' for Active; 'I' for Inactive)
REMARK    1  A    between atoms: C_3  and  C_9
REMARK    2  A    between atoms: C_4  and  O_19
REMARK    3  A    between atoms: C_6  and  C_22
REMARK    4  A    between atoms: C_9  and  O_15
REMARK    5  A    between atoms: C_14  and  O_17
REMARK    6  A    between atoms: C_22  and  C_23
REMARK    7  A    between atoms: C_24  and  C_26
REMARK    8  A    between atoms: C_25  and  C_28
REMARK    9  A    between atoms: C_27  and  C_30
REMARK   10  A    between atoms: C_30  and  C_32
REMARK   11  A    between atoms: C_32  and  C_33
REMARK   12  A    between atoms: C_33  and  C_35
REMARK                            x       y       z     vdW  Elec       q    Type
REMARK                         _______ _______ _______ _____ _____    ______ ____
ROOT
ATOM      1  O   UNL     1     -39.248  22.060   1.998  0.00  0.00    -0.270 OA
ATOM      2  N   UNL     1     -37.388  22.547   3.256  0.00  0.00    -0.279 N 
ATOM      3  C   UNL     1     -36.779  24.777   3.738  0.00  0.00    +0.050 C 
ATOM      4  C   UNL     1     -37.937  25.237   2.978  0.00  0.00    +0.140 C 
ATOM      5  C   UNL     1     -36.555  23.459   3.843  0.00  0.00    +0.065 C 
ATOM      6  C   UNL     1     -38.781  24.363   2.386  0.00  0.00    +0.126 C 
ATOM      7  C   UNL     1     -38.506  22.889   2.521  0.00  0.00    +0.256 C 
ATOM      8  H   UNL     1     -37.178  21.590   3.364  0.00  0.00    +0.155 HD
ENDROOT
BRANCH   3   9
ATOM      9  C   UNL     1     -35.848  25.755   4.392  0.00  0.00    +0.111 C 
ATOM     10  C   UNL     1     -34.923  25.035   5.386  0.00  0.00    +0.034 C 
ATOM     11  C   UNL     1     -35.026  26.519   3.338  0.00  0.00    +0.034 C 
ATOM     12  C   UNL     1     -34.002  27.459   3.974  0.00  0.00    +0.032 C 
ATOM     13  C   UNL     1     -33.897  25.979   6.012  0.00  0.00    +0.032 C 
ATOM     14  C   UNL     1     -33.091  26.720   4.950  0.00  0.00    +0.111 C 
BRANCH   9  15
ATOM     15  O   UNL     1     -36.646  26.687   5.127  0.00  0.00    -0.383 OA
ATOM     16  H   UNL     1     -37.384  26.218   5.548  0.00  0.00    +0.211 HD
ENDBRANCH   9  15
BRANCH  14  17
ATOM     17  O   UNL     1     -32.230  27.650   5.599  0.00  0.00    -0.384 OA
ATOM     18  H   UNL     1     -31.700  28.118   4.935  0.00  0.00    +0.210 HD
ENDBRANCH  14  17
ENDBRANCH   3   9
BRANCH   4  19
ATOM     19  O   UNL     1     -38.152  26.601   2.881  0.00  0.00    -0.505 OA
ATOM     20  H   UNL     1     -37.748  27.090   2.190  0.00  0.00    +0.292 HD
ENDBRANCH   4  19
BRANCH   6  22
ATOM     21  O   UNL     1     -39.889  25.006   0.412  0.00  0.00    -0.286 OA
ATOM     22  C   UNL     1     -39.942  24.858   1.626  0.00  0.00    +0.203 C 
BRANCH  22  23
ATOM     23  C   UNL     1     -41.142  25.150   2.449  0.00  0.00    +0.042 C 
ATOM     24  C   UNL     1     -42.002  26.102   2.060  0.00  0.00    +0.003 C 
BRANCH  24  26
ATOM     25  C   UNL     1     -43.276  27.228   3.861  0.00  0.00    -0.005 C 
ATOM     26  C   UNL     1     -43.219  26.453   2.764  0.00  0.00    -0.000 C 
BRANCH  25  28
ATOM     27  C   UNL     1     -45.191  26.683   5.238  0.00  0.00    -0.031 C 
ATOM     28  C   UNL     1     -44.486  27.630   4.584  0.00  0.00    -0.026 C 
ATOM     29  C   UNL     1     -44.877  29.084   4.533  0.00  0.00    +0.031 C 
BRANCH  27  30
ATOM     30  C   UNL     1     -46.448  26.854   6.069  0.00  0.00    +0.022 C 
ATOM     31  C   UNL     1     -46.127  26.539   7.533  0.00  0.00    +0.005 C 
BRANCH  30  32
ATOM     32  C   UNL     1     -47.558  25.944   5.497  0.00  0.00    +0.004 C 
BRANCH  32  33
ATOM     33  C   UNL     1     -47.317  25.414   4.066  0.00  0.00    +0.000 C 
ATOM     34  C   UNL     1     -48.249  26.067   3.043  0.00  0.00    +0.000 C 
BRANCH  33  35
ATOM     35  C   UNL     1     -47.417  23.873   4.022  0.00  0.00    +0.000 C 
ATOM     36  C   UNL     1     -48.404  23.250   4.999  0.00  0.00    +0.000 C 
ENDBRANCH  33  35
ENDBRANCH  32  33
ENDBRANCH  30  32
ENDBRANCH  27  30
ENDBRANCH  25  28
ENDBRANCH  24  26
ENDBRANCH  22  23
ENDBRANCH   6  22
TORSDOF 12
ENDMDL
