MODEL 1
REMARK VINA RESULT:      -7.0      0.000      0.000
REMARK  Name = 5351221
REMARK  4 active torsions:
REMARK  status: ('A' for Active; 'I' for Inactive)
REMARK    1  A    between atoms: C_5  and  O_18
REMARK    2  A    between atoms: C_7  and  C_22
REMARK    3  A    between atoms: C_12  and  O_20
REMARK    4  A    between atoms: C_23  and  C_26
REMARK                            x       y       z     vdW  Elec       q    Type
REMARK                         _______ _______ _______ _____ _____    ______ ____
ROOT
ATOM      1  O   UNL     1     -38.377  26.095   3.707  0.00  0.00    -0.270 OA
ATOM      2  N   UNL     1     -36.287  25.137   3.831  0.00  0.00    -0.251 N 
ATOM      3  N   UNL     1     -36.892  22.139   3.510  0.00  0.00    -0.308 N 
ATOM      4  C   UNL     1     -35.321  24.050   3.607  0.00  0.00    +0.131 C 
ATOM      5  C   UNL     1     -35.823  22.763   4.255  0.00  0.00    +0.208 C 
ATOM      6  C   UNL     1     -34.008  24.561   4.244  0.00  0.00    +0.052 C 
ATOM      7  C   UNL     1     -34.410  25.884   4.820  0.00  0.00    -0.005 C 
ATOM      8  C   UNL     1     -35.692  26.145   4.552  0.00  0.00    +0.064 C 
ATOM      9  C   UNL     1     -37.605  25.179   3.419  0.00  0.00    +0.254 C 
ATOM     10  C   UNL     1     -37.819  22.719   2.666  0.00  0.00    +0.085 C 
ATOM     11  C   UNL     1     -38.129  24.086   2.552  0.00  0.00    +0.070 C 
ATOM     12  C   UNL     1     -38.496  21.832   1.793  0.00  0.00    +0.143 C 
ATOM     13  C   UNL     1     -39.072  24.516   1.592  0.00  0.00    +0.006 C 
ATOM     14  C   UNL     1     -39.427  22.265   0.850  0.00  0.00    +0.013 C 
ATOM     15  C   UNL     1     -39.714  23.615   0.747  0.00  0.00    -0.001 C 
ATOM     16  C   UNL     1     -40.116  21.299  -0.055  0.00  0.00    +0.034 C 
ATOM     17  H   UNL     1     -36.971  21.164   3.618  0.00  0.00    +0.149 HD
ENDROOT
BRANCH   5  18
ATOM     18  O   UNL     1     -36.195  22.961   5.615  0.00  0.00    -0.334 OA
ATOM     19  C   UNL     1     -35.485  22.087   6.480  0.00  0.00    +0.176 C 
ENDBRANCH   5  18
BRANCH  12  20
ATOM     20  O   UNL     1     -38.225  20.487   1.865  0.00  0.00    -0.505 OA
ATOM     21  H   UNL     1     -38.309  20.035   2.681  0.00  0.00    +0.292 HD
ENDBRANCH  12  20
BRANCH   7  22
ATOM     22  C   UNL     1     -33.502  26.713   5.544  0.00  0.00    +0.002 C 
ATOM     23  C   UNL     1     -32.712  27.630   4.960  0.00  0.00    +0.057 C 
BRANCH  23  26
ATOM     24  O   UNL     1     -30.776  28.017   6.307  0.00  0.00    -0.270 OA
ATOM     25  N   UNL     1     -32.205  29.767   5.874  0.00  0.00    -0.325 N 
ATOM     26  C   UNL     1     -31.791  28.459   5.779  0.00  0.00    +0.243 C 
ATOM     27  H   UNL     1     -31.676  30.415   6.392  0.00  0.00    +0.145 HD
ATOM     28  H   UNL     1     -33.032  30.055   5.423  0.00  0.00    +0.145 HD
ENDBRANCH  23  26
ENDBRANCH   7  22
TORSDOF 4
ENDMDL
MODEL 2
REMARK VINA RESULT:      -6.6      2.157      2.943
REMARK  Name = 5351221
REMARK  4 active torsions:
REMARK  status: ('A' for Active; 'I' for Inactive)
REMARK    1  A    between atoms: C_5  and  O_18
REMARK    2  A    between atoms: C_7  and  C_22
REMARK    3  A    between atoms: C_12  and  O_20
REMARK    4  A    between atoms: C_23  and  C_26
REMARK                            x       y       z     vdW  Elec       q    Type
REMARK                         _______ _______ _______ _____ _____    ______ ____
ROOT
ATOM      1  O   UNL     1     -33.865  24.535   1.161  0.00  0.00    -0.270 OA
ATOM      2  N   UNL     1     -34.505  24.500   3.373  0.00  0.00    -0.251 N 
ATOM      3  N   UNL     1     -37.219  23.059   3.273  0.00  0.00    -0.308 N 
ATOM      4  C   UNL     1     -35.288  23.991   4.510  0.00  0.00    +0.131 C 
ATOM      5  C   UNL     1     -36.779  24.077   4.199  0.00  0.00    +0.208 C 
ATOM      6  C   UNL     1     -34.877  24.891   5.698  0.00  0.00    +0.052 C 
ATOM      7  C   UNL     1     -33.933  25.867   5.066  0.00  0.00    -0.005 C 
ATOM      8  C   UNL     1     -33.768  25.591   3.770  0.00  0.00    +0.064 C 
ATOM      9  C   UNL     1     -34.493  24.009   2.082  0.00  0.00    +0.254 C 
ATOM     10  C   UNL     1     -36.499  22.399   2.297  0.00  0.00    +0.085 C 
ATOM     11  C   UNL     1     -35.244  22.759   1.775  0.00  0.00    +0.070 C 
ATOM     12  C   UNL     1     -37.080  21.203   1.806  0.00  0.00    +0.143 C 
ATOM     13  C   UNL     1     -34.620  21.936   0.811  0.00  0.00    +0.006 C 
ATOM     14  C   UNL     1     -36.457  20.398   0.853  0.00  0.00    +0.013 C 
ATOM     15  C   UNL     1     -35.219  20.765   0.356  0.00  0.00    -0.001 C 
ATOM     16  C   UNL     1     -37.101  19.143   0.363  0.00  0.00    +0.034 C 
ATOM     17  H   UNL     1     -38.166  22.798   3.349  0.00  0.00    +0.149 HD
ENDROOT
BRANCH   5  18
ATOM     18  O   UNL     1     -37.155  25.375   3.749  0.00  0.00    -0.334 OA
ATOM     19  C   UNL     1     -38.443  25.365   3.152  0.00  0.00    +0.176 C 
ENDBRANCH   5  18
BRANCH  12  20
ATOM     20  O   UNL     1     -38.304  20.808   2.287  0.00  0.00    -0.505 OA
ATOM     21  H   UNL     1     -38.395  20.552   3.184  0.00  0.00    +0.292 HD
ENDBRANCH  12  20
BRANCH   7  22
ATOM     22  C   UNL     1     -33.318  26.924   5.800  0.00  0.00    +0.002 C 
ATOM     23  C   UNL     1     -32.429  27.777   5.263  0.00  0.00    +0.057 C 
BRANCH  23  26
ATOM     24  O   UNL     1     -32.260  30.004   6.113  0.00  0.00    -0.270 OA
ATOM     25  N   UNL     1     -30.748  28.421   6.818  0.00  0.00    -0.325 N 
ATOM     26  C   UNL     1     -31.830  28.857   6.089  0.00  0.00    +0.243 C 
ATOM     27  H   UNL     1     -30.265  29.046   7.406  0.00  0.00    +0.145 HD
ATOM     28  H   UNL     1     -30.455  27.482   6.752  0.00  0.00    +0.145 HD
ENDBRANCH  23  26
ENDBRANCH   7  22
TORSDOF 4
ENDMDL
MODEL 3
REMARK VINA RESULT:      -6.4      2.114      7.699
REMARK  Name = 5351221
REMARK  4 active torsions:
REMARK  status: ('A' for Active; 'I' for Inactive)
REMARK    1  A    between atoms: C_5  and  O_18
REMARK    2  A    between atoms: C_7  and  C_22
REMARK    3  A    between atoms: C_12  and  O_20
REMARK    4  A    between atoms: C_23  and  C_26
REMARK                            x       y       z     vdW  Elec       q    Type
REMARK                         _______ _______ _______ _____ _____    ______ ____
ROOT
ATOM      1  O   UNL     1     -33.340  26.284   1.888  0.00  0.00    -0.270 OA
ATOM      2  N   UNL     1     -35.185  25.815   3.184  0.00  0.00    -0.251 N 
ATOM      3  N   UNL     1     -34.033  25.823   6.034  0.00  0.00    -0.308 N 
ATOM      4  C   UNL     1     -35.935  25.794   4.449  0.00  0.00    +0.131 C 
ATOM      5  C   UNL     1     -35.138  25.049   5.516  0.00  0.00    +0.208 C 
ATOM      6  C   UNL     1     -37.265  25.087   4.100  0.00  0.00    +0.052 C 
ATOM      7  C   UNL     1     -37.083  24.728   2.658  0.00  0.00    -0.005 C 
ATOM      8  C   UNL     1     -35.904  25.165   2.208  0.00  0.00    +0.064 C 
ATOM      9  C   UNL     1     -33.940  26.370   2.961  0.00  0.00    +0.254 C 
ATOM     10  C   UNL     1     -33.311  26.828   5.422  0.00  0.00    +0.085 C 
ATOM     11  C   UNL     1     -33.286  27.146   4.053  0.00  0.00    +0.070 C 
ATOM     12  C   UNL     1     -32.549  27.652   6.287  0.00  0.00    +0.143 C 
ATOM     13  C   UNL     1     -32.528  28.248   3.600  0.00  0.00    +0.006 C 
ATOM     14  C   UNL     1     -31.802  28.738   5.830  0.00  0.00    +0.013 C 
ATOM     15  C   UNL     1     -31.795  29.039   4.480  0.00  0.00    -0.001 C 
ATOM     16  C   UNL     1     -31.014  29.584   6.774  0.00  0.00    +0.034 C 
ATOM     17  H   UNL     1     -33.756  25.603   6.953  0.00  0.00    +0.149 HD
ENDROOT
BRANCH   5  18
ATOM     18  O   UNL     1     -34.701  23.773   5.061  0.00  0.00    -0.334 OA
ATOM     19  C   UNL     1     -35.156  22.733   5.914  0.00  0.00    +0.176 C 
ENDBRANCH   5  18
BRANCH  12  20
ATOM     20  O   UNL     1     -32.544  27.384   7.633  0.00  0.00    -0.505 OA
ATOM     21  H   UNL     1     -32.587  28.086   8.252  0.00  0.00    +0.292 HD
ENDBRANCH  12  20
BRANCH   7  22
ATOM     22  C   UNL     1     -38.072  24.019   1.914  0.00  0.00    +0.002 C 
ATOM     23  C   UNL     1     -39.052  23.299   2.487  0.00  0.00    +0.057 C 
BRANCH  23  26
ATOM     24  O   UNL     1     -40.799  23.156   0.860  0.00  0.00    -0.270 OA
ATOM     25  N   UNL     1     -40.032  21.226   1.851  0.00  0.00    -0.325 N 
ATOM     26  C   UNL     1     -40.049  22.586   1.646  0.00  0.00    +0.243 C 
ATOM     27  H   UNL     1     -40.648  20.644   1.350  0.00  0.00    +0.145 HD
ATOM     28  H   UNL     1     -39.402  20.834   2.499  0.00  0.00    +0.145 HD
ENDBRANCH  23  26
ENDBRANCH   7  22
TORSDOF 4
ENDMDL
MODEL 4
REMARK VINA RESULT:      -6.3      3.515      9.036
REMARK  Name = 5351221
REMARK  4 active torsions:
REMARK  status: ('A' for Active; 'I' for Inactive)
REMARK    1  A    between atoms: C_5  and  O_18
REMARK    2  A    between atoms: C_7  and  C_22
REMARK    3  A    between atoms: C_12  and  O_20
REMARK    4  A    between atoms: C_23  and  C_26
REMARK                            x       y       z     vdW  Elec       q    Type
REMARK                         _______ _______ _______ _____ _____    ______ ____
ROOT
ATOM      1  O   UNL     1     -32.267  28.504   7.144  0.00  0.00    -0.270 OA
ATOM      2  N   UNL     1     -32.709  27.579   5.082  0.00  0.00    -0.251 N 
ATOM      3  N   UNL     1     -32.160  29.913   3.157  0.00  0.00    -0.308 N 
ATOM      4  C   UNL     1     -32.610  27.521   3.615  0.00  0.00    +0.131 C 
ATOM      5  C   UNL     1     -33.105  28.830   3.007  0.00  0.00    +0.208 C 
ATOM      6  C   UNL     1     -33.486  26.312   3.214  0.00  0.00    +0.052 C 
ATOM      7  C   UNL     1     -34.040  25.852   4.527  0.00  0.00    -0.005 C 
ATOM      8  C   UNL     1     -33.566  26.599   5.527  0.00  0.00    +0.064 C 
ATOM      9  C   UNL     1     -32.078  28.471   5.927  0.00  0.00    +0.254 C 
ATOM     10  C   UNL     1     -31.195  30.097   4.127  0.00  0.00    +0.085 C 
ATOM     11  C   UNL     1     -31.087  29.429   5.360  0.00  0.00    +0.070 C 
ATOM     12  C   UNL     1     -30.180  31.036   3.815  0.00  0.00    +0.143 C 
ATOM     13  C   UNL     1     -29.998  29.704   6.217  0.00  0.00    +0.006 C 
ATOM     14  C   UNL     1     -29.110  31.302   4.668  0.00  0.00    +0.013 C 
ATOM     15  C   UNL     1     -29.017  30.630   5.873  0.00  0.00    -0.001 C 
ATOM     16  C   UNL     1     -28.059  32.296   4.301  0.00  0.00    +0.034 C 
ATOM     17  H   UNL     1     -32.211  30.618   2.472  0.00  0.00    +0.149 HD
ENDROOT
BRANCH   5  18
ATOM     18  O   UNL     1     -34.388  29.198   3.504  0.00  0.00    -0.334 OA
ATOM     19  C   UNL     1     -35.213  29.724   2.476  0.00  0.00    +0.176 C 
ENDBRANCH   5  18
BRANCH  12  20
ATOM     20  O   UNL     1     -30.240  31.712   2.621  0.00  0.00    -0.505 OA
ATOM     21  H   UNL     1     -29.517  31.678   2.026  0.00  0.00    +0.292 HD
ENDBRANCH  12  20
BRANCH   7  22
ATOM     22  C   UNL     1     -34.945  24.754   4.635  0.00  0.00    +0.002 C 
ATOM     23  C   UNL     1     -34.770  23.734   5.492  0.00  0.00    +0.057 C 
BRANCH  23  26
ATOM     24  O   UNL     1     -35.969  21.963   6.560  0.00  0.00    -0.270 OA
ATOM     25  N   UNL     1     -36.397  22.428   4.348  0.00  0.00    -0.325 N 
ATOM     26  C   UNL     1     -35.756  22.624   5.550  0.00  0.00    +0.243 C 
ATOM     27  H   UNL     1     -37.075  21.720   4.261  0.00  0.00    +0.145 HD
ATOM     28  H   UNL     1     -36.178  22.998   3.575  0.00  0.00    +0.145 HD
ENDBRANCH  23  26
ENDBRANCH   7  22
TORSDOF 4
ENDMDL
MODEL 5
REMARK VINA RESULT:      -6.3      2.094      7.901
REMARK  Name = 5351221
REMARK  4 active torsions:
REMARK  status: ('A' for Active; 'I' for Inactive)
REMARK    1  A    between atoms: C_5  and  O_18
REMARK    2  A    between atoms: C_7  and  C_22
REMARK    3  A    between atoms: C_12  and  O_20
REMARK    4  A    between atoms: C_23  and  C_26
REMARK                            x       y       z     vdW  Elec       q    Type
REMARK                         _______ _______ _______ _____ _____    ______ ____
ROOT
ATOM      1  O   UNL     1     -35.857  25.658   6.019  0.00  0.00    -0.270 OA
ATOM      2  N   UNL     1     -35.204  24.897   3.946  0.00  0.00    -0.251 N 
ATOM      3  N   UNL     1     -33.611  27.273   2.819  0.00  0.00    -0.308 N 
ATOM      4  C   UNL     1     -34.356  24.913   2.743  0.00  0.00    +0.131 C 
ATOM      5  C   UNL     1     -34.392  26.295   2.097  0.00  0.00    +0.208 C 
ATOM      6  C   UNL     1     -34.954  23.816   1.833  0.00  0.00    +0.052 C 
ATOM      7  C   UNL     1     -36.135  23.337   2.619  0.00  0.00    -0.005 C 
ATOM      8  C   UNL     1     -36.215  23.978   3.787  0.00  0.00    +0.064 C 
ATOM      9  C   UNL     1     -35.061  25.676   5.077  0.00  0.00    +0.254 C 
ATOM     10  C   UNL     1     -33.286  27.311   4.160  0.00  0.00    +0.085 C 
ATOM     11  C   UNL     1     -33.873  26.567   5.200  0.00  0.00    +0.070 C 
ATOM     12  C   UNL     1     -32.211  28.165   4.510  0.00  0.00    +0.143 C 
ATOM     13  C   UNL     1     -33.379  26.689   6.518  0.00  0.00    +0.006 C 
ATOM     14  C   UNL     1     -31.732  28.280   5.814  0.00  0.00    +0.013 C 
ATOM     15  C   UNL     1     -32.317  27.535   6.822  0.00  0.00    -0.001 C 
ATOM     16  C   UNL     1     -30.594  29.190   6.141  0.00  0.00    +0.034 C 
ATOM     17  H   UNL     1     -33.260  28.017   2.278  0.00  0.00    +0.149 HD
ENDROOT
BRANCH   5  18
ATOM     18  O   UNL     1     -35.725  26.753   1.894  0.00  0.00    -0.334 OA
ATOM     19  C   UNL     1     -35.770  28.162   1.726  0.00  0.00    +0.176 C 
ENDBRANCH   5  18
BRANCH  12  20
ATOM     20  O   UNL     1     -31.604  28.910   3.529  0.00  0.00    -0.505 OA
ATOM     21  H   UNL     1     -31.889  29.786   3.361  0.00  0.00    +0.292 HD
ENDBRANCH  12  20
BRANCH   7  22
ATOM     22  C   UNL     1     -37.018  22.326   2.137  0.00  0.00    +0.002 C 
ATOM     23  C   UNL     1     -38.356  22.407   2.232  0.00  0.00    +0.057 C 
BRANCH  23  26
ATOM     24  O   UNL     1     -40.387  21.164   2.028  0.00  0.00    -0.270 OA
ATOM     25  N   UNL     1     -38.544  20.498   0.823  0.00  0.00    -0.325 N 
ATOM     26  C   UNL     1     -39.214  21.314   1.706  0.00  0.00    +0.243 C 
ATOM     27  H   UNL     1     -39.008  19.737   0.406  0.00  0.00    +0.145 HD
ATOM     28  H   UNL     1     -37.599  20.677   0.609  0.00  0.00    +0.145 HD
ENDBRANCH  23  26
ENDBRANCH   7  22
TORSDOF 4
ENDMDL
MODEL 6
REMARK VINA RESULT:      -6.2      3.760      6.093
REMARK  Name = 5351221
REMARK  4 active torsions:
REMARK  status: ('A' for Active; 'I' for Inactive)
REMARK    1  A    between atoms: C_5  and  O_18
REMARK    2  A    between atoms: C_7  and  C_22
REMARK    3  A    between atoms: C_12  and  O_20
REMARK    4  A    between atoms: C_23  and  C_26
REMARK                            x       y       z     vdW  Elec       q    Type
REMARK                         _______ _______ _______ _____ _____    ______ ____
ROOT
ATOM      1  O   UNL     1     -35.694  24.273  -0.212  0.00  0.00    -0.270 OA
ATOM      2  N   UNL     1     -35.770  22.444   1.184  0.00  0.00    -0.251 N 
ATOM      3  N   UNL     1     -37.364  23.493   3.595  0.00  0.00    -0.308 N 
ATOM      4  C   UNL     1     -36.326  21.658   2.298  0.00  0.00    +0.131 C 
ATOM      5  C   UNL     1     -36.324  22.490   3.576  0.00  0.00    +0.208 C 
ATOM      6  C   UNL     1     -35.406  20.419   2.395  0.00  0.00    +0.052 C 
ATOM      7  C   UNL     1     -34.377  20.684   1.340  0.00  0.00    -0.005 C 
ATOM      8  C   UNL     1     -34.640  21.827   0.701  0.00  0.00    +0.064 C 
ATOM      9  C   UNL     1     -36.257  23.633   0.678  0.00  0.00    +0.254 C 
ATOM     10  C   UNL     1     -37.979  24.130   2.536  0.00  0.00    +0.085 C 
ATOM     11  C   UNL     1     -37.547  24.168   1.198  0.00  0.00    +0.070 C 
ATOM     12  C   UNL     1     -39.205  24.775   2.833  0.00  0.00    +0.143 C 
ATOM     13  C   UNL     1     -38.331  24.825   0.223  0.00  0.00    +0.006 C 
ATOM     14  C   UNL     1     -39.971  25.422   1.865  0.00  0.00    +0.013 C 
ATOM     15  C   UNL     1     -39.534  25.444   0.553  0.00  0.00    -0.001 C 
ATOM     16  C   UNL     1     -41.260  26.089   2.219  0.00  0.00    +0.034 C 
ATOM     17  H   UNL     1     -37.678  23.760   4.489  0.00  0.00    +0.149 HD
ENDROOT
BRANCH   5  18
ATOM     18  O   UNL     1     -35.049  23.070   3.833  0.00  0.00    -0.334 OA
ATOM     19  C   UNL     1     -35.042  23.788   5.058  0.00  0.00    +0.176 C 
ENDBRANCH   5  18
BRANCH  12  20
ATOM     20  O   UNL     1     -39.670  24.763   4.125  0.00  0.00    -0.505 OA
ATOM     21  H   UNL     1     -40.386  25.315   4.371  0.00  0.00    +0.292 HD
ENDBRANCH  12  20
BRANCH   7  22
ATOM     22  C   UNL     1     -33.288  19.797   1.091  0.00  0.00    +0.002 C 
ATOM     23  C   UNL     1     -33.313  18.490   1.405  0.00  0.00    +0.057 C 
BRANCH  23  26
ATOM     24  O   UNL     1     -31.003  17.882   1.499  0.00  0.00    -0.270 OA
ATOM     25  N   UNL     1     -32.473  16.516   0.375  0.00  0.00    -0.325 N 
ATOM     26  C   UNL     1     -32.139  17.626   1.116  0.00  0.00    +0.243 C 
ATOM     27  H   UNL     1     -31.780  15.866   0.120  0.00  0.00    +0.145 HD
ATOM     28  H   UNL     1     -33.408  16.372   0.100  0.00  0.00    +0.145 HD
ENDBRANCH  23  26
ENDBRANCH   7  22
TORSDOF 4
ENDMDL
MODEL 7
REMARK VINA RESULT:      -6.2      3.511      7.649
REMARK  Name = 5351221
REMARK  4 active torsions:
REMARK  status: ('A' for Active; 'I' for Inactive)
REMARK    1  A    between atoms: C_5  and  O_18
REMARK    2  A    between atoms: C_7  and  C_22
REMARK    3  A    between atoms: C_12  and  O_20
REMARK    4  A    between atoms: C_23  and  C_26
REMARK                            x       y       z     vdW  Elec       q    Type
REMARK                         _______ _______ _______ _____ _____    ______ ____
ROOT
ATOM      1  O   UNL     1     -35.917  28.004   1.750  0.00  0.00    -0.270 OA
ATOM      2  N   UNL     1     -34.812  27.338   3.657  0.00  0.00    -0.251 N 
ATOM      3  N   UNL     1     -32.193  28.945   3.521  0.00  0.00    -0.308 N 
ATOM      4  C   UNL     1     -33.804  27.494   4.718  0.00  0.00    +0.131 C 
ATOM      5  C   UNL     1     -32.415  27.641   4.102  0.00  0.00    +0.208 C 
ATOM      6  C   UNL     1     -33.941  26.214   5.574  0.00  0.00    +0.052 C 
ATOM      7  C   UNL     1     -34.994  25.437   4.846  0.00  0.00    -0.005 C 
ATOM      8  C   UNL     1     -35.438  26.121   3.789  0.00  0.00    +0.064 C 
ATOM      9  C   UNL     1     -35.107  28.236   2.650  0.00  0.00    +0.254 C 
ATOM     10  C   UNL     1     -33.113  29.836   3.003  0.00  0.00    +0.085 C 
ATOM     11  C   UNL     1     -34.449  29.573   2.653  0.00  0.00    +0.070 C 
ATOM     12  C   UNL     1     -32.660  31.170   2.854  0.00  0.00    +0.143 C 
ATOM     13  C   UNL     1     -35.273  30.620   2.183  0.00  0.00    +0.006 C 
ATOM     14  C   UNL     1     -33.480  32.197   2.388  0.00  0.00    +0.013 C 
ATOM     15  C   UNL     1     -34.794  31.921   2.054  0.00  0.00    -0.001 C 
ATOM     16  C   UNL     1     -32.966  33.591   2.247  0.00  0.00    +0.034 C 
ATOM     17  H   UNL     1     -31.255  29.241   3.491  0.00  0.00    +0.149 HD
ENDROOT
BRANCH   5  18
ATOM     18  O   UNL     1     -32.138  26.608   3.162  0.00  0.00    -0.334 OA
ATOM     19  C   UNL     1     -31.035  26.942   2.333  0.00  0.00    +0.176 C 
ENDBRANCH   5  18
BRANCH  12  20
ATOM     20  O   UNL     1     -31.364  31.477   3.185  0.00  0.00    -0.505 OA
ATOM     21  H   UNL     1     -30.770  30.797   3.437  0.00  0.00    +0.292 HD
ENDBRANCH  12  20
BRANCH   7  22
ATOM     22  C   UNL     1     -35.427  24.147   5.272  0.00  0.00    +0.002 C 
ATOM     23  C   UNL     1     -34.770  23.012   4.977  0.00  0.00    +0.057 C 
BRANCH  23  26
ATOM     24  O   UNL     1     -34.987  20.632   4.937  0.00  0.00    -0.270 OA
ATOM     25  N   UNL     1     -36.116  21.830   6.544  0.00  0.00    -0.325 N 
ATOM     26  C   UNL     1     -35.282  21.702   5.457  0.00  0.00    +0.243 C 
ATOM     27  H   UNL     1     -36.518  21.030   6.953  0.00  0.00    +0.145 HD
ATOM     28  H   UNL     1     -36.310  22.722   6.913  0.00  0.00    +0.145 HD
ENDBRANCH  23  26
ENDBRANCH   7  22
TORSDOF 4
ENDMDL
MODEL 8
REMARK VINA RESULT:      -6.0      4.202      5.523
REMARK  Name = 5351221
REMARK  4 active torsions:
REMARK  status: ('A' for Active; 'I' for Inactive)
REMARK    1  A    between atoms: C_5  and  O_18
REMARK    2  A    between atoms: C_7  and  C_22
REMARK    3  A    between atoms: C_12  and  O_20
REMARK    4  A    between atoms: C_23  and  C_26
REMARK                            x       y       z     vdW  Elec       q    Type
REMARK                         _______ _______ _______ _____ _____    ______ ____
ROOT
ATOM      1  O   UNL     1     -33.892  21.897  -0.836  0.00  0.00    -0.270 OA
ATOM      2  N   UNL     1     -34.808  21.671   1.264  0.00  0.00    -0.251 N 
ATOM      3  N   UNL     1     -36.577  19.173   0.970  0.00  0.00    -0.308 N 
ATOM      4  C   UNL     1     -35.469  20.914   2.339  0.00  0.00    +0.131 C 
ATOM      5  C   UNL     1     -36.778  20.318   1.829  0.00  0.00    +0.208 C 
ATOM      6  C   UNL     1     -35.688  21.950   3.465  0.00  0.00    +0.052 C 
ATOM      7  C   UNL     1     -35.168  23.216   2.859  0.00  0.00    -0.005 C 
ATOM      8  C   UNL     1     -34.690  22.991   1.633  0.00  0.00    +0.064 C 
ATOM      9  C   UNL     1     -34.373  21.185   0.047  0.00  0.00    +0.254 C 
ATOM     10  C   UNL     1     -35.493  18.862   0.173  0.00  0.00    +0.085 C 
ATOM     11  C   UNL     1     -34.450  19.720  -0.218  0.00  0.00    +0.070 C 
ATOM     12  C   UNL     1     -35.411  17.515  -0.257  0.00  0.00    +0.143 C 
ATOM     13  C   UNL     1     -33.383  19.221  -0.998  0.00  0.00    +0.006 C 
ATOM     14  C   UNL     1     -34.355  17.031  -1.028  0.00  0.00    +0.013 C 
ATOM     15  C   UNL     1     -33.334  17.888  -1.397  0.00  0.00    -0.001 C 
ATOM     16  C   UNL     1     -34.304  15.602  -1.458  0.00  0.00    +0.034 C 
ATOM     17  H   UNL     1     -37.316  18.523   0.951  0.00  0.00    +0.149 HD
ENDROOT
BRANCH   5  18
ATOM     18  O   UNL     1     -37.598  21.295   1.197  0.00  0.00    -0.334 OA
ATOM     19  C   UNL     1     -38.864  21.399   1.830  0.00  0.00    +0.176 C 
ENDBRANCH   5  18
BRANCH  12  20
ATOM     20  O   UNL     1     -36.405  16.638   0.102  0.00  0.00    -0.505 OA
ATOM     21  H   UNL     1     -36.224  15.945   0.706  0.00  0.00    +0.292 HD
ENDBRANCH  12  20
BRANCH   7  22
ATOM     22  C   UNL     1     -35.200  24.466   3.547  0.00  0.00    +0.002 C 
ATOM     23  C   UNL     1     -35.058  24.579   4.879  0.00  0.00    +0.057 C 
BRANCH  23  26
ATOM     24  O   UNL     1     -34.137  26.425   6.086  0.00  0.00    -0.270 OA
ATOM     25  N   UNL     1     -36.339  26.508   5.427  0.00  0.00    -0.325 N 
ATOM     26  C   UNL     1     -35.102  25.916   5.527  0.00  0.00    +0.243 C 
ATOM     27  H   UNL     1     -36.493  27.398   5.818  0.00  0.00    +0.145 HD
ATOM     28  H   UNL     1     -37.072  26.041   4.963  0.00  0.00    +0.145 HD
ENDBRANCH  23  26
ENDBRANCH   7  22
TORSDOF 4
ENDMDL
MODEL 9
REMARK VINA RESULT:      -6.0      4.742      6.247
REMARK  Name = 5351221
REMARK  4 active torsions:
REMARK  status: ('A' for Active; 'I' for Inactive)
REMARK    1  A    between atoms: C_5  and  O_18
REMARK    2  A    between atoms: C_7  and  C_22
REMARK    3  A    between atoms: C_12  and  O_20
REMARK    4  A    between atoms: C_23  and  C_26
REMARK                            x       y       z     vdW  Elec       q    Type
REMARK                         _______ _______ _______ _____ _____    ______ ____
ROOT
ATOM      1  O   UNL     1     -32.799  21.658  -0.314  0.00  0.00    -0.270 OA
ATOM      2  N   UNL     1     -34.381  21.464   1.348  0.00  0.00    -0.251 N 
ATOM      3  N   UNL     1     -35.676  18.743   0.739  0.00  0.00    -0.308 N 
ATOM      4  C   UNL     1     -35.307  20.705   2.203  0.00  0.00    +0.131 C 
ATOM      5  C   UNL     1     -36.281  19.909   1.341  0.00  0.00    +0.208 C 
ATOM      6  C   UNL     1     -36.014  21.780   3.059  0.00  0.00    +0.052 C 
ATOM      7  C   UNL     1     -35.436  23.058   2.534  0.00  0.00    -0.005 C 
ATOM      8  C   UNL     1     -34.531  22.811   1.584  0.00  0.00    +0.064 C 
ATOM      9  C   UNL     1     -33.493  20.953   0.421  0.00  0.00    +0.254 C 
ATOM     10  C   UNL     1     -34.354  18.520   0.409  0.00  0.00    +0.085 C 
ATOM     11  C   UNL     1     -33.328  19.476   0.312  0.00  0.00    +0.070 C 
ATOM     12  C   UNL     1     -33.994  17.167   0.189  0.00  0.00    +0.143 C 
ATOM     13  C   UNL     1     -32.009  19.066   0.013  0.00  0.00    +0.006 C 
ATOM     14  C   UNL     1     -32.690  16.772  -0.107  0.00  0.00    +0.013 C 
ATOM     15  C   UNL     1     -31.692  17.727  -0.192  0.00  0.00    -0.001 C 
ATOM     16  C   UNL     1     -32.351  15.335  -0.330  0.00  0.00    +0.034 C 
ATOM     17  H   UNL     1     -36.293  18.002   0.537  0.00  0.00    +0.149 HD
ENDROOT
BRANCH   5  18
ATOM     18  O   UNL     1     -36.910  20.724   0.357  0.00  0.00    -0.334 OA
ATOM     19  C   UNL     1     -38.323  20.592   0.399  0.00  0.00    +0.176 C 
ENDBRANCH   5  18
BRANCH  12  20
ATOM     20  O   UNL     1     -34.961  16.196   0.275  0.00  0.00    -0.505 OA
ATOM     21  H   UNL     1     -35.815  16.411   0.596  0.00  0.00    +0.292 HD
ENDBRANCH  12  20
BRANCH   7  22
ATOM     22  C   UNL     1     -35.833  24.338   3.023  0.00  0.00    +0.002 C 
ATOM     23  C   UNL     1     -35.114  25.045   3.911  0.00  0.00    +0.057 C 
BRANCH  23  26
ATOM     24  O   UNL     1     -35.019  27.425   4.112  0.00  0.00    -0.270 OA
ATOM     25  N   UNL     1     -36.739  26.286   5.130  0.00  0.00    -0.325 N 
ATOM     26  C   UNL     1     -35.591  26.373   4.376  0.00  0.00    +0.243 C 
ATOM     27  H   UNL     1     -37.152  27.101   5.494  0.00  0.00    +0.145 HD
ATOM     28  H   UNL     1     -37.147  25.406   5.304  0.00  0.00    +0.145 HD
ENDBRANCH  23  26
ENDBRANCH   7  22
TORSDOF 4
ENDMDL
