MODEL 1
REMARK VINA RESULT:      -6.9      0.000      0.000
REMARK  Name = 57351177
REMARK  10 active torsions:
REMARK  status: ('A' for Active; 'I' for Inactive)
REMARK    1  A    between atoms: C_6  and  C_26
REMARK    2  A    between atoms: C_7  and  O_20
REMARK    3  A    between atoms: C_11  and  O_22
REMARK    4  A    between atoms: C_19  and  O_24
REMARK    5  A    between atoms: C_26  and  C_28
REMARK    6  A    between atoms: C_28  and  C_29
REMARK    7  A    between atoms: C_29  and  C_30
REMARK    8  A    between atoms: C_30  and  C_31
REMARK    9  A    between atoms: C_30  and  O_36
REMARK   10  A    between atoms: C_31  and  O_34
REMARK                            x       y       z     vdW  Elec       q    Type
REMARK                         _______ _______ _______ _____ _____    ______ ____
ROOT
ATOM      1  C   UNL     1     -33.732  26.569   3.647  0.00  0.00    +0.025 C 
ATOM      2  C   UNL     1     -34.134  25.257   4.368  0.00  0.00    +0.005 C 
ATOM      3  C   UNL     1     -35.082  24.297   3.617  0.00  0.00    +0.027 C 
ATOM      4  C   UNL     1     -34.462  23.982   2.215  0.00  0.00    +0.005 C 
ATOM      5  C   UNL     1     -35.337  22.974   1.367  0.00  0.00    +0.000 C 
ATOM      6  C   UNL     1     -32.722  27.105   4.707  0.00  0.00    +0.002 C 
ATOM      7  C   UNL     1     -33.137  26.216   2.270  0.00  0.00    +0.110 C 
ATOM      8  C   UNL     1     -34.082  25.295   1.465  0.00  0.00    +0.029 C 
ATOM      9  C   UNL     1     -36.823  23.421   1.335  0.00  0.00    +0.005 C 
ATOM     10  C   UNL     1     -34.434  25.701   5.798  0.00  0.00    +0.000 C 
ATOM     11  C   UNL     1     -36.563  24.691   3.533  0.00  0.00    +0.110 C 
ATOM     12  C   UNL     1     -33.420  26.831   6.059  0.00  0.00    +0.000 C 
ATOM     13  C   UNL     1     -37.383  23.674   2.743  0.00  0.00    +0.029 C 
ATOM     14  C   UNL     1     -35.207  21.539   1.976  0.00  0.00    +0.002 C 
ATOM     15  C   UNL     1     -34.877  27.591   3.443  0.00  0.00    +0.002 C 
ATOM     16  C   UNL     1     -37.737  22.434   0.576  0.00  0.00    +0.029 C 
ATOM     17  C   UNL     1     -34.786  22.908  -0.085  0.00  0.00    +0.000 C 
ATOM     18  C   UNL     1     -36.438  20.639   1.841  0.00  0.00    +0.029 C 
ATOM     19  C   UNL     1     -37.317  20.964   0.645  0.00  0.00    +0.111 C 
ENDROOT
BRANCH   7  20
ATOM     20  O   UNL     1     -31.882  25.552   2.421  0.00  0.00    -0.384 OA
ATOM     21  H   UNL     1     -31.328  26.046   3.046  0.00  0.00    +0.210 HD
ENDBRANCH   7  20
BRANCH  11  22
ATOM     22  O   UNL     1     -37.121  24.763   4.845  0.00  0.00    -0.384 OA
ATOM     23  H   UNL     1     -37.139  23.876   5.237  0.00  0.00    +0.210 HD
ENDBRANCH  11  22
BRANCH  19  24
ATOM     24  O   UNL     1     -38.478  20.138   0.696  0.00  0.00    -0.384 OA
ATOM     25  H   UNL     1     -38.909  20.130  -0.173  0.00  0.00    +0.210 HD
ENDBRANCH  19  24
BRANCH   6  26
ATOM     26  C   UNL     1     -32.264  28.550   4.560  0.00  0.00    +0.000 C 
ATOM     27  C   UNL     1     -31.233  28.659   3.432  0.00  0.00    +0.000 C 
BRANCH  26  28
ATOM     28  C   UNL     1     -31.668  29.121   5.864  0.00  0.00    +0.003 C 
BRANCH  28  29
ATOM     29  C   UNL     1     -30.198  29.546   5.724  0.00  0.00    +0.032 C 
BRANCH  29  30
ATOM     30  C   UNL     1     -29.239  28.502   6.320  0.00  0.00    +0.135 C 
BRANCH  30  31
ATOM     31  C   UNL     1     -28.225  29.065   7.347  0.00  0.00    +0.113 C 
ATOM     32  C   UNL     1     -27.630  30.412   6.929  0.00  0.00    +0.032 C 
ATOM     33  C   UNL     1     -27.102  28.073   7.663  0.00  0.00    +0.032 C 
BRANCH  31  34
ATOM     34  O   UNL     1     -28.937  29.299   8.572  0.00  0.00    -0.384 OA
ATOM     35  H   UNL     1     -28.304  29.483   9.284  0.00  0.00    +0.210 HD
ENDBRANCH  31  34
ENDBRANCH  30  31
BRANCH  30  36
ATOM     36  O   UNL     1     -30.028  27.482   6.944  0.00  0.00    -0.382 OA
ATOM     37  H   UNL     1     -30.658  27.893   7.558  0.00  0.00    +0.210 HD
ENDBRANCH  30  36
ENDBRANCH  29  30
ENDBRANCH  28  29
ENDBRANCH  26  28
ENDBRANCH   6  26
TORSDOF 10
ENDMDL
MODEL 2
REMARK VINA RESULT:      -6.9      1.066      1.473
REMARK  Name = 57351177
REMARK  10 active torsions:
REMARK  status: ('A' for Active; 'I' for Inactive)
REMARK    1  A    between atoms: C_6  and  C_26
REMARK    2  A    between atoms: C_7  and  O_20
REMARK    3  A    between atoms: C_11  and  O_22
REMARK    4  A    between atoms: C_19  and  O_24
REMARK    5  A    between atoms: C_26  and  C_28
REMARK    6  A    between atoms: C_28  and  C_29
REMARK    7  A    between atoms: C_29  and  C_30
REMARK    8  A    between atoms: C_30  and  C_31
REMARK    9  A    between atoms: C_30  and  O_36
REMARK   10  A    between atoms: C_31  and  O_34
REMARK                            x       y       z     vdW  Elec       q    Type
REMARK                         _______ _______ _______ _____ _____    ______ ____
ROOT
ATOM      1  C   UNL     1     -33.138  27.209   3.855  0.00  0.00    +0.025 C 
ATOM      2  C   UNL     1     -33.540  25.998   4.735  0.00  0.00    +0.005 C 
ATOM      3  C   UNL     1     -34.644  25.063   4.194  0.00  0.00    +0.027 C 
ATOM      4  C   UNL     1     -34.232  24.584   2.762  0.00  0.00    +0.005 C 
ATOM      5  C   UNL     1     -35.280  23.588   2.121  0.00  0.00    +0.000 C 
ATOM      6  C   UNL     1     -31.965  27.742   4.732  0.00  0.00    +0.002 C 
ATOM      7  C   UNL     1     -32.751  26.695   2.454  0.00  0.00    +0.110 C 
ATOM      8  C   UNL     1     -33.855  25.795   1.856  0.00  0.00    +0.029 C 
ATOM      9  C   UNL     1     -36.721  24.155   2.228  0.00  0.00    +0.005 C 
ATOM     10  C   UNL     1     -33.623  26.580   6.145  0.00  0.00    +0.000 C 
ATOM     11  C   UNL     1     -36.091  25.573   4.254  0.00  0.00    +0.110 C 
ATOM     12  C   UNL     1     -32.503  27.638   6.177  0.00  0.00    +0.000 C 
ATOM     13  C   UNL     1     -37.077  24.567   3.664  0.00  0.00    +0.029 C 
ATOM     14  C   UNL     1     -35.180  22.202   2.838  0.00  0.00    +0.002 C 
ATOM     15  C   UNL     1     -34.222  28.303   3.698  0.00  0.00    +0.002 C 
ATOM     16  C   UNL     1     -37.794  23.190   1.677  0.00  0.00    +0.029 C 
ATOM     17  C   UNL     1     -34.925  23.358   0.626  0.00  0.00    +0.000 C 
ATOM     18  C   UNL     1     -36.481  21.401   2.935  0.00  0.00    +0.029 C 
ATOM     19  C   UNL     1     -37.478  21.700   1.829  0.00  0.00    +0.111 C 
ENDROOT
BRANCH   7  20
ATOM     20  O   UNL     1     -31.539  25.943   2.512  0.00  0.00    -0.384 OA
ATOM     21  H   UNL     1     -30.821  26.454   2.105  0.00  0.00    +0.210 HD
ENDBRANCH   7  20
BRANCH  11  22
ATOM     22  O   UNL     1     -36.470  25.797   5.611  0.00  0.00    -0.384 OA
ATOM     23  H   UNL     1     -35.735  25.559   6.196  0.00  0.00    +0.210 HD
ENDBRANCH  11  22
BRANCH  19  24
ATOM     24  O   UNL     1     -38.681  20.982   2.095  0.00  0.00    -0.384 OA
ATOM     25  H   UNL     1     -39.364  21.248   1.460  0.00  0.00    +0.210 HD
ENDBRANCH  19  24
BRANCH   6  26
ATOM     26  C   UNL     1     -31.424  29.126   4.400  0.00  0.00    +0.000 C 
ATOM     27  C   UNL     1     -30.292  29.013   3.374  0.00  0.00    +0.000 C 
BRANCH  26  28
ATOM     28  C   UNL     1     -30.919  29.883   5.646  0.00  0.00    +0.003 C 
BRANCH  28  29
ATOM     29  C   UNL     1     -29.388  29.994   5.710  0.00  0.00    +0.032 C 
BRANCH  29  30
ATOM     30  C   UNL     1     -28.820  29.373   6.996  0.00  0.00    +0.135 C 
BRANCH  30  31
ATOM     31  C   UNL     1     -28.195  27.967   6.816  0.00  0.00    +0.113 C 
ATOM     32  C   UNL     1     -27.074  27.673   7.817  0.00  0.00    +0.032 C 
ATOM     33  C   UNL     1     -27.697  27.728   5.388  0.00  0.00    +0.032 C 
BRANCH  31  34
ATOM     34  O   UNL     1     -29.227  27.001   7.069  0.00  0.00    -0.384 OA
ATOM     35  H   UNL     1     -29.039  26.537   7.900  0.00  0.00    +0.210 HD
ENDBRANCH  31  34
ENDBRANCH  30  31
BRANCH  30  36
ATOM     36  O   UNL     1     -27.830  30.266   7.519  0.00  0.00    -0.382 OA
ATOM     37  H   UNL     1     -28.018  30.444   8.455  0.00  0.00    +0.210 HD
ENDBRANCH  30  36
ENDBRANCH  29  30
ENDBRANCH  28  29
ENDBRANCH  26  28
ENDBRANCH   6  26
TORSDOF 10
ENDMDL
MODEL 3
REMARK VINA RESULT:      -6.8      3.946      7.511
REMARK  Name = 57351177
REMARK  10 active torsions:
REMARK  status: ('A' for Active; 'I' for Inactive)
REMARK    1  A    between atoms: C_6  and  C_26
REMARK    2  A    between atoms: C_7  and  O_20
REMARK    3  A    between atoms: C_11  and  O_22
REMARK    4  A    between atoms: C_19  and  O_24
REMARK    5  A    between atoms: C_26  and  C_28
REMARK    6  A    between atoms: C_28  and  C_29
REMARK    7  A    between atoms: C_29  and  C_30
REMARK    8  A    between atoms: C_30  and  C_31
REMARK    9  A    between atoms: C_30  and  O_36
REMARK   10  A    between atoms: C_31  and  O_34
REMARK                            x       y       z     vdW  Elec       q    Type
REMARK                         _______ _______ _______ _____ _____    ______ ____
ROOT
ATOM      1  C   UNL     1     -35.817  21.656   1.245  0.00  0.00    +0.025 C 
ATOM      2  C   UNL     1     -35.430  21.457  -0.242  0.00  0.00    +0.005 C 
ATOM      3  C   UNL     1     -34.042  20.849  -0.539  0.00  0.00    +0.027 C 
ATOM      4  C   UNL     1     -33.912  19.500   0.244  0.00  0.00    +0.005 C 
ATOM      5  C   UNL     1     -32.533  18.769  -0.014  0.00  0.00    +0.000 C 
ATOM      6  C   UNL     1     -37.279  22.152   1.031  0.00  0.00    +0.002 C 
ATOM      7  C   UNL     1     -35.665  20.310   1.981  0.00  0.00    +0.110 C 
ATOM      8  C   UNL     1     -34.267  19.693   1.750  0.00  0.00    +0.029 C 
ATOM      9  C   UNL     1     -31.343  19.747   0.172  0.00  0.00    +0.005 C 
ATOM     10  C   UNL     1     -35.884  22.750  -0.916  0.00  0.00    +0.000 C 
ATOM     11  C   UNL     1     -32.820  21.760  -0.356  0.00  0.00    +0.110 C 
ATOM     12  C   UNL     1     -37.169  23.135  -0.157  0.00  0.00    +0.000 C 
ATOM     13  C   UNL     1     -31.512  21.031  -0.654  0.00  0.00    +0.029 C 
ATOM     14  C   UNL     1     -32.531  18.169  -1.459  0.00  0.00    +0.002 C 
ATOM     15  C   UNL     1     -34.999  22.729   2.005  0.00  0.00    +0.002 C 
ATOM     16  C   UNL     1     -29.974  19.102  -0.135  0.00  0.00    +0.029 C 
ATOM     17  C   UNL     1     -32.386  17.581   0.976  0.00  0.00    +0.000 C 
ATOM     18  C   UNL     1     -31.170  18.110  -2.158  0.00  0.00    +0.029 C 
ATOM     19  C   UNL     1     -29.988  18.012  -1.210  0.00  0.00    +0.111 C 
ENDROOT
BRANCH   7  20
ATOM     20  O   UNL     1     -36.648  19.378   1.531  0.00  0.00    -0.384 OA
ATOM     21  H   UNL     1     -37.531  19.774   1.613  0.00  0.00    +0.210 HD
ENDBRANCH   7  20
BRANCH  11  22
ATOM     22  O   UNL     1     -32.904  22.870  -1.249  0.00  0.00    -0.384 OA
ATOM     23  H   UNL     1     -32.293  22.735  -1.989  0.00  0.00    +0.210 HD
ENDBRANCH  11  22
BRANCH  19  24
ATOM     24  O   UNL     1     -28.785  18.079  -1.973  0.00  0.00    -0.384 OA
ATOM     25  H   UNL     1     -29.003  18.180  -2.913  0.00  0.00    +0.210 HD
ENDBRANCH  19  24
BRANCH   6  26
ATOM     26  C   UNL     1     -37.989  22.757   2.234  0.00  0.00    +0.000 C 
ATOM     27  C   UNL     1     -39.455  22.307   2.257  0.00  0.00    +0.000 C 
BRANCH  26  28
ATOM     28  C   UNL     1     -37.922  24.298   2.254  0.00  0.00    +0.003 C 
BRANCH  28  29
ATOM     29  C   UNL     1     -37.754  24.881   3.666  0.00  0.00    +0.032 C 
BRANCH  29  30
ATOM     30  C   UNL     1     -36.328  24.677   4.205  0.00  0.00    +0.135 C 
BRANCH  30  31
ATOM     31  C   UNL     1     -35.636  25.968   4.711  0.00  0.00    +0.113 C 
ATOM     32  C   UNL     1     -35.170  26.885   3.576  0.00  0.00    +0.032 C 
ATOM     33  C   UNL     1     -34.469  25.672   5.657  0.00  0.00    +0.032 C 
BRANCH  31  34
ATOM     34  O   UNL     1     -36.608  26.713   5.460  0.00  0.00    -0.384 OA
ATOM     35  H   UNL     1     -36.945  27.443   4.917  0.00  0.00    +0.210 HD
ENDBRANCH  31  34
ENDBRANCH  30  31
BRANCH  30  36
ATOM     36  O   UNL     1     -36.391  23.726   5.274  0.00  0.00    -0.382 OA
ATOM     37  H   UNL     1     -35.651  23.877   5.884  0.00  0.00    +0.210 HD
ENDBRANCH  30  36
ENDBRANCH  29  30
ENDBRANCH  28  29
ENDBRANCH  26  28
ENDBRANCH   6  26
TORSDOF 10
ENDMDL
MODEL 4
REMARK VINA RESULT:      -6.7      3.617      6.142
REMARK  Name = 57351177
REMARK  10 active torsions:
REMARK  status: ('A' for Active; 'I' for Inactive)
REMARK    1  A    between atoms: C_6  and  C_26
REMARK    2  A    between atoms: C_7  and  O_20
REMARK    3  A    between atoms: C_11  and  O_22
REMARK    4  A    between atoms: C_19  and  O_24
REMARK    5  A    between atoms: C_26  and  C_28
REMARK    6  A    between atoms: C_28  and  C_29
REMARK    7  A    between atoms: C_29  and  C_30
REMARK    8  A    between atoms: C_30  and  C_31
REMARK    9  A    between atoms: C_30  and  O_36
REMARK   10  A    between atoms: C_31  and  O_34
REMARK                            x       y       z     vdW  Elec       q    Type
REMARK                         _______ _______ _______ _____ _____    ______ ____
ROOT
ATOM      1  C   UNL     1     -36.023  22.123   2.234  0.00  0.00    +0.025 C 
ATOM      2  C   UNL     1     -37.350  22.359   1.470  0.00  0.00    +0.005 C 
ATOM      3  C   UNL     1     -37.405  21.917  -0.009  0.00  0.00    +0.027 C 
ATOM      4  C   UNL     1     -36.988  20.410  -0.093  0.00  0.00    +0.005 C 
ATOM      5  C   UNL     1     -37.041  19.839  -1.566  0.00  0.00    +0.000 C 
ATOM      6  C   UNL     1     -36.491  22.597   3.644  0.00  0.00    +0.002 C 
ATOM      7  C   UNL     1     -35.643  20.633   2.118  0.00  0.00    +0.110 C 
ATOM      8  C   UNL     1     -35.637  20.164   0.646  0.00  0.00    +0.029 C 
ATOM      9  C   UNL     1     -36.297  20.776  -2.553  0.00  0.00    +0.005 C 
ATOM     10  C   UNL     1     -37.768  23.768   1.886  0.00  0.00    +0.000 C 
ATOM     11  C   UNL     1     -36.672  22.792  -1.034  0.00  0.00    +0.110 C 
ATOM     12  C   UNL     1     -37.312  23.874   3.355  0.00  0.00    +0.000 C 
ATOM     13  C   UNL     1     -36.781  22.230  -2.449  0.00  0.00    +0.029 C 
ATOM     14  C   UNL     1     -38.535  19.662  -1.997  0.00  0.00    +0.002 C 
ATOM     15  C   UNL     1     -34.822  22.977   1.760  0.00  0.00    +0.002 C 
ATOM     16  C   UNL     1     -36.376  20.299  -4.020  0.00  0.00    +0.029 C 
ATOM     17  C   UNL     1     -36.386  18.430  -1.597  0.00  0.00    +0.000 C 
ATOM     18  C   UNL     1     -38.831  19.856  -3.486  0.00  0.00    +0.029 C 
ATOM     19  C   UNL     1     -37.656  19.549  -4.398  0.00  0.00    +0.111 C 
ENDROOT
BRANCH   7  20
ATOM     20  O   UNL     1     -36.565  19.821   2.845  0.00  0.00    -0.384 OA
ATOM     21  H   UNL     1     -36.753  19.013   2.341  0.00  0.00    +0.210 HD
ENDBRANCH   7  20
BRANCH  11  22
ATOM     22  O   UNL     1     -37.240  24.101  -1.049  0.00  0.00    -0.384 OA
ATOM     23  H   UNL     1     -37.749  24.241  -0.236  0.00  0.00    +0.210 HD
ENDBRANCH  11  22
BRANCH  19  24
ATOM     24  O   UNL     1     -38.022  19.876  -5.737  0.00  0.00    -0.384 OA
ATOM     25  H   UNL     1     -38.798  19.355  -5.998  0.00  0.00    +0.210 HD
ENDBRANCH  19  24
BRANCH   6  26
ATOM     26  C   UNL     1     -35.411  22.814   4.696  0.00  0.00    +0.000 C 
ATOM     27  C   UNL     1     -35.344  21.604   5.634  0.00  0.00    +0.000 C 
BRANCH  26  28
ATOM     28  C   UNL     1     -35.635  24.098   5.523  0.00  0.00    +0.003 C 
BRANCH  28  29
ATOM     29  C   UNL     1     -34.450  25.075   5.459  0.00  0.00    +0.032 C 
BRANCH  29  30
ATOM     30  C   UNL     1     -34.901  26.502   5.107  0.00  0.00    +0.135 C 
BRANCH  30  31
ATOM     31  C   UNL     1     -34.532  26.963   3.675  0.00  0.00    +0.113 C 
ATOM     32  C   UNL     1     -35.732  26.991   2.723  0.00  0.00    +0.032 C 
ATOM     33  C   UNL     1     -33.402  26.129   3.066  0.00  0.00    +0.032 C 
BRANCH  31  34
ATOM     34  O   UNL     1     -34.056  28.315   3.766  0.00  0.00    -0.384 OA
ATOM     35  H   UNL     1     -33.401  28.474   3.069  0.00  0.00    +0.210 HD
ENDBRANCH  31  34
ENDBRANCH  30  31
BRANCH  30  36
ATOM     36  O   UNL     1     -36.322  26.571   5.274  0.00  0.00    -0.382 OA
ATOM     37  H   UNL     1     -36.559  26.251   6.160  0.00  0.00    +0.210 HD
ENDBRANCH  30  36
ENDBRANCH  29  30
ENDBRANCH  28  29
ENDBRANCH  26  28
ENDBRANCH   6  26
TORSDOF 10
ENDMDL
MODEL 5
REMARK VINA RESULT:      -6.6      3.035      8.751
REMARK  Name = 57351177
REMARK  10 active torsions:
REMARK  status: ('A' for Active; 'I' for Inactive)
REMARK    1  A    between atoms: C_6  and  C_26
REMARK    2  A    between atoms: C_7  and  O_20
REMARK    3  A    between atoms: C_11  and  O_22
REMARK    4  A    between atoms: C_19  and  O_24
REMARK    5  A    between atoms: C_26  and  C_28
REMARK    6  A    between atoms: C_28  and  C_29
REMARK    7  A    between atoms: C_29  and  C_30
REMARK    8  A    between atoms: C_30  and  C_31
REMARK    9  A    between atoms: C_30  and  O_36
REMARK   10  A    between atoms: C_31  and  O_34
REMARK                            x       y       z     vdW  Elec       q    Type
REMARK                         _______ _______ _______ _____ _____    ______ ____
ROOT
ATOM      1  C   UNL     1     -35.199  25.752   2.853  0.00  0.00    +0.025 C 
ATOM      2  C   UNL     1     -34.674  26.749   3.918  0.00  0.00    +0.005 C 
ATOM      3  C   UNL     1     -33.960  28.020   3.409  0.00  0.00    +0.027 C 
ATOM      4  C   UNL     1     -34.906  28.750   2.397  0.00  0.00    +0.005 C 
ATOM      5  C   UNL     1     -34.287  30.092   1.834  0.00  0.00    +0.000 C 
ATOM      6  C   UNL     1     -35.911  24.754   3.816  0.00  0.00    +0.002 C 
ATOM      7  C   UNL     1     -36.115  26.512   1.874  0.00  0.00    +0.110 C 
ATOM      8  C   UNL     1     -35.417  27.765   1.302  0.00  0.00    +0.029 C 
ATOM      9  C   UNL     1     -32.840  29.863   1.323  0.00  0.00    +0.005 C 
ATOM     10  C   UNL     1     -34.029  25.853   4.973  0.00  0.00    +0.000 C 
ATOM     11  C   UNL     1     -32.532  27.859   2.872  0.00  0.00    +0.110 C 
ATOM     12  C   UNL     1     -34.919  24.595   4.990  0.00  0.00    +0.000 C 
ATOM     13  C   UNL     1     -31.953  29.182   2.376  0.00  0.00    +0.029 C 
ATOM     14  C   UNL     1     -34.308  31.181   2.957  0.00  0.00    +0.002 C 
ATOM     15  C   UNL     1     -34.108  25.016   2.039  0.00  0.00    +0.002 C 
ATOM     16  C   UNL     1     -32.162  31.158   0.824  0.00  0.00    +0.029 C 
ATOM     17  C   UNL     1     -35.170  30.618   0.669  0.00  0.00    +0.000 C 
ATOM     18  C   UNL     1     -33.171  32.205   2.920  0.00  0.00    +0.029 C 
ATOM     19  C   UNL     1     -32.595  32.443   1.535  0.00  0.00    +0.111 C 
ENDROOT
BRANCH   7  20
ATOM     20  O   UNL     1     -37.316  26.924   2.527  0.00  0.00    -0.384 OA
ATOM     21  H   UNL     1     -37.790  26.143   2.855  0.00  0.00    +0.210 HD
ENDBRANCH   7  20
BRANCH  11  22
ATOM     22  O   UNL     1     -31.675  27.380   3.908  0.00  0.00    -0.384 OA
ATOM     23  H   UNL     1     -32.129  26.683   4.406  0.00  0.00    +0.210 HD
ENDBRANCH  11  22
BRANCH  19  24
ATOM     24  O   UNL     1     -31.478  33.322   1.652  0.00  0.00    -0.384 OA
ATOM     25  H   UNL     1     -31.778  34.187   1.974  0.00  0.00    +0.210 HD
ENDBRANCH  19  24
BRANCH   6  26
ATOM     26  C   UNL     1     -36.350  23.419   3.229  0.00  0.00    +0.000 C 
ATOM     27  C   UNL     1     -37.871  23.408   3.033  0.00  0.00    +0.000 C 
BRANCH  26  28
ATOM     28  C   UNL     1     -35.932  22.218   4.102  0.00  0.00    +0.003 C 
BRANCH  28  29
ATOM     29  C   UNL     1     -35.173  21.134   3.321  0.00  0.00    +0.032 C 
BRANCH  29  30
ATOM     30  C   UNL     1     -35.998  20.592   2.142  0.00  0.00    +0.135 C 
BRANCH  30  31
ATOM     31  C   UNL     1     -35.170  19.862   1.054  0.00  0.00    +0.113 C 
ATOM     32  C   UNL     1     -33.789  19.419   1.544  0.00  0.00    +0.032 C 
ATOM     33  C   UNL     1     -35.030  20.691  -0.226  0.00  0.00    +0.032 C 
BRANCH  31  34
ATOM     34  O   UNL     1     -35.880  18.663   0.704  0.00  0.00    -0.384 OA
ATOM     35  H   UNL     1     -35.275  17.906   0.748  0.00  0.00    +0.210 HD
ENDBRANCH  31  34
ENDBRANCH  30  31
BRANCH  30  36
ATOM     36  O   UNL     1     -36.983  19.695   2.667  0.00  0.00    -0.382 OA
ATOM     37  H   UNL     1     -37.812  20.177   2.815  0.00  0.00    +0.210 HD
ENDBRANCH  30  36
ENDBRANCH  29  30
ENDBRANCH  28  29
ENDBRANCH  26  28
ENDBRANCH   6  26
TORSDOF 10
ENDMDL
MODEL 6
REMARK VINA RESULT:      -6.6      2.793      8.901
REMARK  Name = 57351177
REMARK  10 active torsions:
REMARK  status: ('A' for Active; 'I' for Inactive)
REMARK    1  A    between atoms: C_6  and  C_26
REMARK    2  A    between atoms: C_7  and  O_20
REMARK    3  A    between atoms: C_11  and  O_22
REMARK    4  A    between atoms: C_19  and  O_24
REMARK    5  A    between atoms: C_26  and  C_28
REMARK    6  A    between atoms: C_28  and  C_29
REMARK    7  A    between atoms: C_29  and  C_30
REMARK    8  A    between atoms: C_30  and  C_31
REMARK    9  A    between atoms: C_30  and  O_36
REMARK   10  A    between atoms: C_31  and  O_34
REMARK                            x       y       z     vdW  Elec       q    Type
REMARK                         _______ _______ _______ _____ _____    ______ ____
ROOT
ATOM      1  C   UNL     1     -33.617  27.276   3.887  0.00  0.00    +0.025 C 
ATOM      2  C   UNL     1     -32.879  28.187   4.901  0.00  0.00    +0.005 C 
ATOM      3  C   UNL     1     -31.794  29.134   4.344  0.00  0.00    +0.027 C 
ATOM      4  C   UNL     1     -32.424  29.993   3.197  0.00  0.00    +0.005 C 
ATOM      5  C   UNL     1     -31.406  31.029   2.573  0.00  0.00    +0.000 C 
ATOM      6  C   UNL     1     -34.644  26.637   4.870  0.00  0.00    +0.002 C 
ATOM      7  C   UNL     1     -34.212  28.158   2.771  0.00  0.00    +0.110 C 
ATOM      8  C   UNL     1     -33.143  29.086   2.152  0.00  0.00    +0.029 C 
ATOM      9  C   UNL     1     -30.066  30.338   2.206  0.00  0.00    +0.005 C 
ATOM     10  C   UNL     1     -32.586  27.262   6.080  0.00  0.00    +0.000 C 
ATOM     11  C   UNL     1     -30.450  28.509   3.944  0.00  0.00    +0.110 C 
ATOM     12  C   UNL     1     -33.809  26.326   6.132  0.00  0.00    +0.000 C 
ATOM     13  C   UNL     1     -29.479  29.547   3.385  0.00  0.00    +0.029 C 
ATOM     14  C   UNL     1     -31.164  32.193   3.591  0.00  0.00    +0.002 C 
ATOM     15  C   UNL     1     -32.750  26.172   3.234  0.00  0.00    +0.002 C 
ATOM     16  C   UNL     1     -29.008  31.319   1.654  0.00  0.00    +0.029 C 
ATOM     17  C   UNL     1     -32.029  31.660   1.296  0.00  0.00    +0.000 C 
ATOM     18  C   UNL     1     -29.774  32.833   3.559  0.00  0.00    +0.029 C 
ATOM     19  C   UNL     1     -29.079  32.743   2.212  0.00  0.00    +0.111 C 
ENDROOT
BRANCH   7  20
ATOM     20  O   UNL     1     -35.271  28.968   3.283  0.00  0.00    -0.384 OA
ATOM     21  H   UNL     1     -35.567  28.612   4.136  0.00  0.00    +0.210 HD
ENDBRANCH   7  20
BRANCH  11  22
ATOM     22  O   UNL     1     -29.831  27.918   5.086  0.00  0.00    -0.384 OA
ATOM     23  H   UNL     1     -30.503  27.741   5.762  0.00  0.00    +0.210 HD
ENDBRANCH  11  22
BRANCH  19  24
ATOM     24  O   UNL     1     -27.760  33.269   2.344  0.00  0.00    -0.384 OA
ATOM     25  H   UNL     1     -27.701  34.118   1.879  0.00  0.00    +0.210 HD
ENDBRANCH  19  24
BRANCH   6  26
ATOM     26  C   UNL     1     -35.426  25.431   4.366  0.00  0.00    +0.000 C 
ATOM     27  C   UNL     1     -36.827  25.865   3.921  0.00  0.00    +0.000 C 
BRANCH  26  28
ATOM     28  C   UNL     1     -35.543  24.313   5.424  0.00  0.00    +0.003 C 
BRANCH  28  29
ATOM     29  C   UNL     1     -34.790  23.031   5.038  0.00  0.00    +0.032 C 
BRANCH  29  30
ATOM     30  C   UNL     1     -35.752  21.882   4.693  0.00  0.00    +0.135 C 
BRANCH  30  31
ATOM     31  C   UNL     1     -36.077  21.740   3.185  0.00  0.00    +0.113 C 
ATOM     32  C   UNL     1     -34.974  22.290   2.276  0.00  0.00    +0.032 C 
ATOM     33  C   UNL     1     -37.422  22.373   2.816  0.00  0.00    +0.032 C 
BRANCH  31  34
ATOM     34  O   UNL     1     -36.178  20.337   2.895  0.00  0.00    -0.384 OA
ATOM     35  H   UNL     1     -35.313  20.004   2.606  0.00  0.00    +0.210 HD
ENDBRANCH  31  34
ENDBRANCH  30  31
BRANCH  30  36
ATOM     36  O   UNL     1     -35.172  20.662   5.168  0.00  0.00    -0.382 OA
ATOM     37  H   UNL     1     -35.077  20.704   6.133  0.00  0.00    +0.210 HD
ENDBRANCH  30  36
ENDBRANCH  29  30
ENDBRANCH  28  29
ENDBRANCH  26  28
ENDBRANCH   6  26
TORSDOF 10
ENDMDL
MODEL 7
REMARK VINA RESULT:      -6.4      4.892      9.709
REMARK  Name = 57351177
REMARK  10 active torsions:
REMARK  status: ('A' for Active; 'I' for Inactive)
REMARK    1  A    between atoms: C_6  and  C_26
REMARK    2  A    between atoms: C_7  and  O_20
REMARK    3  A    between atoms: C_11  and  O_22
REMARK    4  A    between atoms: C_19  and  O_24
REMARK    5  A    between atoms: C_26  and  C_28
REMARK    6  A    between atoms: C_28  and  C_29
REMARK    7  A    between atoms: C_29  and  C_30
REMARK    8  A    between atoms: C_30  and  C_31
REMARK    9  A    between atoms: C_30  and  O_36
REMARK   10  A    between atoms: C_31  and  O_34
REMARK                            x       y       z     vdW  Elec       q    Type
REMARK                         _______ _______ _______ _____ _____    ______ ____
ROOT
ATOM      1  C   UNL     1     -34.020  19.676  -0.163  0.00  0.00    +0.025 C 
ATOM      2  C   UNL     1     -35.506  20.072   0.024  0.00  0.00    +0.005 C 
ATOM      3  C   UNL     1     -35.814  21.225   1.004  0.00  0.00    +0.027 C 
ATOM      4  C   UNL     1     -34.965  22.473   0.587  0.00  0.00    +0.005 C 
ATOM      5  C   UNL     1     -35.228  23.732   1.508  0.00  0.00    +0.000 C 
ATOM      6  C   UNL     1     -34.214  18.609  -1.284  0.00  0.00    +0.002 C 
ATOM      7  C   UNL     1     -33.219  20.932  -0.562  0.00  0.00    +0.110 C 
ATOM      8  C   UNL     1     -33.461  22.094   0.426  0.00  0.00    +0.029 C 
ATOM      9  C   UNL     1     -35.132  23.351   3.009  0.00  0.00    +0.005 C 
ATOM     10  C   UNL     1     -36.233  18.733   0.130  0.00  0.00    +0.000 C 
ATOM     11  C   UNL     1     -35.719  20.919   2.505  0.00  0.00    +0.110 C 
ATOM     12  C   UNL     1     -35.455  17.810  -0.827  0.00  0.00    +0.000 C 
ATOM     13  C   UNL     1     -36.019  22.148   3.360  0.00  0.00    +0.029 C 
ATOM     14  C   UNL     1     -36.638  24.325   1.180  0.00  0.00    +0.002 C 
ATOM     15  C   UNL     1     -33.345  19.031   1.071  0.00  0.00    +0.002 C 
ATOM     16  C   UNL     1     -35.448  24.531   3.955  0.00  0.00    +0.029 C 
ATOM     17  C   UNL     1     -34.181  24.834   1.185  0.00  0.00    +0.000 C 
ATOM     18  C   UNL     1     -37.376  24.984   2.347  0.00  0.00    +0.029 C 
ATOM     19  C   UNL     1     -36.462  25.547   3.422  0.00  0.00    +0.111 C 
ENDROOT
BRANCH   7  20
ATOM     20  O   UNL     1     -33.587  21.368  -1.871  0.00  0.00    -0.384 OA
ATOM     21  H   UNL     1     -34.059  22.214  -1.808  0.00  0.00    +0.210 HD
ENDBRANCH   7  20
BRANCH  11  22
ATOM     22  O   UNL     1     -36.667  19.912   2.856  0.00  0.00    -0.384 OA
ATOM     23  H   UNL     1     -36.809  19.325   2.098  0.00  0.00    +0.210 HD
ENDBRANCH  11  22
BRANCH  19  24
ATOM     24  O   UNL     1     -37.266  26.027   4.498  0.00  0.00    -0.384 OA
ATOM     25  H   UNL     1     -36.725  26.577   5.085  0.00  0.00    +0.210 HD
ENDBRANCH  19  24
BRANCH   6  26
ATOM     26  C   UNL     1     -33.022  17.718  -1.606  0.00  0.00    +0.000 C 
ATOM     27  C   UNL     1     -32.608  17.906  -3.070  0.00  0.00    +0.000 C 
BRANCH  26  28
ATOM     28  C   UNL     1     -33.304  16.225  -1.336  0.00  0.00    +0.003 C 
BRANCH  28  29
ATOM     29  C   UNL     1     -32.617  15.697  -0.067  0.00  0.00    +0.032 C 
BRANCH  29  30
ATOM     30  C   UNL     1     -31.342  14.903  -0.393  0.00  0.00    +0.135 C 
BRANCH  30  31
ATOM     31  C   UNL     1     -30.022  15.697  -0.218  0.00  0.00    +0.113 C 
ATOM     32  C   UNL     1     -29.572  16.407  -1.498  0.00  0.00    +0.032 C 
ATOM     33  C   UNL     1     -28.885  14.826   0.325  0.00  0.00    +0.032 C 
BRANCH  31  34
ATOM     34  O   UNL     1     -30.264  16.727   0.753  0.00  0.00    -0.384 OA
ATOM     35  H   UNL     1     -29.979  16.420   1.628  0.00  0.00    +0.210 HD
ENDBRANCH  31  34
ENDBRANCH  30  31
BRANCH  30  36
ATOM     36  O   UNL     1     -31.312  13.747   0.451  0.00  0.00    -0.382 OA
ATOM     37  H   UNL     1     -30.690  13.097   0.086  0.00  0.00    +0.210 HD
ENDBRANCH  30  36
ENDBRANCH  29  30
ENDBRANCH  28  29
ENDBRANCH  26  28
ENDBRANCH   6  26
TORSDOF 10
ENDMDL
MODEL 8
REMARK VINA RESULT:      -6.4      6.177     10.034
REMARK  Name = 57351177
REMARK  10 active torsions:
REMARK  status: ('A' for Active; 'I' for Inactive)
REMARK    1  A    between atoms: C_6  and  C_26
REMARK    2  A    between atoms: C_7  and  O_20
REMARK    3  A    between atoms: C_11  and  O_22
REMARK    4  A    between atoms: C_19  and  O_24
REMARK    5  A    between atoms: C_26  and  C_28
REMARK    6  A    between atoms: C_28  and  C_29
REMARK    7  A    between atoms: C_29  and  C_30
REMARK    8  A    between atoms: C_30  and  C_31
REMARK    9  A    between atoms: C_30  and  O_36
REMARK   10  A    between atoms: C_31  and  O_34
REMARK                            x       y       z     vdW  Elec       q    Type
REMARK                         _______ _______ _______ _____ _____    ______ ____
ROOT
ATOM      1  C   UNL     1     -34.328  32.400   1.388  0.00  0.00    +0.025 C 
ATOM      2  C   UNL     1     -34.829  31.710   2.682  0.00  0.00    +0.005 C 
ATOM      3  C   UNL     1     -33.836  30.793   3.428  0.00  0.00    +0.027 C 
ATOM      4  C   UNL     1     -32.528  31.606   3.714  0.00  0.00    +0.005 C 
ATOM      5  C   UNL     1     -31.446  30.770   4.509  0.00  0.00    +0.000 C 
ATOM      6  C   UNL     1     -35.590  33.267   1.095  0.00  0.00    +0.002 C 
ATOM      7  C   UNL     1     -33.037  33.178   1.710  0.00  0.00    +0.110 C 
ATOM      8  C   UNL     1     -31.995  32.279   2.413  0.00  0.00    +0.029 C 
ATOM      9  C   UNL     1     -31.220  29.385   3.849  0.00  0.00    +0.005 C 
ATOM     10  C   UNL     1     -36.230  31.222   2.319  0.00  0.00    +0.000 C 
ATOM     11  C   UNL     1     -33.553  29.414   2.816  0.00  0.00    +0.110 C 
ATOM     12  C   UNL     1     -36.772  32.312   1.375  0.00  0.00    +0.000 C 
ATOM     13  C   UNL     1     -32.536  28.622   3.634  0.00  0.00    +0.029 C 
ATOM     14  C   UNL     1     -31.912  30.603   5.993  0.00  0.00    +0.002 C 
ATOM     15  C   UNL     1     -34.049  31.451   0.197  0.00  0.00    +0.002 C 
ATOM     16  C   UNL     1     -30.220  28.499   4.625  0.00  0.00    +0.029 C 
ATOM     17  C   UNL     1     -30.105  31.556   4.535  0.00  0.00    +0.000 C 
ATOM     18  C   UNL     1     -31.482  29.309   6.689  0.00  0.00    +0.029 C 
ATOM     19  C   UNL     1     -30.200  28.706   6.142  0.00  0.00    +0.111 C 
ENDROOT
BRANCH   7  20
ATOM     20  O   UNL     1     -33.319  34.290   2.560  0.00  0.00    -0.384 OA
ATOM     21  H   UNL     1     -33.183  34.031   3.486  0.00  0.00    +0.210 HD
ENDBRANCH   7  20
BRANCH  11  22
ATOM     22  O   UNL     1     -34.756  28.648   2.773  0.00  0.00    -0.384 OA
ATOM     23  H   UNL     1     -35.513  29.223   2.962  0.00  0.00    +0.210 HD
ENDBRANCH  11  22
BRANCH  19  24
ATOM     24  O   UNL     1     -29.973  27.456   6.791  0.00  0.00    -0.384 OA
ATOM     25  H   UNL     1     -30.085  26.734   6.152  0.00  0.00    +0.210 HD
ENDBRANCH  19  24
BRANCH   6  26
ATOM     26  C   UNL     1     -35.674  33.928  -0.274  0.00  0.00    +0.000 C 
ATOM     27  C   UNL     1     -35.313  35.413  -0.162  0.00  0.00    +0.000 C 
BRANCH  26  28
ATOM     28  C   UNL     1     -37.068  33.782  -0.921  0.00  0.00    +0.003 C 
BRANCH  28  29
ATOM     29  C   UNL     1     -37.967  35.010  -0.708  0.00  0.00    +0.032 C 
BRANCH  29  30
ATOM     30  C   UNL     1     -39.346  34.622  -0.150  0.00  0.00    +0.135 C 
BRANCH  30  31
ATOM     31  C   UNL     1     -39.630  35.130   1.287  0.00  0.00    +0.113 C 
ATOM     32  C   UNL     1     -40.928  35.933   1.396  0.00  0.00    +0.032 C 
ATOM     33  C   UNL     1     -38.463  35.940   1.860  0.00  0.00    +0.032 C 
BRANCH  31  34
ATOM     34  O   UNL     1     -39.795  33.977   2.127  0.00  0.00    -0.384 OA
ATOM     35  H   UNL     1     -38.925  33.656   2.411  0.00  0.00    +0.210 HD
ENDBRANCH  31  34
ENDBRANCH  30  31
BRANCH  30  36
ATOM     36  O   UNL     1     -40.344  35.137  -1.038  0.00  0.00    -0.382 OA
ATOM     37  H   UNL     1     -40.983  35.665  -0.533  0.00  0.00    +0.210 HD
ENDBRANCH  30  36
ENDBRANCH  29  30
ENDBRANCH  28  29
ENDBRANCH  26  28
ENDBRANCH   6  26
TORSDOF 10
ENDMDL
MODEL 9
REMARK VINA RESULT:      -6.3      4.581      7.650
REMARK  Name = 57351177
REMARK  10 active torsions:
REMARK  status: ('A' for Active; 'I' for Inactive)
REMARK    1  A    between atoms: C_6  and  C_26
REMARK    2  A    between atoms: C_7  and  O_20
REMARK    3  A    between atoms: C_11  and  O_22
REMARK    4  A    between atoms: C_19  and  O_24
REMARK    5  A    between atoms: C_26  and  C_28
REMARK    6  A    between atoms: C_28  and  C_29
REMARK    7  A    between atoms: C_29  and  C_30
REMARK    8  A    between atoms: C_30  and  C_31
REMARK    9  A    between atoms: C_30  and  O_36
REMARK   10  A    between atoms: C_31  and  O_34
REMARK                            x       y       z     vdW  Elec       q    Type
REMARK                         _______ _______ _______ _____ _____    ______ ____
ROOT
ATOM      1  C   UNL     1     -35.606  23.500   1.649  0.00  0.00    +0.025 C 
ATOM      2  C   UNL     1     -35.117  22.323   2.531  0.00  0.00    +0.005 C 
ATOM      3  C   UNL     1     -34.825  20.981   1.825  0.00  0.00    +0.027 C 
ATOM      4  C   UNL     1     -33.816  21.243   0.657  0.00  0.00    +0.005 C 
ATOM      5  C   UNL     1     -33.417  19.924  -0.119  0.00  0.00    +0.000 C 
ATOM      6  C   UNL     1     -35.639  24.604   2.749  0.00  0.00    +0.002 C 
ATOM      7  C   UNL     1     -34.593  23.717   0.507  0.00  0.00    +0.110 C 
ATOM      8  C   UNL     1     -34.312  22.404  -0.257  0.00  0.00    +0.029 C 
ATOM      9  C   UNL     1     -34.677  19.112  -0.517  0.00  0.00    +0.005 C 
ATOM     10  C   UNL     1     -36.022  22.386   3.760  0.00  0.00    +0.000 C 
ATOM     11  C   UNL     1     -36.030  20.137   1.388  0.00  0.00    +0.110 C 
ATOM     12  C   UNL     1     -36.259  23.893   3.973  0.00  0.00    +0.000 C 
ATOM     13  C   UNL     1     -35.604  18.854   0.680  0.00  0.00    +0.029 C 
ATOM     14  C   UNL     1     -32.470  19.063   0.781  0.00  0.00    +0.002 C 
ATOM     15  C   UNL     1     -37.015  23.325   1.032  0.00  0.00    +0.002 C 
ATOM     16  C   UNL     1     -34.342  17.778  -1.219  0.00  0.00    +0.029 C 
ATOM     17  C   UNL     1     -32.618  20.300  -1.397  0.00  0.00    +0.000 C 
ATOM     18  C   UNL     1     -32.571  17.546   0.602  0.00  0.00    +0.029 C 
ATOM     19  C   UNL     1     -33.035  17.113  -0.777  0.00  0.00    +0.111 C 
ENDROOT
BRANCH   7  20
ATOM     20  O   UNL     1     -33.356  24.212   1.022  0.00  0.00    -0.384 OA
ATOM     21  H   UNL     1     -32.709  24.276   0.301  0.00  0.00    +0.210 HD
ENDBRANCH   7  20
BRANCH  11  22
ATOM     22  O   UNL     1     -36.798  19.761   2.530  0.00  0.00    -0.384 OA
ATOM     23  H   UNL     1     -36.524  20.292   3.293  0.00  0.00    +0.210 HD
ENDBRANCH  11  22
BRANCH  19  24
ATOM     24  O   UNL     1     -33.197  15.696  -0.779  0.00  0.00    -0.384 OA
ATOM     25  H   UNL     1     -34.023  15.465  -1.232  0.00  0.00    +0.210 HD
ENDBRANCH  19  24
BRANCH   6  26
ATOM     26  C   UNL     1     -36.345  25.908   2.402  0.00  0.00    +0.000 C 
ATOM     27  C   UNL     1     -35.438  27.098   2.731  0.00  0.00    +0.000 C 
BRANCH  26  28
ATOM     28  C   UNL     1     -37.694  26.067   3.133  0.00  0.00    +0.003 C 
BRANCH  28  29
ATOM     29  C   UNL     1     -38.871  26.344   2.184  0.00  0.00    +0.032 C 
BRANCH  29  30
ATOM     30  C   UNL     1     -40.142  25.591   2.611  0.00  0.00    +0.135 C 
BRANCH  30  31
ATOM     31  C   UNL     1     -40.835  24.795   1.477  0.00  0.00    +0.113 C 
ATOM     32  C   UNL     1     -40.172  24.991   0.111  0.00  0.00    +0.032 C 
ATOM     33  C   UNL     1     -42.332  25.102   1.380  0.00  0.00    +0.032 C 
BRANCH  31  34
ATOM     34  O   UNL     1     -40.711  23.400   1.791  0.00  0.00    -0.384 OA
ATOM     35  H   UNL     1     -40.922  22.871   1.005  0.00  0.00    +0.210 HD
ENDBRANCH  31  34
ENDBRANCH  30  31
BRANCH  30  36
ATOM     36  O   UNL     1     -39.790  24.694   3.671  0.00  0.00    -0.382 OA
ATOM     37  H   UNL     1     -40.590  24.448   4.164  0.00  0.00    +0.210 HD
ENDBRANCH  30  36
ENDBRANCH  29  30
ENDBRANCH  28  29
ENDBRANCH  26  28
ENDBRANCH   6  26
TORSDOF 10
ENDMDL
