MODEL 1
REMARK VINA RESULT:      -7.5      0.000      0.000
REMARK  Name = 53306996
REMARK  4 active torsions:
REMARK  status: ('A' for Active; 'I' for Inactive)
REMARK    1  A    between atoms: C_15  and  O_27
REMARK    2  A    between atoms: C_21  and  O_29
REMARK    3  A    between atoms: C_25  and  C_31
REMARK    4  A    between atoms: C_31  and  O_33
REMARK                            x       y       z     vdW  Elec       q    Type
REMARK                         _______ _______ _______ _____ _____    ______ ____
ROOT
ATOM      1  O   UNL     1     -34.711  23.063   2.684  0.00  0.00    -0.327 OA
ATOM      2  O   UNL     1     -38.348  21.312   1.754  0.00  0.00    -0.454 OA
ATOM      3  O   UNL     1     -36.176  24.943   2.937  0.00  0.00    -0.459 OA
ATOM      4  O   UNL     1     -40.615  21.113   1.457  0.00  0.00    -0.247 OA
ATOM      5  O   UNL     1     -33.413  30.134   2.700  0.00  0.00    -0.442 OA
ATOM      6  O   UNL     1     -31.934  29.598   4.397  0.00  0.00    -0.245 OA
ATOM      7  C   UNL     1     -37.380  22.389   1.764  0.00  0.00    +0.147 C 
ATOM      8  C   UNL     1     -35.815  23.629   3.413  0.00  0.00    +0.232 C 
ATOM      9  C   UNL     1     -37.064  22.733   3.236  0.00  0.00    +0.110 C 
ATOM     10  C   UNL     1     -36.102  21.897   1.081  0.00  0.00    +0.070 C 
ATOM     11  C   UNL     1     -35.409  23.733   4.911  0.00  0.00    +0.069 C 
ATOM     12  C   UNL     1     -38.086  23.488   0.974  0.00  0.00    +0.081 C 
ATOM     13  C   UNL     1     -34.953  22.880   1.288  0.00  0.00    +0.122 C 
ATOM     14  C   UNL     1     -34.172  24.639   5.040  0.00  0.00    +0.039 C 
ATOM     15  C   UNL     1     -39.536  23.290   1.356  0.00  0.00    +0.213 C 
ATOM     16  C   UNL     1     -34.315  25.880   4.208  0.00  0.00    +0.046 C 
ATOM     17  C   UNL     1     -35.103  22.393   5.588  0.00  0.00    +0.007 C 
ATOM     18  C   UNL     1     -35.297  25.959   3.204  0.00  0.00    +0.140 C 
ATOM     19  C   UNL     1     -39.607  21.797   1.519  0.00  0.00    +0.344 C 
ATOM     20  C   UNL     1     -33.667  22.353   0.667  0.00  0.00    +0.032 C 
ATOM     21  C   UNL     1     -33.450  26.962   4.418  0.00  0.00    +0.139 C 
ATOM     22  C   UNL     1     -35.452  27.119   2.434  0.00  0.00    +0.036 C 
ATOM     23  C   UNL     1     -34.596  28.181   2.665  0.00  0.00    +0.032 C 
ATOM     24  C   UNL     1     -33.619  28.088   3.633  0.00  0.00    +0.109 C 
ATOM     25  C   UNL     1     -34.519  29.501   2.002  0.00  0.00    +0.218 C 
ATOM     26  C   UNL     1     -32.864  29.329   3.664  0.00  0.00    +0.344 C 
ENDROOT
BRANCH  15  27
ATOM     27  O   UNL     1     -40.428  23.765   0.382  0.00  0.00    -0.374 OA
ATOM     28  H   UNL     1     -41.261  24.026   0.806  0.00  0.00    +0.211 HD
ENDBRANCH  15  27
BRANCH  21  29
ATOM     29  O   UNL     1     -32.474  26.910   5.362  0.00  0.00    -0.506 OA
ATOM     30  H   UNL     1     -32.436  26.188   5.958  0.00  0.00    +0.292 HD
ENDBRANCH  21  29
BRANCH  25  31
ATOM     31  C   UNL     1     -35.763  30.353   2.170  0.00  0.00    +0.155 C 
ATOM     32  C   UNL     1     -35.756  31.563   1.246  0.00  0.00    +0.036 C 
BRANCH  31  33
ATOM     33  O   UNL     1     -35.850  30.801   3.521  0.00  0.00    -0.380 OA
ATOM     34  H   UNL     1     -36.782  30.884   3.775  0.00  0.00    +0.211 HD
ENDBRANCH  31  33
ENDBRANCH  25  31
TORSDOF 4
ENDMDL
MODEL 2
REMARK VINA RESULT:      -7.3      2.999      5.124
REMARK  Name = 53306996
REMARK  4 active torsions:
REMARK  status: ('A' for Active; 'I' for Inactive)
REMARK    1  A    between atoms: C_15  and  O_27
REMARK    2  A    between atoms: C_21  and  O_29
REMARK    3  A    between atoms: C_25  and  C_31
REMARK    4  A    between atoms: C_31  and  O_33
REMARK                            x       y       z     vdW  Elec       q    Type
REMARK                         _______ _______ _______ _____ _____    ______ ____
ROOT
ATOM      1  O   UNL     1     -32.489  27.745   2.757  0.00  0.00    -0.327 OA
ATOM      2  O   UNL     1     -34.322  24.519   4.600  0.00  0.00    -0.454 OA
ATOM      3  O   UNL     1     -34.515  28.773   3.520  0.00  0.00    -0.459 OA
ATOM      4  O   UNL     1     -35.881  23.344   5.807  0.00  0.00    -0.247 OA
ATOM      5  O   UNL     1     -35.824  33.776   0.711  0.00  0.00    -0.442 OA
ATOM      6  O   UNL     1     -33.786  34.761   1.194  0.00  0.00    -0.245 OA
ATOM      7  C   UNL     1     -34.298  25.738   3.819  0.00  0.00    +0.147 C 
ATOM      8  C   UNL     1     -33.284  28.120   3.896  0.00  0.00    +0.232 C 
ATOM      9  C   UNL     1     -33.678  26.852   4.690  0.00  0.00    +0.110 C 
ATOM     10  C   UNL     1     -33.409  25.510   2.594  0.00  0.00    +0.070 C 
ATOM     11  C   UNL     1     -32.448  29.094   4.775  0.00  0.00    +0.069 C 
ATOM     12  C   UNL     1     -35.767  25.936   3.454  0.00  0.00    +0.081 C 
ATOM     13  C   UNL     1     -33.124  26.822   1.869  0.00  0.00    +0.122 C 
ATOM     14  C   UNL     1     -32.088  30.341   3.949  0.00  0.00    +0.039 C 
ATOM     15  C   UNL     1     -36.485  25.411   4.677  0.00  0.00    +0.213 C 
ATOM     16  C   UNL     1     -33.273  30.846   3.180  0.00  0.00    +0.046 C 
ATOM     17  C   UNL     1     -31.156  28.497   5.343  0.00  0.00    +0.007 C 
ATOM     18  C   UNL     1     -34.410  30.037   3.002  0.00  0.00    +0.140 C 
ATOM     19  C   UNL     1     -35.572  24.298   5.111  0.00  0.00    +0.344 C 
ATOM     20  C   UNL     1     -32.184  26.601   0.693  0.00  0.00    +0.032 C 
ATOM     21  C   UNL     1     -33.239  32.128   2.614  0.00  0.00    +0.139 C 
ATOM     22  C   UNL     1     -35.528  30.505   2.302  0.00  0.00    +0.036 C 
ATOM     23  C   UNL     1     -35.481  31.777   1.762  0.00  0.00    +0.032 C 
ATOM     24  C   UNL     1     -34.355  32.556   1.917  0.00  0.00    +0.109 C 
ATOM     25  C   UNL     1     -36.492  32.513   0.971  0.00  0.00    +0.218 C 
ATOM     26  C   UNL     1     -34.567  33.832   1.254  0.00  0.00    +0.344 C 
ENDROOT
BRANCH  15  27
ATOM     27  O   UNL     1     -37.785  24.961   4.397  0.00  0.00    -0.374 OA
ATOM     28  H   UNL     1     -38.166  24.557   5.193  0.00  0.00    +0.211 HD
ENDBRANCH  15  27
BRANCH  21  29
ATOM     29  O   UNL     1     -32.148  32.927   2.745  0.00  0.00    -0.506 OA
ATOM     30  H   UNL     1     -31.295  32.589   2.558  0.00  0.00    +0.292 HD
ENDBRANCH  21  29
BRANCH  25  31
ATOM     31  C   UNL     1     -37.786  32.782   1.717  0.00  0.00    +0.155 C 
ATOM     32  C   UNL     1     -38.990  32.177   1.008  0.00  0.00    +0.036 C 
BRANCH  31  33
ATOM     33  O   UNL     1     -37.978  34.190   1.838  0.00  0.00    -0.380 OA
ATOM     34  H   UNL     1     -38.594  34.492   1.153  0.00  0.00    +0.211 HD
ENDBRANCH  31  33
ENDBRANCH  25  31
TORSDOF 4
ENDMDL
MODEL 3
REMARK VINA RESULT:      -7.1      3.561      7.721
REMARK  Name = 53306996
REMARK  4 active torsions:
REMARK  status: ('A' for Active; 'I' for Inactive)
REMARK    1  A    between atoms: C_15  and  O_27
REMARK    2  A    between atoms: C_21  and  O_29
REMARK    3  A    between atoms: C_25  and  C_31
REMARK    4  A    between atoms: C_31  and  O_33
REMARK                            x       y       z     vdW  Elec       q    Type
REMARK                         _______ _______ _______ _____ _____    ______ ____
ROOT
ATOM      1  O   UNL     1     -34.709  23.864   1.935  0.00  0.00    -0.327 OA
ATOM      2  O   UNL     1     -38.836  24.213   2.031  0.00  0.00    -0.454 OA
ATOM      3  O   UNL     1     -35.342  21.867   0.770  0.00  0.00    -0.459 OA
ATOM      4  O   UNL     1     -41.038  23.715   1.616  0.00  0.00    -0.247 OA
ATOM      5  O   UNL     1     -31.107  17.784   0.615  0.00  0.00    -0.442 OA
ATOM      6  O   UNL     1     -29.549  19.214  -0.324  0.00  0.00    -0.245 OA
ATOM      7  C   UNL     1     -37.585  23.487   2.074  0.00  0.00    +0.147 C 
ATOM      8  C   UNL     1     -35.352  23.311   0.772  0.00  0.00    +0.232 C 
ATOM      9  C   UNL     1     -36.837  23.746   0.748  0.00  0.00    +0.110 C 
ATOM     10  C   UNL     1     -36.748  24.032   3.233  0.00  0.00    +0.070 C 
ATOM     11  C   UNL     1     -34.599  23.819  -0.490  0.00  0.00    +0.069 C 
ATOM     12  C   UNL     1     -38.035  22.045   2.298  0.00  0.00    +0.081 C 
ATOM     13  C   UNL     1     -35.317  23.502   3.177  0.00  0.00    +0.122 C 
ATOM     14  C   UNL     1     -33.133  23.357  -0.427  0.00  0.00    +0.039 C 
ATOM     15  C   UNL     1     -39.335  21.981   1.526  0.00  0.00    +0.213 C 
ATOM     16  C   UNL     1     -33.032  21.917  -0.017  0.00  0.00    +0.046 C 
ATOM     17  C   UNL     1     -34.621  25.339  -0.682  0.00  0.00    +0.007 C 
ATOM     18  C   UNL     1     -34.133  21.259   0.563  0.00  0.00    +0.140 C 
ATOM     19  C   UNL     1     -39.871  23.373   1.719  0.00  0.00    +0.344 C 
ATOM     20  C   UNL     1     -34.470  24.102   4.291  0.00  0.00    +0.032 C 
ATOM     21  C   UNL     1     -31.826  21.226  -0.191  0.00  0.00    +0.139 C 
ATOM     22  C   UNL     1     -34.056  19.911   0.933  0.00  0.00    +0.036 C 
ATOM     23  C   UNL     1     -32.860  19.243   0.740  0.00  0.00    +0.032 C 
ATOM     24  C   UNL     1     -31.777  19.899   0.196  0.00  0.00    +0.109 C 
ATOM     25  C   UNL     1     -32.492  17.843   1.049  0.00  0.00    +0.218 C 
ATOM     26  C   UNL     1     -30.658  18.976   0.110  0.00  0.00    +0.344 C 
ENDROOT
BRANCH  15  27
ATOM     27  O   UNL     1     -40.211  20.997   2.010  0.00  0.00    -0.374 OA
ATOM     28  H   UNL     1     -39.966  20.135   1.638  0.00  0.00    +0.211 HD
ENDBRANCH  15  27
BRANCH  21  29
ATOM     29  O   UNL     1     -30.736  21.837  -0.725  0.00  0.00    -0.506 OA
ATOM     30  H   UNL     1     -30.023  22.091  -0.173  0.00  0.00    +0.292 HD
ENDBRANCH  21  29
BRANCH  25  31
ATOM     31  C   UNL     1     -33.295  16.808   0.283  0.00  0.00    +0.155 C 
ATOM     32  C   UNL     1     -32.451  15.600  -0.101  0.00  0.00    +0.036 C 
BRANCH  31  33
ATOM     33  O   UNL     1     -33.823  17.401  -0.901  0.00  0.00    -0.380 OA
ATOM     34  H   UNL     1     -33.095  17.632  -1.499  0.00  0.00    +0.211 HD
ENDBRANCH  31  33
ENDBRANCH  25  31
TORSDOF 4
ENDMDL
MODEL 4
REMARK VINA RESULT:      -7.0      2.675      7.599
REMARK  Name = 53306996
REMARK  4 active torsions:
REMARK  status: ('A' for Active; 'I' for Inactive)
REMARK    1  A    between atoms: C_15  and  O_27
REMARK    2  A    between atoms: C_21  and  O_29
REMARK    3  A    between atoms: C_25  and  C_31
REMARK    4  A    between atoms: C_31  and  O_33
REMARK                            x       y       z     vdW  Elec       q    Type
REMARK                         _______ _______ _______ _____ _____    ______ ____
ROOT
ATOM      1  O   UNL     1     -36.645  23.696   4.021  0.00  0.00    -0.327 OA
ATOM      2  O   UNL     1     -34.322  26.756   5.572  0.00  0.00    -0.454 OA
ATOM      3  O   UNL     1     -34.700  23.513   2.633  0.00  0.00    -0.459 OA
ATOM      4  O   UNL     1     -32.502  28.120   5.874  0.00  0.00    -0.247 OA
ATOM      5  O   UNL     1     -35.657  20.603  -2.392  0.00  0.00    -0.442 OA
ATOM      6  O   UNL     1     -36.485  18.724  -1.326  0.00  0.00    -0.245 OA
ATOM      7  C   UNL     1     -34.845  25.921   4.512  0.00  0.00    +0.147 C 
ATOM      8  C   UNL     1     -35.234  23.418   3.971  0.00  0.00    +0.232 C 
ATOM      9  C   UNL     1     -34.473  24.456   4.828  0.00  0.00    +0.110 C 
ATOM     10  C   UNL     1     -36.370  26.055   4.497  0.00  0.00    +0.070 C 
ATOM     11  C   UNL     1     -35.002  21.974   4.502  0.00  0.00    +0.069 C 
ATOM     12  C   UNL     1     -34.190  26.506   3.263  0.00  0.00    +0.081 C 
ATOM     13  C   UNL     1     -37.007  25.009   3.587  0.00  0.00    +0.122 C 
ATOM     14  C   UNL     1     -35.769  20.978   3.615  0.00  0.00    +0.039 C 
ATOM     15  C   UNL     1     -32.833  26.938   3.774  0.00  0.00    +0.213 C 
ATOM     16  C   UNL     1     -35.580  21.286   2.159  0.00  0.00    +0.046 C 
ATOM     17  C   UNL     1     -35.421  21.751   5.958  0.00  0.00    +0.007 C 
ATOM     18  C   UNL     1     -35.067  22.531   1.751  0.00  0.00    +0.140 C 
ATOM     19  C   UNL     1     -33.159  27.361   5.180  0.00  0.00    +0.344 C 
ATOM     20  C   UNL     1     -38.526  25.101   3.631  0.00  0.00    +0.032 C 
ATOM     21  C   UNL     1     -35.938  20.335   1.194  0.00  0.00    +0.139 C 
ATOM     22  C   UNL     1     -34.870  22.823   0.395  0.00  0.00    +0.036 C 
ATOM     23  C   UNL     1     -35.217  21.865  -0.541  0.00  0.00    +0.032 C 
ATOM     24  C   UNL     1     -35.743  20.657  -0.137  0.00  0.00    +0.109 C 
ATOM     25  C   UNL     1     -35.136  21.906  -2.017  0.00  0.00    +0.218 C 
ATOM     26  C   UNL     1     -36.022  19.846  -1.310  0.00  0.00    +0.344 C 
ENDROOT
BRANCH  15  27
ATOM     27  O   UNL     1     -32.270  27.978   3.018  0.00  0.00    -0.374 OA
ATOM     28  H   UNL     1     -32.826  28.152   2.242  0.00  0.00    +0.211 HD
ENDBRANCH  15  27
BRANCH  21  29
ATOM     29  O   UNL     1     -36.458  19.131   1.552  0.00  0.00    -0.506 OA
ATOM     30  H   UNL     1     -35.941  18.524   2.041  0.00  0.00    +0.292 HD
ENDBRANCH  21  29
BRANCH  25  31
ATOM     31  C   UNL     1     -33.725  22.049  -2.557  0.00  0.00    +0.155 C 
ATOM     32  C   UNL     1     -33.494  23.409  -3.201  0.00  0.00    +0.036 C 
BRANCH  31  33
ATOM     33  O   UNL     1     -33.484  21.030  -3.524  0.00  0.00    -0.380 OA
ATOM     34  H   UNL     1     -34.262  20.935  -4.095  0.00  0.00    +0.211 HD
ENDBRANCH  31  33
ENDBRANCH  25  31
TORSDOF 4
ENDMDL
MODEL 5
REMARK VINA RESULT:      -6.7      2.565      8.664
REMARK  Name = 53306996
REMARK  4 active torsions:
REMARK  status: ('A' for Active; 'I' for Inactive)
REMARK    1  A    between atoms: C_15  and  O_27
REMARK    2  A    between atoms: C_21  and  O_29
REMARK    3  A    between atoms: C_25  and  C_31
REMARK    4  A    between atoms: C_31  and  O_33
REMARK                            x       y       z     vdW  Elec       q    Type
REMARK                         _______ _______ _______ _____ _____    ______ ____
ROOT
ATOM      1  O   UNL     1     -31.961  29.308   2.221  0.00  0.00    -0.327 OA
ATOM      2  O   UNL     1     -29.016  30.488   4.885  0.00  0.00    -0.454 OA
ATOM      3  O   UNL     1     -32.645  28.113   4.183  0.00  0.00    -0.459 OA
ATOM      4  O   UNL     1     -27.876  30.687   6.867  0.00  0.00    -0.247 OA
ATOM      5  O   UNL     1     -36.237  23.590   3.056  0.00  0.00    -0.442 OA
ATOM      6  O   UNL     1     -37.771  24.893   1.916  0.00  0.00    -0.245 OA
ATOM      7  C   UNL     1     -29.947  29.548   4.298  0.00  0.00    +0.147 C 
ATOM      8  C   UNL     1     -32.431  29.406   3.578  0.00  0.00    +0.232 C 
ATOM      9  C   UNL     1     -31.369  30.131   4.440  0.00  0.00    +0.110 C 
ATOM     10  C   UNL     1     -29.614  29.402   2.811  0.00  0.00    +0.070 C 
ATOM     11  C   UNL     1     -33.776  30.186   3.573  0.00  0.00    +0.069 C 
ATOM     12  C   UNL     1     -29.683  28.269   5.090  0.00  0.00    +0.081 C 
ATOM     13  C   UNL     1     -30.708  28.635   2.074  0.00  0.00    +0.122 C 
ATOM     14  C   UNL     1     -34.801  29.426   2.714  0.00  0.00    +0.039 C 
ATOM     15  C   UNL     1     -29.353  28.797   6.469  0.00  0.00    +0.213 C 
ATOM     16  C   UNL     1     -34.781  27.956   3.014  0.00  0.00    +0.046 C 
ATOM     17  C   UNL     1     -33.681  31.626   3.058  0.00  0.00    +0.007 C 
ATOM     18  C   UNL     1     -33.707  27.384   3.720  0.00  0.00    +0.140 C 
ATOM     19  C   UNL     1     -28.650  30.085   6.141  0.00  0.00    +0.344 C 
ATOM     20  C   UNL     1     -30.407  28.554   0.584  0.00  0.00    +0.032 C 
ATOM     21  C   UNL     1     -35.831  27.141   2.569  0.00  0.00    +0.139 C 
ATOM     22  C   UNL     1     -33.688  26.017   4.022  0.00  0.00    +0.036 C 
ATOM     23  C   UNL     1     -34.739  25.231   3.585  0.00  0.00    +0.032 C 
ATOM     24  C   UNL     1     -35.776  25.793   2.872  0.00  0.00    +0.109 C 
ATOM     25  C   UNL     1     -34.970  23.778   3.742  0.00  0.00    +0.218 C 
ATOM     26  C   UNL     1     -36.736  24.755   2.535  0.00  0.00    +0.344 C 
ENDROOT
BRANCH  15  27
ATOM     27  O   UNL     1     -28.547  27.920   7.212  0.00  0.00    -0.374 OA
ATOM     28  H   UNL     1     -28.908  27.831   8.108  0.00  0.00    +0.211 HD
ENDBRANCH  15  27
BRANCH  21  29
ATOM     29  O   UNL     1     -36.872  27.657   1.864  0.00  0.00    -0.506 OA
ATOM     30  H   UNL     1     -36.716  28.298   1.200  0.00  0.00    +0.292 HD
ENDBRANCH  21  29
BRANCH  25  31
ATOM     31  C   UNL     1     -35.115  23.325   5.183  0.00  0.00    +0.155 C 
ATOM     32  C   UNL     1     -35.212  21.810   5.298  0.00  0.00    +0.036 C 
BRANCH  31  33
ATOM     33  O   UNL     1     -36.286  23.910   5.746  0.00  0.00    -0.380 OA
ATOM     34  H   UNL     1     -36.617  24.604   5.156  0.00  0.00    +0.211 HD
ENDBRANCH  31  33
ENDBRANCH  25  31
TORSDOF 4
ENDMDL
MODEL 6
REMARK VINA RESULT:      -6.7      2.552      5.632
REMARK  Name = 53306996
REMARK  4 active torsions:
REMARK  status: ('A' for Active; 'I' for Inactive)
REMARK    1  A    between atoms: C_15  and  O_27
REMARK    2  A    between atoms: C_21  and  O_29
REMARK    3  A    between atoms: C_25  and  C_31
REMARK    4  A    between atoms: C_31  and  O_33
REMARK                            x       y       z     vdW  Elec       q    Type
REMARK                         _______ _______ _______ _____ _____    ______ ____
ROOT
ATOM      1  O   UNL     1     -39.879  26.652   1.853  0.00  0.00    -0.327 OA
ATOM      2  O   UNL     1     -41.947  24.131  -0.703  0.00  0.00    -0.454 OA
ATOM      3  O   UNL     1     -38.360  24.801   1.745  0.00  0.00    -0.459 OA
ATOM      4  O   UNL     1     -42.380  22.300  -2.018  0.00  0.00    -0.247 OA
ATOM      5  O   UNL     1     -34.521  24.639   6.201  0.00  0.00    -0.442 OA
ATOM      6  O   UNL     1     -33.743  26.784   5.812  0.00  0.00    -0.245 OA
ATOM      7  C   UNL     1     -41.096  24.434   0.428  0.00  0.00    +0.147 C 
ATOM      8  C   UNL     1     -39.016  25.861   1.016  0.00  0.00    +0.232 C 
ATOM      9  C   UNL     1     -39.853  25.185  -0.096  0.00  0.00    +0.110 C 
ATOM     10  C   UNL     1     -41.867  25.350   1.381  0.00  0.00    +0.070 C 
ATOM     11  C   UNL     1     -37.932  26.798   0.410  0.00  0.00    +0.069 C 
ATOM     12  C   UNL     1     -40.822  23.057   1.027  0.00  0.00    +0.081 C 
ATOM     13  C   UNL     1     -40.949  25.923   2.458  0.00  0.00    +0.122 C 
ATOM     14  C   UNL     1     -37.121  27.438   1.549  0.00  0.00    +0.039 C 
ATOM     15  C   UNL     1     -40.774  22.168  -0.197  0.00  0.00    +0.213 C 
ATOM     16  C   UNL     1     -36.746  26.425   2.590  0.00  0.00    +0.046 C 
ATOM     17  C   UNL     1     -38.477  27.914  -0.487  0.00  0.00    +0.007 C 
ATOM     18  C   UNL     1     -37.389  25.174   2.634  0.00  0.00    +0.140 C 
ATOM     19  C   UNL     1     -41.787  22.828  -1.091  0.00  0.00    +0.344 C 
ATOM     20  C   UNL     1     -41.705  26.888   3.361  0.00  0.00    +0.032 C 
ATOM     21  C   UNL     1     -35.764  26.734   3.540  0.00  0.00    +0.139 C 
ATOM     22  C   UNL     1     -37.035  24.214   3.590  0.00  0.00    +0.036 C 
ATOM     23  C   UNL     1     -36.053  24.532   4.511  0.00  0.00    +0.032 C 
ATOM     24  C   UNL     1     -35.446  25.769   4.479  0.00  0.00    +0.109 C 
ATOM     25  C   UNL     1     -35.499  23.733   5.626  0.00  0.00    +0.218 C 
ATOM     26  C   UNL     1     -34.466  25.843   5.549  0.00  0.00    +0.344 C 
ENDROOT
BRANCH  15  27
ATOM     27  O   UNL     1     -41.096  20.832   0.085  0.00  0.00    -0.374 OA
ATOM     28  H   UNL     1     -42.046  20.760   0.268  0.00  0.00    +0.211 HD
ENDBRANCH  15  27
BRANCH  21  29
ATOM     29  O   UNL     1     -35.140  27.941   3.541  0.00  0.00    -0.506 OA
ATOM     30  H   UNL     1     -34.249  28.007   3.820  0.00  0.00    +0.292 HD
ENDBRANCH  21  29
BRANCH  25  31
ATOM     31  C   UNL     1     -34.798  22.460   5.187  0.00  0.00    +0.155 C 
ATOM     32  C   UNL     1     -35.527  21.772   4.042  0.00  0.00    +0.036 C 
BRANCH  31  33
ATOM     33  O   UNL     1     -34.714  21.563   6.292  0.00  0.00    -0.380 OA
ATOM     34  H   UNL     1     -33.923  21.011   6.201  0.00  0.00    +0.211 HD
ENDBRANCH  31  33
ENDBRANCH  25  31
TORSDOF 4
ENDMDL
MODEL 7
REMARK VINA RESULT:      -6.6      6.810      9.279
REMARK  Name = 53306996
REMARK  4 active torsions:
REMARK  status: ('A' for Active; 'I' for Inactive)
REMARK    1  A    between atoms: C_15  and  O_27
REMARK    2  A    between atoms: C_21  and  O_29
REMARK    3  A    between atoms: C_25  and  C_31
REMARK    4  A    between atoms: C_31  and  O_33
REMARK                            x       y       z     vdW  Elec       q    Type
REMARK                         _______ _______ _______ _____ _____    ______ ____
ROOT
ATOM      1  O   UNL     1     -42.872  26.651   0.640  0.00  0.00    -0.327 OA
ATOM      2  O   UNL     1     -39.189  24.775   0.932  0.00  0.00    -0.454 OA
ATOM      3  O   UNL     1     -41.904  27.873   2.460  0.00  0.00    -0.459 OA
ATOM      4  O   UNL     1     -37.058  24.344   1.667  0.00  0.00    -0.247 OA
ATOM      5  O   UNL     1     -45.863  30.702   5.769  0.00  0.00    -0.442 OA
ATOM      6  O   UNL     1     -46.773  31.846   3.976  0.00  0.00    -0.245 OA
ATOM      7  C   UNL     1     -40.371  25.424   1.459  0.00  0.00    +0.147 C 
ATOM      8  C   UNL     1     -41.817  27.535   1.059  0.00  0.00    +0.232 C 
ATOM      9  C   UNL     1     -40.449  26.841   0.853  0.00  0.00    +0.110 C 
ATOM     10  C   UNL     1     -41.599  24.625   1.018  0.00  0.00    +0.070 C 
ATOM     11  C   UNL     1     -41.914  28.842   0.221  0.00  0.00    +0.069 C 
ATOM     12  C   UNL     1     -40.144  25.371   2.968  0.00  0.00    +0.081 C 
ATOM     13  C   UNL     1     -42.888  25.388   1.310  0.00  0.00    +0.122 C 
ATOM     14  C   UNL     1     -43.283  29.500   0.465  0.00  0.00    +0.039 C 
ATOM     15  C   UNL     1     -38.643  25.527   3.082  0.00  0.00    +0.213 C 
ATOM     16  C   UNL     1     -43.632  29.512   1.924  0.00  0.00    +0.046 C 
ATOM     17  C   UNL     1     -41.727  28.652  -1.287  0.00  0.00    +0.007 C 
ATOM     18  C   UNL     1     -42.933  28.696   2.833  0.00  0.00    +0.140 C 
ATOM     19  C   UNL     1     -38.169  24.815   1.845  0.00  0.00    +0.344 C 
ATOM     20  C   UNL     1     -44.102  24.620   0.805  0.00  0.00    +0.032 C 
ATOM     21  C   UNL     1     -44.677  30.324   2.384  0.00  0.00    +0.139 C 
ATOM     22  C   UNL     1     -43.237  28.712   4.200  0.00  0.00    +0.036 C 
ATOM     23  C   UNL     1     -44.263  29.531   4.636  0.00  0.00    +0.032 C 
ATOM     24  C   UNL     1     -44.962  30.308   3.737  0.00  0.00    +0.109 C 
ATOM     25  C   UNL     1     -44.806  29.733   5.998  0.00  0.00    +0.218 C 
ATOM     26  C   UNL     1     -45.980  31.060   4.452  0.00  0.00    +0.344 C 
ENDROOT
BRANCH  15  27
ATOM     27  O   UNL     1     -38.122  24.963   4.257  0.00  0.00    -0.374 OA
ATOM     28  H   UNL     1     -37.275  25.385   4.469  0.00  0.00    +0.211 HD
ENDBRANCH  15  27
BRANCH  21  29
ATOM     29  O   UNL     1     -45.389  31.105   1.530  0.00  0.00    -0.506 OA
ATOM     30  H   UNL     1     -45.109  31.204   0.642  0.00  0.00    +0.292 HD
ENDBRANCH  21  29
BRANCH  25  31
ATOM     31  C   UNL     1     -43.807  30.313   6.983  0.00  0.00    +0.155 C 
ATOM     32  C   UNL     1     -44.465  30.708   8.297  0.00  0.00    +0.036 C 
BRANCH  31  33
ATOM     33  O   UNL     1     -43.189  31.462   6.408  0.00  0.00    -0.380 OA
ATOM     34  H   UNL     1     -42.231  31.325   6.362  0.00  0.00    +0.211 HD
ENDBRANCH  31  33
ENDBRANCH  25  31
TORSDOF 4
ENDMDL
MODEL 8
REMARK VINA RESULT:      -6.5      3.517      5.693
REMARK  Name = 53306996
REMARK  4 active torsions:
REMARK  status: ('A' for Active; 'I' for Inactive)
REMARK    1  A    between atoms: C_15  and  O_27
REMARK    2  A    between atoms: C_21  and  O_29
REMARK    3  A    between atoms: C_25  and  C_31
REMARK    4  A    between atoms: C_31  and  O_33
REMARK                            x       y       z     vdW  Elec       q    Type
REMARK                         _______ _______ _______ _____ _____    ______ ____
ROOT
ATOM      1  O   UNL     1     -33.610  20.544  -0.157  0.00  0.00    -0.327 OA
ATOM      2  O   UNL     1     -34.288  21.582  -4.110  0.00  0.00    -0.454 OA
ATOM      3  O   UNL     1     -35.076  22.418   0.130  0.00  0.00    -0.459 OA
ATOM      4  O   UNL     1     -35.176  22.696  -5.910  0.00  0.00    -0.247 OA
ATOM      5  O   UNL     1     -34.817  24.811   5.500  0.00  0.00    -0.442 OA
ATOM      6  O   UNL     1     -35.281  22.818   6.579  0.00  0.00    -0.245 OA
ATOM      7  C   UNL     1     -34.077  21.856  -2.705  0.00  0.00    +0.147 C 
ATOM      8  C   UNL     1     -34.927  21.078  -0.385  0.00  0.00    +0.232 C 
ATOM      9  C   UNL     1     -35.196  21.154  -1.907  0.00  0.00    +0.110 C 
ATOM     10  C   UNL     1     -32.726  21.265  -2.294  0.00  0.00    +0.070 C 
ATOM     11  C   UNL     1     -35.958  20.152   0.321  0.00  0.00    +0.069 C 
ATOM     12  C   UNL     1     -34.094  23.382  -2.650  0.00  0.00    +0.081 C 
ATOM     13  C   UNL     1     -32.555  21.282  -0.778  0.00  0.00    +0.122 C 
ATOM     14  C   UNL     1     -35.657  20.115   1.829  0.00  0.00    +0.039 C 
ATOM     15  C   UNL     1     -35.108  23.739  -3.714  0.00  0.00    +0.213 C 
ATOM     16  C   UNL     1     -35.385  21.489   2.366  0.00  0.00    +0.046 C 
ATOM     17  C   UNL     1     -35.993  18.713  -0.204  0.00  0.00    +0.007 C 
ATOM     18  C   UNL     1     -35.104  22.556   1.493  0.00  0.00    +0.140 C 
ATOM     19  C   UNL     1     -34.882  22.650  -4.726  0.00  0.00    +0.344 C 
ATOM     20  C   UNL     1     -31.242  20.630  -0.370  0.00  0.00    +0.032 C 
ATOM     21  C   UNL     1     -35.390  21.710   3.750  0.00  0.00    +0.139 C 
ATOM     22  C   UNL     1     -34.866  23.847   1.981  0.00  0.00    +0.036 C 
ATOM     23  C   UNL     1     -34.889  24.047   3.350  0.00  0.00    +0.032 C 
ATOM     24  C   UNL     1     -35.140  22.993   4.202  0.00  0.00    +0.109 C 
ATOM     25  C   UNL     1     -34.660  25.279   4.135  0.00  0.00    +0.218 C 
ATOM     26  C   UNL     1     -35.100  23.472   5.573  0.00  0.00    +0.344 C 
ENDROOT
BRANCH  15  27
ATOM     27  O   UNL     1     -34.909  25.021  -4.251  0.00  0.00    -0.374 OA
ATOM     28  H   UNL     1     -34.029  25.067  -4.659  0.00  0.00    +0.211 HD
ENDBRANCH  15  27
BRANCH  21  29
ATOM     29  O   UNL     1     -35.635  20.697   4.623  0.00  0.00    -0.506 OA
ATOM     30  H   UNL     1     -35.513  19.808   4.355  0.00  0.00    +0.292 HD
ENDBRANCH  21  29
BRANCH  25  31
ATOM     31  C   UNL     1     -35.670  26.380   3.869  0.00  0.00    +0.155 C 
ATOM     32  C   UNL     1     -35.024  27.610   3.246  0.00  0.00    +0.036 C 
BRANCH  31  33
ATOM     33  O   UNL     1     -36.295  26.754   5.095  0.00  0.00    -0.380 OA
ATOM     34  H   UNL     1     -36.896  26.049   5.379  0.00  0.00    +0.211 HD
ENDBRANCH  31  33
ENDBRANCH  25  31
TORSDOF 4
ENDMDL
MODEL 9
REMARK VINA RESULT:      -6.5      7.153     10.473
REMARK  Name = 53306996
REMARK  4 active torsions:
REMARK  status: ('A' for Active; 'I' for Inactive)
REMARK    1  A    between atoms: C_15  and  O_27
REMARK    2  A    between atoms: C_21  and  O_29
REMARK    3  A    between atoms: C_25  and  C_31
REMARK    4  A    between atoms: C_31  and  O_33
REMARK                            x       y       z     vdW  Elec       q    Type
REMARK                         _______ _______ _______ _____ _____    ______ ____
ROOT
ATOM      1  O   UNL     1     -45.676  28.486   2.924  0.00  0.00    -0.327 OA
ATOM      2  O   UNL     1     -46.342  30.304   6.587  0.00  0.00    -0.454 OA
ATOM      3  O   UNL     1     -43.909  27.515   4.220  0.00  0.00    -0.459 OA
ATOM      4  O   UNL     1     -46.084  30.791   8.815  0.00  0.00    -0.247 OA
ATOM      5  O   UNL     1     -39.553  25.273   0.959  0.00  0.00    -0.442 OA
ATOM      6  O   UNL     1     -40.964  23.905  -0.262  0.00  0.00    -0.245 OA
ATOM      7  C   UNL     1     -45.518  29.763   5.527  0.00  0.00    +0.147 C 
ATOM      8  C   UNL     1     -45.336  27.648   4.043  0.00  0.00    +0.232 C 
ATOM      9  C   UNL     1     -45.889  28.275   5.345  0.00  0.00    +0.110 C 
ATOM     10  C   UNL     1     -45.836  30.517   4.234  0.00  0.00    +0.070 C 
ATOM     11  C   UNL     1     -45.944  26.237   3.800  0.00  0.00    +0.069 C 
ATOM     12  C   UNL     1     -44.101  30.027   6.030  0.00  0.00    +0.081 C 
ATOM     13  C   UNL     1     -45.205  29.831   3.025  0.00  0.00    +0.122 C 
ATOM     14  C   UNL     1     -45.359  25.650   2.503  0.00  0.00    +0.039 C 
ATOM     15  C   UNL     1     -44.245  29.856   7.526  0.00  0.00    +0.213 C 
ATOM     16  C   UNL     1     -43.875  25.855   2.432  0.00  0.00    +0.046 C 
ATOM     17  C   UNL     1     -47.472  26.205   3.702  0.00  0.00    +0.007 C 
ATOM     18  C   UNL     1     -43.238  26.776   3.283  0.00  0.00    +0.140 C 
ATOM     19  C   UNL     1     -45.638  30.374   7.758  0.00  0.00    +0.344 C 
ATOM     20  C   UNL     1     -45.582  30.545   1.735  0.00  0.00    +0.032 C 
ATOM     21  C   UNL     1     -43.118  25.139   1.494  0.00  0.00    +0.139 C 
ATOM     22  C   UNL     1     -41.850  26.962   3.237  0.00  0.00    +0.036 C 
ATOM     23  C   UNL     1     -41.119  26.237   2.314  0.00  0.00    +0.032 C 
ATOM     24  C   UNL     1     -41.752  25.354   1.465  0.00  0.00    +0.109 C 
ATOM     25  C   UNL     1     -39.666  26.242   2.035  0.00  0.00    +0.218 C 
ATOM     26  C   UNL     1     -40.761  24.734   0.602  0.00  0.00    +0.344 C 
ENDROOT
BRANCH  15  27
ATOM     27  O   UNL     1     -43.279  30.571   8.253  0.00  0.00    -0.374 OA
ATOM     28  H   UNL     1     -43.434  31.523   8.147  0.00  0.00    +0.211 HD
ENDBRANCH  15  27
BRANCH  21  29
ATOM     29  O   UNL     1     -43.704  24.259   0.641  0.00  0.00    -0.506 OA
ATOM     30  H   UNL     1     -44.328  23.639   0.962  0.00  0.00    +0.292 HD
ENDBRANCH  21  29
BRANCH  25  31
ATOM     31  C   UNL     1     -38.809  25.788   3.203  0.00  0.00    +0.155 C 
ATOM     32  C   UNL     1     -37.441  25.296   2.750  0.00  0.00    +0.036 C 
BRANCH  31  33
ATOM     33  O   UNL     1     -39.475  24.736   3.896  0.00  0.00    -0.380 OA
ATOM     34  H   UNL     1     -40.234  24.434   3.374  0.00  0.00    +0.211 HD
ENDBRANCH  31  33
ENDBRANCH  25  31
TORSDOF 4
ENDMDL
