MODEL 1
REMARK VINA RESULT:      -6.7      0.000      0.000
REMARK  Name = 5281476
REMARK  7 active torsions:
REMARK  status: ('A' for Active; 'I' for Inactive)
REMARK    1  A    between atoms: C_6  and  O_21
REMARK    2  A    between atoms: C_9  and  O_19
REMARK    3  A    between atoms: O_21  and  C_23
REMARK    4  A    between atoms: C_23  and  C_24
REMARK    5  A    between atoms: C_24  and  C_27
REMARK    6  A    between atoms: C_27  and  O_28
REMARK    7  A    between atoms: O_28  and  C_30
REMARK                            x       y       z     vdW  Elec       q    Type
REMARK                         _______ _______ _______ _____ _____    ______ ____
ROOT
ATOM      1  O   UNL     1     -34.577  24.625   4.029  0.00  0.00    -0.329 OA
ATOM      2  O   UNL     1     -37.490  27.320   1.640  0.00  0.00    -0.444 OA
ATOM      3  O   UNL     1     -38.412  27.235  -0.458  0.00  0.00    -0.245 OA
ATOM      4  C   UNL     1     -35.640  23.846   4.623  0.00  0.00    +0.117 C 
ATOM      5  C   UNL     1     -36.522  25.123   1.791  0.00  0.00    +0.113 C 
ATOM      6  C   UNL     1     -37.287  23.987   2.514  0.00  0.00    +0.180 C 
ATOM      7  C   UNL     1     -36.445  23.151   3.504  0.00  0.00    +0.076 C 
ATOM      8  C   UNL     1     -36.634  26.496   2.468  0.00  0.00    +0.198 C 
ATOM      9  C   UNL     1     -34.515  25.910   4.695  0.00  0.00    +0.220 C 
ATOM     10  C   UNL     1     -36.397  24.806   5.477  0.00  0.00    +0.001 C 
ATOM     11  C   UNL     1     -37.108  25.422   0.448  0.00  0.00    +0.060 C 
ATOM     12  C   UNL     1     -34.411  26.993   3.624  0.00  0.00    +0.010 C 
ATOM     13  C   UNL     1     -35.321  27.209   2.649  0.00  0.00    +0.014 C 
ATOM     14  C   UNL     1     -34.976  22.776   5.505  0.00  0.00    +0.034 C 
ATOM     15  C   UNL     1     -35.755  25.974   5.529  0.00  0.00    +0.031 C 
ATOM     16  C   UNL     1     -37.757  26.741   0.441  0.00  0.00    +0.338 C 
ATOM     17  C   UNL     1     -33.161  27.842   3.639  0.00  0.00    +0.031 C 
ATOM     18  C   UNL     1     -37.049  24.672  -0.657  0.00  0.00    +0.002 C 
ENDROOT
BRANCH   9  19
ATOM     19  O   UNL     1     -33.371  25.948   5.553  0.00  0.00    -0.358 OA
ATOM     20  H   UNL     1     -33.659  26.068   6.471  0.00  0.00    +0.213 HD
ENDBRANCH   9  19
BRANCH   6  21
ATOM     21  O   UNL     1     -38.458  24.483   3.159  0.00  0.00    -0.449 OA
BRANCH  21  23
ATOM     22  O   UNL     1     -39.946  22.880   2.441  0.00  0.00    -0.245 OA
ATOM     23  C   UNL     1     -39.647  24.047   2.651  0.00  0.00    +0.340 C 
BRANCH  23  24
ATOM     24  C   UNL     1     -40.545  25.214   2.391  0.00  0.00    +0.093 C 
ATOM     25  C   UNL     1     -41.008  25.326   1.132  0.00  0.00    -0.020 C 
ATOM     26  C   UNL     1     -40.722  24.413  -0.019  0.00  0.00    +0.031 C 
BRANCH  24  27
ATOM     27  C   UNL     1     -40.811  26.189   3.502  0.00  0.00    +0.241 C 
BRANCH  27  28
ATOM     28  O   UNL     1     -41.617  27.252   3.013  0.00  0.00    -0.443 OA
BRANCH  28  30
ATOM     29  O   UNL     1     -42.036  28.822   4.655  0.00  0.00    -0.250 OA
ATOM     30  C   UNL     1     -42.389  27.891   3.943  0.00  0.00    +0.318 C 
ATOM     31  C   UNL     1     -43.761  27.286   3.972  0.00  0.00    +0.121 C 
ENDBRANCH  28  30
ENDBRANCH  27  28
ENDBRANCH  24  27
ENDBRANCH  23  24
ENDBRANCH  21  23
ENDBRANCH   6  21
TORSDOF 7
ENDMDL
MODEL 2
REMARK VINA RESULT:      -6.5      3.009      7.183
REMARK  Name = 5281476
REMARK  7 active torsions:
REMARK  status: ('A' for Active; 'I' for Inactive)
REMARK    1  A    between atoms: C_6  and  O_21
REMARK    2  A    between atoms: C_9  and  O_19
REMARK    3  A    between atoms: O_21  and  C_23
REMARK    4  A    between atoms: C_23  and  C_24
REMARK    5  A    between atoms: C_24  and  C_27
REMARK    6  A    between atoms: C_27  and  O_28
REMARK    7  A    between atoms: O_28  and  C_30
REMARK                            x       y       z     vdW  Elec       q    Type
REMARK                         _______ _______ _______ _____ _____    ______ ____
ROOT
ATOM      1  O   UNL     1     -38.982  22.645  -0.222  0.00  0.00    -0.329 OA
ATOM      2  O   UNL     1     -36.058  19.679   1.806  0.00  0.00    -0.444 OA
ATOM      3  O   UNL     1     -33.776  19.467   1.887  0.00  0.00    -0.245 OA
ATOM      4  C   UNL     1     -39.028  23.525   0.925  0.00  0.00    +0.117 C 
ATOM      5  C   UNL     1     -36.267  21.854   0.802  0.00  0.00    +0.113 C 
ATOM      6  C   UNL     1     -36.496  23.101   1.691  0.00  0.00    +0.180 C 
ATOM      7  C   UNL     1     -37.609  24.060   1.211  0.00  0.00    +0.076 C 
ATOM      8  C   UNL     1     -37.028  20.601   1.254  0.00  0.00    +0.198 C 
ATOM      9  C   UNL     1     -39.786  21.473   0.060  0.00  0.00    +0.220 C 
ATOM     10  C   UNL     1     -39.658  22.718   2.011  0.00  0.00    +0.001 C 
ATOM     11  C   UNL     1     -34.854  21.369   0.876  0.00  0.00    +0.060 C 
ATOM     12  C   UNL     1     -38.984  20.240  -0.349  0.00  0.00    +0.010 C 
ATOM     13  C   UNL     1     -37.778  19.898   0.155  0.00  0.00    +0.014 C 
ATOM     14  C   UNL     1     -39.945  24.701   0.552  0.00  0.00    +0.034 C 
ATOM     15  C   UNL     1     -40.098  21.559   1.519  0.00  0.00    +0.031 C 
ATOM     16  C   UNL     1     -34.781  20.077   1.572  0.00  0.00    +0.338 C 
ATOM     17  C   UNL     1     -39.576  19.379  -1.441  0.00  0.00    +0.031 C 
ATOM     18  C   UNL     1     -33.762  21.944   0.361  0.00  0.00    +0.002 C 
ENDROOT
BRANCH   9  19
ATOM     19  O   UNL     1     -41.006  21.542  -0.686  0.00  0.00    -0.358 OA
ATOM     20  H   UNL     1     -40.805  21.545  -1.634  0.00  0.00    +0.213 HD
ENDBRANCH   9  19
BRANCH   6  21
ATOM     21  O   UNL     1     -36.718  22.730   3.051  0.00  0.00    -0.449 OA
BRANCH  21  23
ATOM     22  O   UNL     1     -37.338  24.427   4.477  0.00  0.00    -0.245 OA
ATOM     23  C   UNL     1     -36.488  23.704   3.978  0.00  0.00    +0.340 C 
BRANCH  23  24
ATOM     24  C   UNL     1     -35.029  23.757   4.305  0.00  0.00    +0.093 C 
ATOM     25  C   UNL     1     -34.637  23.005   5.351  0.00  0.00    -0.020 C 
ATOM     26  C   UNL     1     -35.499  22.131   6.207  0.00  0.00    +0.031 C 
BRANCH  24  27
ATOM     27  C   UNL     1     -34.137  24.666   3.510  0.00  0.00    +0.241 C 
BRANCH  27  28
ATOM     28  O   UNL     1     -33.273  25.368   4.392  0.00  0.00    -0.443 OA
BRANCH  28  30
ATOM     29  O   UNL     1     -34.396  27.387   4.369  0.00  0.00    -0.250 OA
ATOM     30  C   UNL     1     -33.789  26.501   4.957  0.00  0.00    +0.318 C 
ATOM     31  C   UNL     1     -33.506  26.514   6.429  0.00  0.00    +0.121 C 
ENDBRANCH  28  30
ENDBRANCH  27  28
ENDBRANCH  24  27
ENDBRANCH  23  24
ENDBRANCH  21  23
ENDBRANCH   6  21
TORSDOF 7
ENDMDL
MODEL 3
REMARK VINA RESULT:      -6.3      2.950      5.966
REMARK  Name = 5281476
REMARK  7 active torsions:
REMARK  status: ('A' for Active; 'I' for Inactive)
REMARK    1  A    between atoms: C_6  and  O_21
REMARK    2  A    between atoms: C_9  and  O_19
REMARK    3  A    between atoms: O_21  and  C_23
REMARK    4  A    between atoms: C_23  and  C_24
REMARK    5  A    between atoms: C_24  and  C_27
REMARK    6  A    between atoms: C_27  and  O_28
REMARK    7  A    between atoms: O_28  and  C_30
REMARK                            x       y       z     vdW  Elec       q    Type
REMARK                         _______ _______ _______ _____ _____    ______ ____
ROOT
ATOM      1  O   UNL     1     -35.731  24.284   2.603  0.00  0.00    -0.329 OA
ATOM      2  O   UNL     1     -33.637  27.224   5.505  0.00  0.00    -0.444 OA
ATOM      3  O   UNL     1     -31.675  28.412   5.460  0.00  0.00    -0.245 OA
ATOM      4  C   UNL     1     -36.479  25.328   1.940  0.00  0.00    +0.117 C 
ATOM      5  C   UNL     1     -33.739  26.448   3.231  0.00  0.00    +0.113 C 
ATOM      6  C   UNL     1     -34.590  27.212   2.188  0.00  0.00    +0.180 C 
ATOM      7  C   UNL     1     -35.495  26.329   1.298  0.00  0.00    +0.076 C 
ATOM      8  C   UNL     1     -34.378  26.348   4.623  0.00  0.00    +0.198 C 
ATOM      9  C   UNL     1     -36.339  24.022   3.890  0.00  0.00    +0.220 C 
ATOM     10  C   UNL     1     -37.389  25.880   2.986  0.00  0.00    +0.001 C 
ATOM     11  C   UNL     1     -32.470  27.172   3.553  0.00  0.00    +0.060 C 
ATOM     12  C   UNL     1     -35.227  23.959   4.935  0.00  0.00    +0.010 C 
ATOM     13  C   UNL     1     -34.368  24.963   5.214  0.00  0.00    +0.014 C 
ATOM     14  C   UNL     1     -37.306  24.655   0.833  0.00  0.00    +0.034 C 
ATOM     15  C   UNL     1     -37.319  25.133   4.089  0.00  0.00    +0.031 C 
ATOM     16  C   UNL     1     -32.501  27.694   4.927  0.00  0.00    +0.338 C 
ATOM     17  C   UNL     1     -35.056  22.646   5.663  0.00  0.00    +0.031 C 
ATOM     18  C   UNL     1     -31.393  27.323   2.777  0.00  0.00    +0.002 C 
ENDROOT
BRANCH   9  19
ATOM     19  O   UNL     1     -37.044  22.778   3.840  0.00  0.00    -0.358 OA
ATOM     20  H   UNL     1     -37.255  22.563   2.919  0.00  0.00    +0.213 HD
ENDBRANCH   9  19
BRANCH   6  21
ATOM     21  O   UNL     1     -35.360  28.242   2.805  0.00  0.00    -0.449 OA
BRANCH  21  23
ATOM     22  O   UNL     1     -34.223  30.128   3.473  0.00  0.00    -0.245 OA
ATOM     23  C   UNL     1     -34.887  29.512   2.652  0.00  0.00    +0.340 C 
BRANCH  23  24
ATOM     24  C   UNL     1     -35.298  30.047   1.317  0.00  0.00    +0.093 C 
ATOM     25  C   UNL     1     -34.311  30.182   0.412  0.00  0.00    -0.020 C 
ATOM     26  C   UNL     1     -32.863  29.853   0.602  0.00  0.00    +0.031 C 
BRANCH  24  27
ATOM     27  C   UNL     1     -36.730  30.447   1.102  0.00  0.00    +0.241 C 
BRANCH  27  28
ATOM     28  O   UNL     1     -37.046  31.541   1.951  0.00  0.00    -0.443 OA
BRANCH  28  30
ATOM     29  O   UNL     1     -39.233  32.001   1.366  0.00  0.00    -0.250 OA
ATOM     30  C   UNL     1     -38.070  32.345   1.532  0.00  0.00    +0.318 C 
ATOM     31  C   UNL     1     -37.566  33.737   1.300  0.00  0.00    +0.121 C 
ENDBRANCH  28  30
ENDBRANCH  27  28
ENDBRANCH  24  27
ENDBRANCH  23  24
ENDBRANCH  21  23
ENDBRANCH   6  21
TORSDOF 7
ENDMDL
MODEL 4
REMARK VINA RESULT:      -6.2      2.029      2.779
REMARK  Name = 5281476
REMARK  7 active torsions:
REMARK  status: ('A' for Active; 'I' for Inactive)
REMARK    1  A    between atoms: C_6  and  O_21
REMARK    2  A    between atoms: C_9  and  O_19
REMARK    3  A    between atoms: O_21  and  C_23
REMARK    4  A    between atoms: C_23  and  C_24
REMARK    5  A    between atoms: C_24  and  C_27
REMARK    6  A    between atoms: C_27  and  O_28
REMARK    7  A    between atoms: O_28  and  C_30
REMARK                            x       y       z     vdW  Elec       q    Type
REMARK                         _______ _______ _______ _____ _____    ______ ____
ROOT
ATOM      1  O   UNL     1     -33.996  24.642   4.762  0.00  0.00    -0.329 OA
ATOM      2  O   UNL     1     -34.975  26.829   0.797  0.00  0.00    -0.444 OA
ATOM      3  O   UNL     1     -34.549  26.417  -1.419  0.00  0.00    -0.245 OA
ATOM      4  C   UNL     1     -35.229  23.887   4.756  0.00  0.00    +0.117 C 
ATOM      5  C   UNL     1     -34.320  24.730   1.773  0.00  0.00    +0.113 C 
ATOM      6  C   UNL     1     -35.389  23.655   2.091  0.00  0.00    +0.180 C 
ATOM      7  C   UNL     1     -35.277  23.006   3.489  0.00  0.00    +0.076 C 
ATOM      8  C   UNL     1     -34.759  26.170   2.069  0.00  0.00    +0.198 C 
ATOM      9  C   UNL     1     -34.288  26.004   5.158  0.00  0.00    +0.220 C 
ATOM     10  C   UNL     1     -36.311  24.905   4.890  0.00  0.00    +0.001 C 
ATOM     11  C   UNL     1     -34.035  24.816   0.307  0.00  0.00    +0.060 C 
ATOM     12  C   UNL     1     -33.568  26.943   4.193  0.00  0.00    +0.010 C 
ATOM     13  C   UNL     1     -33.761  26.976   2.856  0.00  0.00    +0.014 C 
ATOM     14  C   UNL     1     -35.208  22.982   5.998  0.00  0.00    +0.034 C 
ATOM     15  C   UNL     1     -35.780  26.105   5.129  0.00  0.00    +0.031 C 
ATOM     16  C   UNL     1     -34.531  26.083  -0.248  0.00  0.00    +0.338 C 
ATOM     17  C   UNL     1     -32.524  27.857   4.790  0.00  0.00    +0.031 C 
ATOM     18  C   UNL     1     -33.381  23.933  -0.453  0.00  0.00    +0.002 C 
ENDROOT
BRANCH   9  19
ATOM     19  O   UNL     1     -33.829  26.221   6.496  0.00  0.00    -0.358 OA
ATOM     20  H   UNL     1     -33.637  27.162   6.624  0.00  0.00    +0.213 HD
ENDBRANCH   9  19
BRANCH   6  21
ATOM     21  O   UNL     1     -36.706  24.162   1.887  0.00  0.00    -0.449 OA
BRANCH  21  23
ATOM     22  O   UNL     1     -37.223  23.461  -0.243  0.00  0.00    -0.245 OA
ATOM     23  C   UNL     1     -37.458  23.508   0.956  0.00  0.00    +0.340 C 
BRANCH  23  24
ATOM     24  C   UNL     1     -38.621  22.842   1.621  0.00  0.00    +0.093 C 
ATOM     25  C   UNL     1     -38.485  21.523   1.853  0.00  0.00    -0.020 C 
ATOM     26  C   UNL     1     -37.305  20.665   1.519  0.00  0.00    +0.031 C 
BRANCH  24  27
ATOM     27  C   UNL     1     -39.850  23.652   1.919  0.00  0.00    +0.241 C 
BRANCH  27  28
ATOM     28  O   UNL     1     -39.638  24.413   3.099  0.00  0.00    -0.443 OA
BRANCH  28  30
ATOM     29  O   UNL     1     -38.810  26.519   2.631  0.00  0.00    -0.250 OA
ATOM     30  C   UNL     1     -39.723  25.771   2.957  0.00  0.00    +0.318 C 
ATOM     31  C   UNL     1     -41.117  26.231   3.260  0.00  0.00    +0.121 C 
ENDBRANCH  28  30
ENDBRANCH  27  28
ENDBRANCH  24  27
ENDBRANCH  23  24
ENDBRANCH  21  23
ENDBRANCH   6  21
TORSDOF 7
ENDMDL
MODEL 5
REMARK VINA RESULT:      -6.2      1.943      4.404
REMARK  Name = 5281476
REMARK  7 active torsions:
REMARK  status: ('A' for Active; 'I' for Inactive)
REMARK    1  A    between atoms: C_6  and  O_21
REMARK    2  A    between atoms: C_9  and  O_19
REMARK    3  A    between atoms: O_21  and  C_23
REMARK    4  A    between atoms: C_23  and  C_24
REMARK    5  A    between atoms: C_24  and  C_27
REMARK    6  A    between atoms: C_27  and  O_28
REMARK    7  A    between atoms: O_28  and  C_30
REMARK                            x       y       z     vdW  Elec       q    Type
REMARK                         _______ _______ _______ _____ _____    ______ ____
ROOT
ATOM      1  O   UNL     1     -36.804  22.509   0.403  0.00  0.00    -0.329 OA
ATOM      2  O   UNL     1     -36.879  24.460   4.603  0.00  0.00    -0.444 OA
ATOM      3  O   UNL     1     -36.074  26.418   5.486  0.00  0.00    -0.245 OA
ATOM      4  C   UNL     1     -38.060  23.103   0.004  0.00  0.00    +0.117 C 
ATOM      5  C   UNL     1     -36.556  24.865   2.254  0.00  0.00    +0.113 C 
ATOM      6  C   UNL     1     -37.733  25.375   1.386  0.00  0.00    +0.180 C 
ATOM      7  C   UNL     1     -37.928  24.641   0.040  0.00  0.00    +0.076 C 
ATOM      8  C   UNL     1     -36.949  23.820   3.306  0.00  0.00    +0.198 C 
ATOM      9  C   UNL     1     -37.076  21.413   1.310  0.00  0.00    +0.220 C 
ATOM     10  C   UNL     1     -39.080  22.510   0.917  0.00  0.00    +0.001 C 
ATOM     11  C   UNL     1     -35.997  25.946   3.124  0.00  0.00    +0.060 C 
ATOM     12  C   UNL     1     -36.129  21.538   2.500  0.00  0.00    +0.010 C 
ATOM     13  C   UNL     1     -36.065  22.601   3.332  0.00  0.00    +0.014 C 
ATOM     14  C   UNL     1     -38.331  22.655  -1.442  0.00  0.00    +0.034 C 
ATOM     15  C   UNL     1     -38.526  21.543   1.650  0.00  0.00    +0.031 C 
ATOM     16  C   UNL     1     -36.297  25.686   4.539  0.00  0.00    +0.338 C 
ATOM     17  C   UNL     1     -35.158  20.400   2.716  0.00  0.00    +0.031 C 
ATOM     18  C   UNL     1     -35.271  27.004   2.752  0.00  0.00    +0.002 C 
ENDROOT
BRANCH   9  19
ATOM     19  O   UNL     1     -36.863  20.170   0.634  0.00  0.00    -0.358 OA
ATOM     20  H   UNL     1     -35.972  19.842   0.834  0.00  0.00    +0.213 HD
ENDBRANCH   9  19
BRANCH   6  21
ATOM     21  O   UNL     1     -38.953  25.382   2.125  0.00  0.00    -0.449 OA
BRANCH  21  23
ATOM     22  O   UNL     1     -39.653  27.289   1.042  0.00  0.00    -0.245 OA
ATOM     23  C   UNL     1     -39.876  26.310   1.740  0.00  0.00    +0.340 C 
BRANCH  23  24
ATOM     24  C   UNL     1     -41.217  25.951   2.297  0.00  0.00    +0.093 C 
ATOM     25  C   UNL     1     -42.030  25.267   1.469  0.00  0.00    -0.020 C 
ATOM     26  C   UNL     1     -41.731  24.833   0.068  0.00  0.00    +0.031 C 
BRANCH  24  27
ATOM     27  C   UNL     1     -41.582  26.419   3.676  0.00  0.00    +0.241 C 
BRANCH  27  28
ATOM     28  O   UNL     1     -41.578  27.839   3.709  0.00  0.00    -0.443 OA
BRANCH  28  30
ATOM     29  O   UNL     1     -42.544  29.362   5.153  0.00  0.00    -0.250 OA
ATOM     30  C   UNL     1     -42.622  28.423   4.372  0.00  0.00    +0.318 C 
ATOM     31  C   UNL     1     -43.907  27.743   4.004  0.00  0.00    +0.121 C 
ENDBRANCH  28  30
ENDBRANCH  27  28
ENDBRANCH  24  27
ENDBRANCH  23  24
ENDBRANCH  21  23
ENDBRANCH   6  21
TORSDOF 7
ENDMDL
MODEL 6
REMARK VINA RESULT:      -6.1      3.317      6.607
REMARK  Name = 5281476
REMARK  7 active torsions:
REMARK  status: ('A' for Active; 'I' for Inactive)
REMARK    1  A    between atoms: C_6  and  O_21
REMARK    2  A    between atoms: C_9  and  O_19
REMARK    3  A    between atoms: O_21  and  C_23
REMARK    4  A    between atoms: C_23  and  C_24
REMARK    5  A    between atoms: C_24  and  C_27
REMARK    6  A    between atoms: C_27  and  O_28
REMARK    7  A    between atoms: O_28  and  C_30
REMARK                            x       y       z     vdW  Elec       q    Type
REMARK                         _______ _______ _______ _____ _____    ______ ____
ROOT
ATOM      1  O   UNL     1     -35.317  19.900  -0.021  0.00  0.00    -0.329 OA
ATOM      2  O   UNL     1     -37.804  23.808   0.017  0.00  0.00    -0.444 OA
ATOM      3  O   UNL     1     -39.804  24.437   0.946  0.00  0.00    -0.245 OA
ATOM      4  C   UNL     1     -34.558  20.264   1.154  0.00  0.00    +0.117 C 
ATOM      5  C   UNL     1     -37.454  21.692   1.105  0.00  0.00    +0.113 C 
ATOM      6  C   UNL     1     -36.544  21.603   2.355  0.00  0.00    +0.180 C 
ATOM      7  C   UNL     1     -35.522  20.444   2.346  0.00  0.00    +0.076 C 
ATOM      8  C   UNL     1     -36.945  22.642   0.014  0.00  0.00    +0.198 C 
ATOM      9  C   UNL     1     -34.821  20.660  -1.149  0.00  0.00    +0.220 C 
ATOM     10  C   UNL     1     -33.775  21.470   0.755  0.00  0.00    +0.001 C 
ATOM     11  C   UNL     1     -38.779  22.310   1.423  0.00  0.00    +0.060 C 
ATOM     12  C   UNL     1     -36.021  21.227  -1.903  0.00  0.00    +0.010 C 
ATOM     13  C   UNL     1     -36.947  22.056  -1.373  0.00  0.00    +0.014 C 
ATOM     14  C   UNL     1     -33.601  19.098   1.451  0.00  0.00    +0.034 C 
ATOM     15  C   UNL     1     -33.914  21.689  -0.554  0.00  0.00    +0.031 C 
ATOM     16  C   UNL     1     -38.900  23.635   0.799  0.00  0.00    +0.338 C 
ATOM     17  C   UNL     1     -36.200  20.771  -3.332  0.00  0.00    +0.031 C 
ATOM     18  C   UNL     1     -39.785  21.777   2.124  0.00  0.00    +0.002 C 
ENDROOT
BRANCH   9  19
ATOM     19  O   UNL     1     -34.058  19.802  -2.003  0.00  0.00    -0.358 OA
ATOM     20  H   UNL     1     -34.296  18.878  -1.830  0.00  0.00    +0.213 HD
ENDBRANCH   9  19
BRANCH   6  21
ATOM     21  O   UNL     1     -35.883  22.842   2.600  0.00  0.00    -0.449 OA
BRANCH  21  23
ATOM     22  O   UNL     1     -37.358  23.747   4.117  0.00  0.00    -0.245 OA
ATOM     23  C   UNL     1     -36.220  23.478   3.758  0.00  0.00    +0.340 C 
BRANCH  23  24
ATOM     24  C   UNL     1     -34.985  23.797   4.539  0.00  0.00    +0.093 C 
ATOM     25  C   UNL     1     -34.665  22.920   5.510  0.00  0.00    -0.020 C 
ATOM     26  C   UNL     1     -35.407  21.674   5.880  0.00  0.00    +0.031 C 
BRANCH  24  27
ATOM     27  C   UNL     1     -34.243  25.068   4.241  0.00  0.00    +0.241 C 
BRANCH  27  28
ATOM     28  O   UNL     1     -33.759  25.626   5.454  0.00  0.00    -0.443 OA
BRANCH  28  30
ATOM     29  O   UNL     1     -33.555  27.705   4.467  0.00  0.00    -0.250 OA
ATOM     30  C   UNL     1     -33.344  26.928   5.388  0.00  0.00    +0.318 C 
ATOM     31  C   UNL     1     -32.580  27.285   6.627  0.00  0.00    +0.121 C 
ENDBRANCH  28  30
ENDBRANCH  27  28
ENDBRANCH  24  27
ENDBRANCH  23  24
ENDBRANCH  21  23
ENDBRANCH   6  21
TORSDOF 7
ENDMDL
MODEL 7
REMARK VINA RESULT:      -6.1      3.318      5.056
REMARK  Name = 5281476
REMARK  7 active torsions:
REMARK  status: ('A' for Active; 'I' for Inactive)
REMARK    1  A    between atoms: C_6  and  O_21
REMARK    2  A    between atoms: C_9  and  O_19
REMARK    3  A    between atoms: O_21  and  C_23
REMARK    4  A    between atoms: C_23  and  C_24
REMARK    5  A    between atoms: C_24  and  C_27
REMARK    6  A    between atoms: C_27  and  O_28
REMARK    7  A    between atoms: O_28  and  C_30
REMARK                            x       y       z     vdW  Elec       q    Type
REMARK                         _______ _______ _______ _____ _____    ______ ____
ROOT
ATOM      1  O   UNL     1     -34.032  24.559   4.852  0.00  0.00    -0.329 OA
ATOM      2  O   UNL     1     -35.064  26.353   0.708  0.00  0.00    -0.444 OA
ATOM      3  O   UNL     1     -34.620  25.758  -1.462  0.00  0.00    -0.245 OA
ATOM      4  C   UNL     1     -35.241  23.769   4.913  0.00  0.00    +0.117 C 
ATOM      5  C   UNL     1     -34.350  24.371   1.868  0.00  0.00    +0.113 C 
ATOM      6  C   UNL     1     -35.387  23.297   2.279  0.00  0.00    +0.180 C 
ATOM      7  C   UNL     1     -35.260  22.778   3.730  0.00  0.00    +0.076 C 
ATOM      8  C   UNL     1     -34.833  25.817   2.033  0.00  0.00    +0.198 C 
ATOM      9  C   UNL     1     -34.366  25.942   5.125  0.00  0.00    +0.220 C 
ATOM     10  C   UNL     1     -36.354  24.763   4.956  0.00  0.00    +0.001 C 
ATOM     11  C   UNL     1     -34.063  24.334   0.400  0.00  0.00    +0.060 C 
ATOM     12  C   UNL     1     -33.671  26.811   4.080  0.00  0.00    +0.010 C 
ATOM     13  C   UNL     1     -33.861  26.720   2.746  0.00  0.00    +0.014 C 
ATOM     14  C   UNL     1     -35.197  22.980   6.231  0.00  0.00    +0.034 C 
ATOM     15  C   UNL     1     -35.859  25.994   5.087  0.00  0.00    +0.031 C 
ATOM     16  C   UNL     1     -34.595  25.531  -0.266  0.00  0.00    +0.338 C 
ATOM     17  C   UNL     1     -32.657  27.806   4.594  0.00  0.00    +0.031 C 
ATOM     18  C   UNL     1     -33.381  23.406  -0.279  0.00  0.00    +0.002 C 
ENDROOT
BRANCH   9  19
ATOM     19  O   UNL     1     -33.917  26.290   6.438  0.00  0.00    -0.358 OA
ATOM     20  H   UNL     1     -34.471  25.845   7.098  0.00  0.00    +0.213 HD
ENDBRANCH   9  19
BRANCH   6  21
ATOM     21  O   UNL     1     -36.718  23.744   2.030  0.00  0.00    -0.449 OA
BRANCH  21  23
ATOM     22  O   UNL     1     -38.693  22.598   2.324  0.00  0.00    -0.245 OA
ATOM     23  C   UNL     1     -37.629  22.769   1.745  0.00  0.00    +0.340 C 
BRANCH  23  24
ATOM     24  C   UNL     1     -37.138  21.936   0.605  0.00  0.00    +0.093 C 
ATOM     25  C   UNL     1     -37.234  22.498  -0.615  0.00  0.00    -0.020 C 
ATOM     26  C   UNL     1     -37.772  23.856  -0.942  0.00  0.00    +0.031 C 
BRANCH  24  27
ATOM     27  C   UNL     1     -36.645  20.544   0.880  0.00  0.00    +0.241 C 
BRANCH  27  28
ATOM     28  O   UNL     1     -35.322  20.407   0.383  0.00  0.00    -0.443 OA
BRANCH  28  30
ATOM     29  O   UNL     1     -34.587  19.734   2.469  0.00  0.00    -0.250 OA
ATOM     30  C   UNL     1     -34.387  19.981   1.287  0.00  0.00    +0.318 C 
ATOM     31  C   UNL     1     -33.051  19.853   0.619  0.00  0.00    +0.121 C 
ENDBRANCH  28  30
ENDBRANCH  27  28
ENDBRANCH  24  27
ENDBRANCH  23  24
ENDBRANCH  21  23
ENDBRANCH   6  21
TORSDOF 7
ENDMDL
MODEL 8
REMARK VINA RESULT:      -6.0      2.903      6.416
REMARK  Name = 5281476
REMARK  7 active torsions:
REMARK  status: ('A' for Active; 'I' for Inactive)
REMARK    1  A    between atoms: C_6  and  O_21
REMARK    2  A    between atoms: C_9  and  O_19
REMARK    3  A    between atoms: O_21  and  C_23
REMARK    4  A    between atoms: C_23  and  C_24
REMARK    5  A    between atoms: C_24  and  C_27
REMARK    6  A    between atoms: C_27  and  O_28
REMARK    7  A    between atoms: O_28  and  C_30
REMARK                            x       y       z     vdW  Elec       q    Type
REMARK                         _______ _______ _______ _____ _____    ______ ____
ROOT
ATOM      1  O   UNL     1     -35.736  23.766   2.538  0.00  0.00    -0.329 OA
ATOM      2  O   UNL     1     -34.111  27.032   5.393  0.00  0.00    -0.444 OA
ATOM      3  O   UNL     1     -32.264  28.391   5.402  0.00  0.00    -0.245 OA
ATOM      4  C   UNL     1     -36.528  24.702   1.771  0.00  0.00    +0.117 C 
ATOM      5  C   UNL     1     -33.991  26.134   3.165  0.00  0.00    +0.113 C 
ATOM      6  C   UNL     1     -34.835  26.762   2.029  0.00  0.00    +0.180 C 
ATOM      7  C   UNL     1     -35.596  25.755   1.136  0.00  0.00    +0.076 C 
ATOM      8  C   UNL     1     -34.710  26.046   4.517  0.00  0.00    +0.198 C 
ATOM      9  C   UNL     1     -36.404  23.515   3.798  0.00  0.00    +0.220 C 
ATOM     10  C   UNL     1     -37.552  25.220   2.726  0.00  0.00    +0.001 C 
ATOM     11  C   UNL     1     -32.816  26.988   3.523  0.00  0.00    +0.060 C 
ATOM     12  C   UNL     1     -35.364  23.608   4.912  0.00  0.00    +0.010 C 
ATOM     13  C   UNL     1     -34.618  24.701   5.186  0.00  0.00    +0.014 C 
ATOM     14  C   UNL     1     -37.216  23.899   0.655  0.00  0.00    +0.034 C 
ATOM     15  C   UNL     1     -37.490  24.540   3.872  0.00  0.00    +0.031 C 
ATOM     16  C   UNL     1     -32.985  27.574   4.860  0.00  0.00    +0.338 C 
ATOM     17  C   UNL     1     -35.126  22.356   5.723  0.00  0.00    +0.031 C 
ATOM     18  C   UNL     1     -31.707  27.197   2.808  0.00  0.00    +0.002 C 
ENDROOT
BRANCH   9  19
ATOM     19  O   UNL     1     -36.991  22.211   3.775  0.00  0.00    -0.358 OA
ATOM     20  H   UNL     1     -37.941  22.280   3.958  0.00  0.00    +0.213 HD
ENDBRANCH   9  19
BRANCH   6  21
ATOM     21  O   UNL     1     -35.733  27.746   2.537  0.00  0.00    -0.449 OA
BRANCH  21  23
ATOM     22  O   UNL     1     -37.109  28.930   1.122  0.00  0.00    -0.245 OA
ATOM     23  C   UNL     1     -36.037  28.770   1.689  0.00  0.00    +0.340 C 
BRANCH  23  24
ATOM     24  C   UNL     1     -34.860  29.683   1.554  0.00  0.00    +0.093 C 
ATOM     25  C   UNL     1     -34.277  29.710   0.340  0.00  0.00    -0.020 C 
ATOM     26  C   UNL     1     -34.683  28.932  -0.872  0.00  0.00    +0.031 C 
BRANCH  24  27
ATOM     27  C   UNL     1     -34.381  30.436   2.761  0.00  0.00    +0.241 C 
BRANCH  27  28
ATOM     28  O   UNL     1     -32.961  30.445   2.779  0.00  0.00    -0.443 OA
BRANCH  28  30
ATOM     29  O   UNL     1     -31.582  31.617   4.215  0.00  0.00    -0.250 OA
ATOM     30  C   UNL     1     -32.377  31.573   3.286  0.00  0.00    +0.318 C 
ATOM     31  C   UNL     1     -32.853  32.778   2.532  0.00  0.00    +0.121 C 
ENDBRANCH  28  30
ENDBRANCH  27  28
ENDBRANCH  24  27
ENDBRANCH  23  24
ENDBRANCH  21  23
ENDBRANCH   6  21
TORSDOF 7
ENDMDL
MODEL 9
REMARK VINA RESULT:      -6.0      2.302      4.890
REMARK  Name = 5281476
REMARK  7 active torsions:
REMARK  status: ('A' for Active; 'I' for Inactive)
REMARK    1  A    between atoms: C_6  and  O_21
REMARK    2  A    between atoms: C_9  and  O_19
REMARK    3  A    between atoms: O_21  and  C_23
REMARK    4  A    between atoms: C_23  and  C_24
REMARK    5  A    between atoms: C_24  and  C_27
REMARK    6  A    between atoms: C_27  and  O_28
REMARK    7  A    between atoms: O_28  and  C_30
REMARK                            x       y       z     vdW  Elec       q    Type
REMARK                         _______ _______ _______ _____ _____    ______ ____
ROOT
ATOM      1  O   UNL     1     -34.813  22.271   2.459  0.00  0.00    -0.329 OA
ATOM      2  O   UNL     1     -34.914  26.446   4.463  0.00  0.00    -0.444 OA
ATOM      3  O   UNL     1     -33.500  28.251   4.500  0.00  0.00    -0.245 OA
ATOM      4  C   UNL     1     -35.500  22.724   1.270  0.00  0.00    +0.117 C 
ATOM      5  C   UNL     1     -33.904  25.125   2.725  0.00  0.00    +0.113 C 
ATOM      6  C   UNL     1     -34.456  25.191   1.280  0.00  0.00    +0.180 C 
ATOM      7  C   UNL     1     -34.661  23.824   0.587  0.00  0.00    +0.076 C 
ATOM      8  C   UNL     1     -34.980  25.151   3.819  0.00  0.00    +0.198 C 
ATOM      9  C   UNL     1     -35.777  22.138   3.531  0.00  0.00    +0.220 C 
ATOM     10  C   UNL     1     -36.859  23.127   1.735  0.00  0.00    +0.001 C 
ATOM     11  C   UNL     1     -33.114  26.346   3.076  0.00  0.00    +0.060 C 
ATOM     12  C   UNL     1     -35.190  22.793   4.779  0.00  0.00    +0.010 C 
ATOM     13  C   UNL     1     -34.820  24.089   4.873  0.00  0.00    +0.014 C 
ATOM     14  C   UNL     1     -35.609  21.516   0.326  0.00  0.00    +0.034 C 
ATOM     15  C   UNL     1     -37.022  22.785   3.014  0.00  0.00    +0.031 C 
ATOM     16  C   UNL     1     -33.820  27.154   4.080  0.00  0.00    +0.338 C 
ATOM     17  C   UNL     1     -34.962  21.893   5.972  0.00  0.00    +0.031 C 
ATOM     18  C   UNL     1     -31.906  26.698   2.625  0.00  0.00    +0.002 C 
ENDROOT
BRANCH   9  19
ATOM     19  O   UNL     1     -36.034  20.752   3.772  0.00  0.00    -0.358 OA
ATOM     20  H   UNL     1     -36.979  20.572   3.650  0.00  0.00    +0.213 HD
ENDBRANCH   9  19
BRANCH   6  21
ATOM     21  O   UNL     1     -35.657  25.958   1.221  0.00  0.00    -0.449 OA
BRANCH  21  23
ATOM     22  O   UNL     1     -34.894  27.059  -0.650  0.00  0.00    -0.245 OA
ATOM     23  C   UNL     1     -35.700  26.925   0.260  0.00  0.00    +0.340 C 
BRANCH  23  24
ATOM     24  C   UNL     1     -36.891  27.803   0.477  0.00  0.00    +0.093 C 
ATOM     25  C   UNL     1     -36.655  28.959   1.125  0.00  0.00    -0.020 C 
ATOM     26  C   UNL     1     -35.339  29.450   1.642  0.00  0.00    +0.031 C 
BRANCH  24  27
ATOM     27  C   UNL     1     -38.241  27.322   0.027  0.00  0.00    +0.241 C 
BRANCH  27  28
ATOM     28  O   UNL     1     -39.143  27.359   1.123  0.00  0.00    -0.443 OA
BRANCH  28  30
ATOM     29  O   UNL     1     -38.585  26.132   3.000  0.00  0.00    -0.250 OA
ATOM     30  C   UNL     1     -39.155  26.250   1.924  0.00  0.00    +0.318 C 
ATOM     31  C   UNL     1     -39.983  25.172   1.292  0.00  0.00    +0.121 C 
ENDBRANCH  28  30
ENDBRANCH  27  28
ENDBRANCH  24  27
ENDBRANCH  23  24
ENDBRANCH  21  23
ENDBRANCH   6  21
TORSDOF 7
ENDMDL
