MODEL 1
REMARK VINA RESULT:      -6.2      0.000      0.000
REMARK  Name = 5355
REMARK  7 active torsions:
REMARK  status: ('A' for Active; 'I' for Inactive)
REMARK    1  A    between atoms: C_1  and  C_9
REMARK    2  A    between atoms: C_3  and  O_26
REMARK    3  A    between atoms: C_4  and  S_20
REMARK    4  A    between atoms: N_8  and  C_11
REMARK    5  A    between atoms: C_11  and  C_13
REMARK    6  A    between atoms: N_12  and  C_18
REMARK    7  A    between atoms: S_20  and  N_23
REMARK                            x       y       z     vdW  Elec       q    Type
REMARK                         _______ _______ _______ _____ _____    ______ ____
ROOT
ATOM      1  C   UNL     1     -36.003  24.403   4.047  0.00  0.00    +0.089 C 
ATOM      2  C   UNL     1     -35.558  25.535   3.394  0.00  0.00    +0.027 C 
ATOM      3  C   UNL     1     -35.600  24.089   5.329  0.00  0.00    +0.143 C 
ATOM      4  C   UNL     1     -34.672  26.389   4.052  0.00  0.00    +0.122 C 
ATOM      5  C   UNL     1     -34.714  24.942   5.987  0.00  0.00    +0.038 C 
ATOM      6  C   UNL     1     -34.250  26.093   5.348  0.00  0.00    +0.023 C 
ENDROOT
BRANCH   1   9
ATOM      7  O   UNL     1     -38.138  23.798   3.288  0.00  0.00    -0.270 OA
ATOM      8  N   UNL     1     -36.373  22.402   2.731  0.00  0.00    -0.303 N 
ATOM      9  C   UNL     1     -36.945  23.507   3.329  0.00  0.00    +0.249 C 
ATOM     10  H   UNL     1     -35.405  22.258   2.822  0.00  0.00    +0.150 HD
BRANCH   8  11
ATOM     11  C   UNL     1     -37.161  21.443   1.969  0.00  0.00    +0.069 C 
BRANCH  11  13
ATOM     12  N   UNL     1     -36.169  19.862   0.304  0.00  0.00    +0.389 N 
ATOM     13  C   UNL     1     -36.377  20.160   1.728  0.00  0.00    -0.038 C 
ATOM     14  C   UNL     1     -34.947  20.258   2.265  0.00  0.00    -0.021 C 
ATOM     15  C   UNL     1     -34.100  19.426   1.308  0.00  0.00    -0.025 C 
ATOM     16  C   UNL     1     -35.078  18.885   0.279  0.00  0.00    -0.077 C 
ATOM     17  H   UNL     1     -35.945  20.712  -0.214  0.00  0.00    -0.080 HD
BRANCH  12  18
ATOM     18  C   UNL     1     -37.360  19.347  -0.358  0.00  0.00    -0.077 C 
ATOM     19  C   UNL     1     -37.458  17.837  -0.218  0.00  0.00    -0.025 C 
ENDBRANCH  12  18
ENDBRANCH  11  13
ENDBRANCH   8  11
ENDBRANCH   1   9
BRANCH   4  20
ATOM     20  S   UNL     1     -34.091  27.829   3.252  0.00  0.00    +0.057 S 
ATOM     21  O   UNL     1     -33.232  28.553   4.178  0.00  0.00    -0.153 OA
ATOM     22  O   UNL     1     -33.587  27.457   1.938  0.00  0.00    -0.153 OA
BRANCH  20  23
ATOM     23  N   UNL     1     -35.547  28.701   3.054  0.00  0.00    -0.203 NA
ATOM     24  H   UNL     1     -35.349  29.701   3.065  0.00  0.00    +0.144 HD
ATOM     25  H   UNL     1     -36.186  28.473   3.816  0.00  0.00    +0.144 HD
ENDBRANCH  20  23
ENDBRANCH   4  20
BRANCH   3  26
ATOM     26  O   UNL     1     -36.043  22.970   5.971  0.00  0.00    -0.471 OA
ATOM     27  C   UNL     1     -35.108  21.906   6.135  0.00  0.00    +0.252 C 
ENDBRANCH   3  26
TORSDOF 7
ENDMDL
MODEL 2
REMARK VINA RESULT:      -6.1      1.133      1.945
REMARK  Name = 5355
REMARK  7 active torsions:
REMARK  status: ('A' for Active; 'I' for Inactive)
REMARK    1  A    between atoms: C_1  and  C_9
REMARK    2  A    between atoms: C_3  and  O_26
REMARK    3  A    between atoms: C_4  and  S_20
REMARK    4  A    between atoms: N_8  and  C_11
REMARK    5  A    between atoms: C_11  and  C_13
REMARK    6  A    between atoms: N_12  and  C_18
REMARK    7  A    between atoms: S_20  and  N_23
REMARK                            x       y       z     vdW  Elec       q    Type
REMARK                         _______ _______ _______ _____ _____    ______ ____
ROOT
ATOM      1  C   UNL     1     -36.285  23.841   3.628  0.00  0.00    +0.089 C 
ATOM      2  C   UNL     1     -36.054  24.962   2.856  0.00  0.00    +0.027 C 
ATOM      3  C   UNL     1     -35.983  23.803   4.975  0.00  0.00    +0.143 C 
ATOM      4  C   UNL     1     -35.498  26.092   3.455  0.00  0.00    +0.122 C 
ATOM      5  C   UNL     1     -35.426  24.933   5.574  0.00  0.00    +0.038 C 
ATOM      6  C   UNL     1     -35.183  26.078   4.814  0.00  0.00    +0.023 C 
ENDROOT
BRANCH   1   9
ATOM      7  O   UNL     1     -38.008  22.724   2.495  0.00  0.00    -0.270 OA
ATOM      8  N   UNL     1     -36.069  21.530   2.931  0.00  0.00    -0.303 N 
ATOM      9  C   UNL     1     -36.878  22.648   2.971  0.00  0.00    +0.249 C 
ATOM     10  H   UNL     1     -35.176  21.572   3.342  0.00  0.00    +0.150 HD
BRANCH   8  11
ATOM     11  C   UNL     1     -36.497  20.291   2.298  0.00  0.00    +0.069 C 
BRANCH  11  13
ATOM     12  N   UNL     1     -34.918  18.958   0.888  0.00  0.00    +0.389 N 
ATOM     13  C   UNL     1     -35.829  20.111   0.941  0.00  0.00    -0.038 C 
ATOM     14  C   UNL     1     -36.846  19.789  -0.156  0.00  0.00    -0.021 C 
ATOM     15  C   UNL     1     -36.117  18.859  -1.120  0.00  0.00    -0.025 C 
ATOM     16  C   UNL     1     -34.721  18.700  -0.540  0.00  0.00    -0.077 C 
ATOM     17  H   UNL     1     -35.318  18.159   1.379  0.00  0.00    -0.080 HD
BRANCH  12  18
ATOM     18  C   UNL     1     -33.650  19.193   1.567  0.00  0.00    -0.077 C 
ATOM     19  C   UNL     1     -32.653  18.086   1.266  0.00  0.00    -0.025 C 
ENDBRANCH  12  18
ENDBRANCH  11  13
ENDBRANCH   8  11
ENDBRANCH   1   9
BRANCH   4  20
ATOM     20  S   UNL     1     -35.194  27.525   2.503  0.00  0.00    +0.057 S 
ATOM     21  O   UNL     1     -34.774  28.591   3.401  0.00  0.00    -0.153 OA
ATOM     22  O   UNL     1     -34.354  27.159   1.372  0.00  0.00    -0.153 OA
BRANCH  20  23
ATOM     23  N   UNL     1     -36.766  27.874   1.929  0.00  0.00    -0.203 NA
ATOM     24  H   UNL     1     -37.187  28.597   2.511  0.00  0.00    +0.144 HD
ATOM     25  H   UNL     1     -37.337  27.029   1.970  0.00  0.00    +0.144 HD
ENDBRANCH  20  23
ENDBRANCH   4  20
BRANCH   3  26
ATOM     26  O   UNL     1     -36.213  22.694   5.735  0.00  0.00    -0.471 OA
ATOM     27  C   UNL     1     -35.076  22.063   6.319  0.00  0.00    +0.252 C 
ENDBRANCH   3  26
TORSDOF 7
ENDMDL
MODEL 3
REMARK VINA RESULT:      -6.0      1.451      1.790
REMARK  Name = 5355
REMARK  7 active torsions:
REMARK  status: ('A' for Active; 'I' for Inactive)
REMARK    1  A    between atoms: C_1  and  C_9
REMARK    2  A    between atoms: C_3  and  O_26
REMARK    3  A    between atoms: C_4  and  S_20
REMARK    4  A    between atoms: N_8  and  C_11
REMARK    5  A    between atoms: C_11  and  C_13
REMARK    6  A    between atoms: N_12  and  C_18
REMARK    7  A    between atoms: S_20  and  N_23
REMARK                            x       y       z     vdW  Elec       q    Type
REMARK                         _______ _______ _______ _____ _____    ______ ____
ROOT
ATOM      1  C   UNL     1     -36.217  23.818   3.644  0.00  0.00    +0.089 C 
ATOM      2  C   UNL     1     -35.991  24.942   2.874  0.00  0.00    +0.027 C 
ATOM      3  C   UNL     1     -35.962  23.794   5.000  0.00  0.00    +0.143 C 
ATOM      4  C   UNL     1     -35.488  26.089   3.486  0.00  0.00    +0.122 C 
ATOM      5  C   UNL     1     -35.458  24.941   5.612  0.00  0.00    +0.038 C 
ATOM      6  C   UNL     1     -35.220  26.090   4.855  0.00  0.00    +0.023 C 
ENDROOT
BRANCH   1   9
ATOM      7  O   UNL     1     -37.911  22.610   2.560  0.00  0.00    -0.270 OA
ATOM      8  N   UNL     1     -35.866  21.556   2.846  0.00  0.00    -0.303 N 
ATOM      9  C   UNL     1     -36.754  22.606   2.972  0.00  0.00    +0.249 C 
ATOM     10  H   UNL     1     -34.958  21.654   3.211  0.00  0.00    +0.150 HD
BRANCH   8  11
ATOM     11  C   UNL     1     -36.234  20.311   2.188  0.00  0.00    +0.069 C 
BRANCH  11  13
ATOM     12  N   UNL     1     -34.882  21.174   0.268  0.00  0.00    +0.389 N 
ATOM     13  C   UNL     1     -35.275  19.991   1.048  0.00  0.00    -0.038 C 
ATOM     14  C   UNL     1     -33.934  19.465   1.563  0.00  0.00    -0.021 C 
ATOM     15  C   UNL     1     -32.894  19.977   0.573  0.00  0.00    -0.025 C 
ATOM     16  C   UNL     1     -33.682  20.761  -0.463  0.00  0.00    -0.077 C 
ATOM     17  H   UNL     1     -34.712  21.971   0.882  0.00  0.00    -0.080 HD
BRANCH  12  18
ATOM     18  C   UNL     1     -35.924  21.641  -0.637  0.00  0.00    -0.077 C 
ATOM     19  C   UNL     1     -35.979  23.159  -0.675  0.00  0.00    -0.025 C 
ENDBRANCH  12  18
ENDBRANCH  11  13
ENDBRANCH   8  11
ENDBRANCH   1   9
BRANCH   4  20
ATOM     20  S   UNL     1     -35.191  27.526   2.539  0.00  0.00    +0.057 S 
ATOM     21  O   UNL     1     -34.767  28.589   3.439  0.00  0.00    -0.153 OA
ATOM     22  O   UNL     1     -34.357  27.165   1.401  0.00  0.00    -0.153 OA
BRANCH  20  23
ATOM     23  N   UNL     1     -36.766  27.876   1.976  0.00  0.00    -0.203 NA
ATOM     24  H   UNL     1     -37.407  27.146   2.284  0.00  0.00    +0.144 HD
ATOM     25  H   UNL     1     -36.761  27.915   0.956  0.00  0.00    +0.144 HD
ENDBRANCH  20  23
ENDBRANCH   4  20
BRANCH   3  26
ATOM     26  O   UNL     1     -36.187  22.682   5.757  0.00  0.00    -0.471 OA
ATOM     27  C   UNL     1     -35.044  22.029   6.304  0.00  0.00    +0.252 C 
ENDBRANCH   3  26
TORSDOF 7
ENDMDL
MODEL 4
REMARK VINA RESULT:      -6.0      0.655      1.726
REMARK  Name = 5355
REMARK  7 active torsions:
REMARK  status: ('A' for Active; 'I' for Inactive)
REMARK    1  A    between atoms: C_1  and  C_9
REMARK    2  A    between atoms: C_3  and  O_26
REMARK    3  A    between atoms: C_4  and  S_20
REMARK    4  A    between atoms: N_8  and  C_11
REMARK    5  A    between atoms: C_11  and  C_13
REMARK    6  A    between atoms: N_12  and  C_18
REMARK    7  A    between atoms: S_20  and  N_23
REMARK                            x       y       z     vdW  Elec       q    Type
REMARK                         _______ _______ _______ _____ _____    ______ ____
ROOT
ATOM      1  C   UNL     1     -36.228  24.517   3.988  0.00  0.00    +0.089 C 
ATOM      2  C   UNL     1     -35.728  25.669   3.415  0.00  0.00    +0.027 C 
ATOM      3  C   UNL     1     -35.733  24.012   5.174  0.00  0.00    +0.143 C 
ATOM      4  C   UNL     1     -34.689  26.345   4.055  0.00  0.00    +0.122 C 
ATOM      5  C   UNL     1     -34.695  24.688   5.814  0.00  0.00    +0.038 C 
ATOM      6  C   UNL     1     -34.172  25.854   5.254  0.00  0.00    +0.023 C 
ENDROOT
BRANCH   1   9
ATOM      7  O   UNL     1     -38.367  24.424   3.031  0.00  0.00    -0.270 OA
ATOM      8  N   UNL     1     -37.085  22.494   2.963  0.00  0.00    -0.303 N 
ATOM      9  C   UNL     1     -37.334  23.812   3.290  0.00  0.00    +0.249 C 
ATOM     10  H   UNL     1     -36.222  22.095   3.217  0.00  0.00    +0.150 HD
BRANCH   8  11
ATOM     11  C   UNL     1     -38.060  21.677   2.255  0.00  0.00    +0.069 C 
BRANCH  11  13
ATOM     12  N   UNL     1     -36.623  19.773   1.502  0.00  0.00    +0.389 N 
ATOM     13  C   UNL     1     -37.412  20.942   1.088  0.00  0.00    -0.038 C 
ATOM     14  C   UNL     1     -38.456  20.331   0.151  0.00  0.00    -0.021 C 
ATOM     15  C   UNL     1     -37.825  19.044  -0.370  0.00  0.00    -0.025 C 
ATOM     16  C   UNL     1     -36.453  18.983   0.281  0.00  0.00    -0.077 C 
ATOM     17  H   UNL     1     -37.103  19.256   2.239  0.00  0.00    -0.080 HD
BRANCH  12  18
ATOM     18  C   UNL     1     -35.339  20.123   2.094  0.00  0.00    -0.077 C 
ATOM     19  C   UNL     1     -34.192  19.450   1.358  0.00  0.00    -0.025 C 
ENDBRANCH  12  18
ENDBRANCH  11  13
ENDBRANCH   8  11
ENDBRANCH   1   9
BRANCH   4  20
ATOM     20  S   UNL     1     -34.035  27.805   3.355  0.00  0.00    +0.057 S 
ATOM     21  O   UNL     1     -33.212  28.465   4.358  0.00  0.00    -0.153 OA
ATOM     22  O   UNL     1     -33.469  27.480   2.053  0.00  0.00    -0.153 OA
BRANCH  20  23
ATOM     23  N   UNL     1     -35.459  28.720   3.121  0.00  0.00    -0.203 NA
ATOM     24  H   UNL     1     -35.289  29.442   2.422  0.00  0.00    +0.144 HD
ATOM     25  H   UNL     1     -35.731  29.157   4.002  0.00  0.00    +0.144 HD
ENDBRANCH  20  23
ENDBRANCH   4  20
BRANCH   3  26
ATOM     26  O   UNL     1     -36.231  22.874   5.737  0.00  0.00    -0.471 OA
ATOM     27  C   UNL     1     -35.286  21.890   6.151  0.00  0.00    +0.252 C 
ENDBRANCH   3  26
TORSDOF 7
ENDMDL
MODEL 5
REMARK VINA RESULT:      -5.9      4.217      8.001
REMARK  Name = 5355
REMARK  7 active torsions:
REMARK  status: ('A' for Active; 'I' for Inactive)
REMARK    1  A    between atoms: C_1  and  C_9
REMARK    2  A    between atoms: C_3  and  O_26
REMARK    3  A    between atoms: C_4  and  S_20
REMARK    4  A    between atoms: N_8  and  C_11
REMARK    5  A    between atoms: C_11  and  C_13
REMARK    6  A    between atoms: N_12  and  C_18
REMARK    7  A    between atoms: S_20  and  N_23
REMARK                            x       y       z     vdW  Elec       q    Type
REMARK                         _______ _______ _______ _____ _____    ______ ____
ROOT
ATOM      1  C   UNL     1     -35.444  19.531   0.613  0.00  0.00    +0.089 C 
ATOM      2  C   UNL     1     -34.148  19.061   0.690  0.00  0.00    +0.027 C 
ATOM      3  C   UNL     1     -36.464  18.785   0.057  0.00  0.00    +0.143 C 
ATOM      4  C   UNL     1     -33.860  17.792   0.190  0.00  0.00    +0.122 C 
ATOM      5  C   UNL     1     -36.176  17.516  -0.443  0.00  0.00    +0.038 C 
ATOM      6  C   UNL     1     -34.873  17.018  -0.378  0.00  0.00    +0.023 C 
ENDROOT
BRANCH   1   9
ATOM      7  O   UNL     1     -35.281  21.870   0.570  0.00  0.00    -0.270 OA
ATOM      8  N   UNL     1     -36.520  20.920   2.283  0.00  0.00    -0.303 N 
ATOM      9  C   UNL     1     -35.730  20.886   1.151  0.00  0.00    +0.249 C 
ATOM     10  H   UNL     1     -36.830  20.072   2.673  0.00  0.00    +0.150 HD
BRANCH   8  11
ATOM     11  C   UNL     1     -36.909  22.173   2.914  0.00  0.00    +0.069 C 
BRANCH  11  13
ATOM     12  N   UNL     1     -36.400  23.512   4.965  0.00  0.00    +0.389 N 
ATOM     13  C   UNL     1     -35.862  22.624   3.924  0.00  0.00    -0.038 C 
ATOM     14  C   UNL     1     -35.310  21.449   4.734  0.00  0.00    -0.021 C 
ATOM     15  C   UNL     1     -35.015  22.018   6.118  0.00  0.00    -0.025 C 
ATOM     16  C   UNL     1     -35.400  23.486   6.035  0.00  0.00    -0.077 C 
ATOM     17  H   UNL     1     -37.316  23.190   5.276  0.00  0.00    -0.080 HD
BRANCH  12  18
ATOM     18  C   UNL     1     -36.643  24.870   4.495  0.00  0.00    -0.077 C 
ATOM     19  C   UNL     1     -35.977  25.892   5.401  0.00  0.00    -0.025 C 
ENDBRANCH  12  18
ENDBRANCH  11  13
ENDBRANCH   8  11
ENDBRANCH   1   9
BRANCH   4  20
ATOM     20  S   UNL     1     -32.230  17.169   0.273  0.00  0.00    +0.057 S 
ATOM     21  O   UNL     1     -31.528  17.560  -0.941  0.00  0.00    -0.153 OA
ATOM     22  O   UNL     1     -31.671  17.508   1.574  0.00  0.00    -0.153 OA
BRANCH  20  23
ATOM     23  N   UNL     1     -32.522  15.486   0.223  0.00  0.00    -0.203 NA
ATOM     24  H   UNL     1     -31.671  14.985   0.477  0.00  0.00    +0.144 HD
ATOM     25  H   UNL     1     -32.806  15.218  -0.719  0.00  0.00    +0.144 HD
ENDBRANCH  20  23
ENDBRANCH   4  20
BRANCH   3  26
ATOM     26  O   UNL     1     -37.743  19.253  -0.017  0.00  0.00    -0.471 OA
ATOM     27  C   UNL     1     -38.601  18.643  -0.978  0.00  0.00    +0.252 C 
ENDBRANCH   3  26
TORSDOF 7
ENDMDL
MODEL 6
REMARK VINA RESULT:      -5.9      3.101      7.217
REMARK  Name = 5355
REMARK  7 active torsions:
REMARK  status: ('A' for Active; 'I' for Inactive)
REMARK    1  A    between atoms: C_1  and  C_9
REMARK    2  A    between atoms: C_3  and  O_26
REMARK    3  A    between atoms: C_4  and  S_20
REMARK    4  A    between atoms: N_8  and  C_11
REMARK    5  A    between atoms: C_11  and  C_13
REMARK    6  A    between atoms: N_12  and  C_18
REMARK    7  A    between atoms: S_20  and  N_23
REMARK                            x       y       z     vdW  Elec       q    Type
REMARK                         _______ _______ _______ _____ _____    ______ ____
ROOT
ATOM      1  C   UNL     1     -36.812  22.961   3.160  0.00  0.00    +0.089 C 
ATOM      2  C   UNL     1     -37.800  22.704   2.231  0.00  0.00    +0.027 C 
ATOM      3  C   UNL     1     -35.851  22.026   3.489  0.00  0.00    +0.143 C 
ATOM      4  C   UNL     1     -37.829  21.458   1.605  0.00  0.00    +0.122 C 
ATOM      5  C   UNL     1     -35.880  20.780   2.863  0.00  0.00    +0.038 C 
ATOM      6  C   UNL     1     -36.870  20.495   1.921  0.00  0.00    +0.023 C 
ENDROOT
BRANCH   1   9
ATOM      7  O   UNL     1     -37.835  24.731   4.311  0.00  0.00    -0.270 OA
ATOM      8  N   UNL     1     -35.576  24.936   3.831  0.00  0.00    -0.303 N 
ATOM      9  C   UNL     1     -36.799  24.295   3.816  0.00  0.00    +0.249 C 
ATOM     10  H   UNL     1     -34.804  24.500   3.405  0.00  0.00    +0.150 HD
BRANCH   8  11
ATOM     11  C   UNL     1     -35.396  26.237   4.459  0.00  0.00    +0.069 C 
BRANCH  11  13
ATOM     12  N   UNL     1     -33.479  27.844   4.501  0.00  0.00    +0.389 N 
ATOM     13  C   UNL     1     -33.932  26.479   4.804  0.00  0.00    -0.038 C 
ATOM     14  C   UNL     1     -33.676  26.364   6.308  0.00  0.00    -0.021 C 
ATOM     15  C   UNL     1     -32.572  27.373   6.606  0.00  0.00    -0.025 C 
ATOM     16  C   UNL     1     -32.242  28.009   5.266  0.00  0.00    -0.077 C 
ATOM     17  H   UNL     1     -34.193  28.526   4.758  0.00  0.00    -0.080 HD
BRANCH  12  18
ATOM     18  C   UNL     1     -33.262  28.079   3.079  0.00  0.00    -0.077 C 
ATOM     19  C   UNL     1     -31.992  27.396   2.598  0.00  0.00    -0.025 C 
ENDBRANCH  12  18
ENDBRANCH  11  13
ENDBRANCH   8  11
ENDBRANCH   1   9
BRANCH   4  20
ATOM     20  S   UNL     1     -39.067  21.102   0.426  0.00  0.00    +0.057 S 
ATOM     21  O   UNL     1     -40.355  21.084   1.104  0.00  0.00    -0.153 OA
ATOM     22  O   UNL     1     -38.869  21.967  -0.729  0.00  0.00    -0.153 OA
BRANCH  20  23
ATOM     23  N   UNL     1     -38.651  19.502  -0.010  0.00  0.00    -0.203 NA
ATOM     24  H   UNL     1     -38.904  19.338  -0.983  0.00  0.00    +0.144 HD
ATOM     25  H   UNL     1     -39.155  18.846   0.588  0.00  0.00    +0.144 HD
ENDBRANCH  20  23
ENDBRANCH   4  20
BRANCH   3  26
ATOM     26  O   UNL     1     -34.876  22.285   4.407  0.00  0.00    -0.471 OA
ATOM     27  C   UNL     1     -35.060  21.750   5.715  0.00  0.00    +0.252 C 
ENDBRANCH   3  26
TORSDOF 7
ENDMDL
MODEL 7
REMARK VINA RESULT:      -5.8      4.473      6.879
REMARK  Name = 5355
REMARK  7 active torsions:
REMARK  status: ('A' for Active; 'I' for Inactive)
REMARK    1  A    between atoms: C_1  and  C_9
REMARK    2  A    between atoms: C_3  and  O_26
REMARK    3  A    between atoms: C_4  and  S_20
REMARK    4  A    between atoms: N_8  and  C_11
REMARK    5  A    between atoms: C_11  and  C_13
REMARK    6  A    between atoms: N_12  and  C_18
REMARK    7  A    between atoms: S_20  and  N_23
REMARK                            x       y       z     vdW  Elec       q    Type
REMARK                         _______ _______ _______ _____ _____    ______ ____
ROOT
ATOM      1  C   UNL     1     -31.600  28.562   6.012  0.00  0.00    +0.089 C 
ATOM      2  C   UNL     1     -30.338  28.424   6.553  0.00  0.00    +0.027 C 
ATOM      3  C   UNL     1     -31.922  29.591   5.150  0.00  0.00    +0.143 C 
ATOM      4  C   UNL     1     -29.356  29.357   6.220  0.00  0.00    +0.122 C 
ATOM      5  C   UNL     1     -30.940  30.523   4.816  0.00  0.00    +0.038 C 
ATOM      6  C   UNL     1     -29.656  30.407   5.352  0.00  0.00    +0.023 C 
ENDROOT
BRANCH   1   9
ATOM      7  O   UNL     1     -32.807  27.282   7.564  0.00  0.00    -0.270 OA
ATOM      8  N   UNL     1     -33.343  27.024   5.324  0.00  0.00    -0.303 N 
ATOM      9  C   UNL     1     -32.632  27.558   6.380  0.00  0.00    +0.249 C 
ATOM     10  H   UNL     1     -33.126  27.312   4.409  0.00  0.00    +0.150 HD
BRANCH   8  11
ATOM     11  C   UNL     1     -34.405  26.048   5.524  0.00  0.00    +0.069 C 
BRANCH  11  13
ATOM     12  N   UNL     1     -35.345  23.904   4.643  0.00  0.00    +0.389 N 
ATOM     13  C   UNL     1     -34.204  24.830   4.632  0.00  0.00    -0.038 C 
ATOM     14  C   UNL     1     -34.097  25.218   3.156  0.00  0.00    -0.021 C 
ATOM     15  C   UNL     1     -34.733  24.063   2.389  0.00  0.00    -0.025 C 
ATOM     16  C   UNL     1     -35.162  23.068   3.454  0.00  0.00    -0.077 C 
ATOM     17  H   UNL     1     -36.226  24.417   4.629  0.00  0.00    -0.080 HD
BRANCH  12  18
ATOM     18  C   UNL     1     -35.423  23.098   5.854  0.00  0.00    -0.077 C 
ATOM     19  C   UNL     1     -35.131  21.636   5.561  0.00  0.00    -0.025 C 
ENDBRANCH  12  18
ENDBRANCH  11  13
ENDBRANCH   8  11
ENDBRANCH   1   9
BRANCH   4  20
ATOM     20  S   UNL     1     -27.749  29.210   6.890  0.00  0.00    +0.057 S 
ATOM     21  O   UNL     1     -27.175  27.953   6.433  0.00  0.00    -0.153 OA
ATOM     22  O   UNL     1     -27.037  30.459   6.658  0.00  0.00    -0.153 OA
BRANCH  20  23
ATOM     23  N   UNL     1     -28.103  29.082   8.557  0.00  0.00    -0.203 NA
ATOM     24  H   UNL     1     -28.850  29.732   8.797  0.00  0.00    +0.144 HD
ATOM     25  H   UNL     1     -27.268  29.308   9.099  0.00  0.00    +0.144 HD
ENDBRANCH  20  23
ENDBRANCH   4  20
BRANCH   3  26
ATOM     26  O   UNL     1     -33.170  29.722   4.616  0.00  0.00    -0.471 OA
ATOM     27  C   UNL     1     -33.250  30.032   3.227  0.00  0.00    +0.252 C 
ENDBRANCH   3  26
TORSDOF 7
ENDMDL
MODEL 8
REMARK VINA RESULT:      -5.8      3.183      5.483
REMARK  Name = 5355
REMARK  7 active torsions:
REMARK  status: ('A' for Active; 'I' for Inactive)
REMARK    1  A    between atoms: C_1  and  C_9
REMARK    2  A    between atoms: C_3  and  O_26
REMARK    3  A    between atoms: C_4  and  S_20
REMARK    4  A    between atoms: N_8  and  C_11
REMARK    5  A    between atoms: C_11  and  C_13
REMARK    6  A    between atoms: N_12  and  C_18
REMARK    7  A    between atoms: S_20  and  N_23
REMARK                            x       y       z     vdW  Elec       q    Type
REMARK                         _______ _______ _______ _____ _____    ______ ____
ROOT
ATOM      1  C   UNL     1     -33.390  27.428   4.470  0.00  0.00    +0.089 C 
ATOM      2  C   UNL     1     -32.424  27.759   5.399  0.00  0.00    +0.027 C 
ATOM      3  C   UNL     1     -33.616  28.191   3.342  0.00  0.00    +0.143 C 
ATOM      4  C   UNL     1     -31.653  28.902   5.192  0.00  0.00    +0.122 C 
ATOM      5  C   UNL     1     -32.845  29.334   3.135  0.00  0.00    +0.038 C 
ATOM      6  C   UNL     1     -31.863  29.691   4.060  0.00  0.00    +0.023 C 
ENDROOT
BRANCH   1   9
ATOM      7  O   UNL     1     -33.636  25.120   4.811  0.00  0.00    -0.270 OA
ATOM      8  N   UNL     1     -35.562  26.410   4.824  0.00  0.00    -0.303 N 
ATOM      9  C   UNL     1     -34.201  26.206   4.709  0.00  0.00    +0.249 C 
ATOM     10  H   UNL     1     -35.916  27.323   4.726  0.00  0.00    +0.150 HD
BRANCH   8  11
ATOM     11  C   UNL     1     -36.487  25.317   5.085  0.00  0.00    +0.069 C 
BRANCH  11  13
ATOM     12  N   UNL     1     -36.849  23.059   4.070  0.00  0.00    +0.389 N 
ATOM     13  C   UNL     1     -36.742  24.504   3.822  0.00  0.00    -0.038 C 
ATOM     14  C   UNL     1     -38.096  24.840   3.194  0.00  0.00    -0.021 C 
ATOM     15  C   UNL     1     -38.589  23.534   2.580  0.00  0.00    -0.025 C 
ATOM     16  C   UNL     1     -37.498  22.519   2.874  0.00  0.00    -0.077 C 
ATOM     17  H   UNL     1     -37.381  22.877   4.921  0.00  0.00    -0.080 HD
BRANCH  12  18
ATOM     18  C   UNL     1     -35.562  22.419   4.314  0.00  0.00    -0.077 C 
ATOM     19  C   UNL     1     -35.433  21.980   5.763  0.00  0.00    -0.025 C 
ENDBRANCH  12  18
ENDBRANCH  11  13
ENDBRANCH   8  11
ENDBRANCH   1   9
BRANCH   4  20
ATOM     20  S   UNL     1     -30.424  29.348   6.350  0.00  0.00    +0.057 S 
ATOM     21  O   UNL     1     -29.469  30.227   5.690  0.00  0.00    -0.153 OA
ATOM     22  O   UNL     1     -31.079  29.782   7.576  0.00  0.00    -0.153 OA
BRANCH  20  23
ATOM     23  N   UNL     1     -29.678  27.836   6.631  0.00  0.00    -0.203 NA
ATOM     24  H   UNL     1     -30.033  27.153   5.964  0.00  0.00    +0.144 HD
ATOM     25  H   UNL     1     -29.888  27.526   7.580  0.00  0.00    +0.144 HD
ENDBRANCH  20  23
ENDBRANCH   4  20
BRANCH   3  26
ATOM     26  O   UNL     1     -34.571  27.859   2.426  0.00  0.00    -0.471 OA
ATOM     27  C   UNL     1     -35.467  28.892   2.022  0.00  0.00    +0.252 C 
ENDBRANCH   3  26
TORSDOF 7
ENDMDL
MODEL 9
REMARK VINA RESULT:      -5.7      3.760      5.344
REMARK  Name = 5355
REMARK  7 active torsions:
REMARK  status: ('A' for Active; 'I' for Inactive)
REMARK    1  A    between atoms: C_1  and  C_9
REMARK    2  A    between atoms: C_3  and  O_26
REMARK    3  A    between atoms: C_4  and  S_20
REMARK    4  A    between atoms: N_8  and  C_11
REMARK    5  A    between atoms: C_11  and  C_13
REMARK    6  A    between atoms: N_12  and  C_18
REMARK    7  A    between atoms: S_20  and  N_23
REMARK                            x       y       z     vdW  Elec       q    Type
REMARK                         _______ _______ _______ _____ _____    ______ ____
ROOT
ATOM      1  C   UNL     1     -36.211  25.176   3.950  0.00  0.00    +0.089 C 
ATOM      2  C   UNL     1     -35.568  26.319   3.520  0.00  0.00    +0.027 C 
ATOM      3  C   UNL     1     -35.704  24.385   4.961  0.00  0.00    +0.143 C 
ATOM      4  C   UNL     1     -34.367  26.686   4.127  0.00  0.00    +0.122 C 
ATOM      5  C   UNL     1     -34.504  24.752   5.568  0.00  0.00    +0.038 C 
ATOM      6  C   UNL     1     -33.834  25.903   5.151  0.00  0.00    +0.023 C 
ENDROOT
BRANCH   1   9
ATOM      7  O   UNL     1     -37.458  24.203   2.218  0.00  0.00    -0.270 OA
ATOM      8  N   UNL     1     -38.634  25.154   3.975  0.00  0.00    -0.303 N 
ATOM      9  C   UNL     1     -37.489  24.802   3.290  0.00  0.00    +0.249 C 
ATOM     10  H   UNL     1     -38.551  25.634   4.829  0.00  0.00    +0.150 HD
BRANCH   8  11
ATOM     11  C   UNL     1     -39.963  24.834   3.471  0.00  0.00    +0.069 C 
BRANCH  11  13
ATOM     12  N   UNL     1     -41.251  25.793   1.554  0.00  0.00    +0.389 N 
ATOM     13  C   UNL     1     -40.623  26.061   2.855  0.00  0.00    -0.038 C 
ATOM     14  C   UNL     1     -41.798  26.558   3.701  0.00  0.00    -0.021 C 
ATOM     15  C   UNL     1     -42.807  27.113   2.701  0.00  0.00    -0.025 C 
ATOM     16  C   UNL     1     -42.164  26.918   1.338  0.00  0.00    -0.077 C 
ATOM     17  H   UNL     1     -41.733  24.894   1.563  0.00  0.00    -0.080 HD
BRANCH  12  18
ATOM     18  C   UNL     1     -40.291  25.669   0.464  0.00  0.00    -0.077 C 
ATOM     19  C   UNL     1     -39.305  26.826   0.467  0.00  0.00    -0.025 C 
ENDBRANCH  12  18
ENDBRANCH  11  13
ENDBRANCH   8  11
ENDBRANCH   1   9
BRANCH   4  20
ATOM     20  S   UNL     1     -33.529  28.127   3.604  0.00  0.00    +0.057 S 
ATOM     21  O   UNL     1     -32.584  27.756   2.561  0.00  0.00    -0.153 OA
ATOM     22  O   UNL     1     -34.514  29.169   3.352  0.00  0.00    -0.153 OA
BRANCH  20  23
ATOM     23  N   UNL     1     -32.658  28.528   5.020  0.00  0.00    -0.203 NA
ATOM     24  H   UNL     1     -32.366  27.674   5.492  0.00  0.00    +0.144 HD
ATOM     25  H   UNL     1     -33.255  29.074   5.642  0.00  0.00    +0.144 HD
ENDBRANCH  20  23
ENDBRANCH   4  20
BRANCH   3  26
ATOM     26  O   UNL     1     -36.344  23.256   5.383  0.00  0.00    -0.471 OA
ATOM     27  C   UNL     1     -35.563  22.299   6.095  0.00  0.00    +0.252 C 
ENDBRANCH   3  26
TORSDOF 7
ENDMDL
