MODEL 1
REMARK VINA RESULT:      -6.4      0.000      0.000
REMARK  Name = 197468
REMARK  9 active torsions:
REMARK  status: ('A' for Active; 'I' for Inactive)
REMARK    1  A    between atoms: C_1  and  C_7
REMARK    2  A    between atoms: C_2  and  C_16
REMARK    3  A    between atoms: C_7  and  C_10
REMARK    4  A    between atoms: N_9  and  C_12
REMARK    5  A    between atoms: C_12  and  C_13
REMARK    6  A    between atoms: C_13  and  C_14
REMARK    7  A    between atoms: C_16  and  C_19
REMARK    8  A    between atoms: N_18  and  C_21
REMARK    9  A    between atoms: C_24  and  N_29
REMARK                            x       y       z     vdW  Elec       q    Type
REMARK                         _______ _______ _______ _____ _____    ______ ____
ROOT
ATOM      1  C   UNL     1     -36.453  23.999   3.943  0.00  0.00    -0.013 C 
ATOM      2  C   UNL     1     -34.706  25.531   5.485  0.00  0.00    -0.013 C 
ATOM      3  C   UNL     1     -36.793  25.306   4.289  0.00  0.00    -0.004 C 
ATOM      4  C   UNL     1     -35.240  23.457   4.368  0.00  0.00    -0.004 C 
ATOM      5  C   UNL     1     -35.919  26.073   5.060  0.00  0.00    -0.004 C 
ATOM      6  C   UNL     1     -34.366  24.223   5.139  0.00  0.00    -0.004 C 
ENDROOT
BRANCH   1   7
ATOM      7  C   UNL     1     -37.397  23.171   3.111  0.00  0.00    +0.111 C 
BRANCH   7  10
ATOM      8  O   UNL     1     -36.227  22.792   1.025  0.00  0.00    -0.275 OA
ATOM      9  N   UNL     1     -36.651  20.986   2.422  0.00  0.00    -0.304 N 
ATOM     10  C   UNL     1     -36.694  22.331   2.063  0.00  0.00    +0.227 C 
ATOM     11  H   UNL     1     -37.056  20.715   3.278  0.00  0.00    +0.149 HD
BRANCH   9  12
ATOM     12  C   UNL     1     -36.044  19.978   1.599  0.00  0.00    +0.089 C 
BRANCH  12  13
ATOM     13  C   UNL     1     -34.549  19.833   1.865  0.00  0.00    +0.021 C 
BRANCH  13  14
ATOM     14  C   UNL     1     -33.846  18.967   0.816  0.00  0.00    +0.002 C 
ATOM     15  C   UNL     1     -32.642  18.251   1.406  0.00  0.00    +0.000 C 
ENDBRANCH  13  14
ENDBRANCH  12  13
ENDBRANCH   9  12
ENDBRANCH   7  10
ENDBRANCH   1   7
BRANCH   2  16
ATOM     16  C   UNL     1     -33.772  26.352   6.310  0.00  0.00    +0.112 C 
BRANCH  16  19
ATOM     17  O   UNL     1     -32.604  27.009   4.307  0.00  0.00    -0.274 OA
ATOM     18  N   UNL     1     -32.326  28.275   6.266  0.00  0.00    -0.284 N 
ATOM     19  C   UNL     1     -32.836  27.235   5.491  0.00  0.00    +0.231 C 
ATOM     20  H   UNL     1     -32.625  28.304   7.204  0.00  0.00    +0.155 HD
BRANCH  18  21
ATOM     21  C   UNL     1     -31.432  29.293   5.862  0.00  0.00    +0.050 C 
ATOM     22  C   UNL     1     -31.900  30.381   5.123  0.00  0.00    +0.016 C 
ATOM     23  C   UNL     1     -30.081  29.212   6.204  0.00  0.00    +0.016 C 
ATOM     24  C   UNL     1     -29.668  31.305   5.069  0.00  0.00    +0.143 C 
ATOM     25  C   UNL     1     -31.018  31.386   4.728  0.00  0.00    +0.025 C 
ATOM     26  C   UNL     1     -29.200  30.217   5.808  0.00  0.00    +0.025 C 
BRANCH  24  29
ATOM     27  O   UNL     1     -29.151  33.172   3.819  0.00  0.00    -0.126 OA
ATOM     28  O   UNL     1     -27.621  32.362   5.169  0.00  0.00    -0.126 OA
ATOM     29  N   UNL     1     -28.770  32.328   4.666  0.00  0.00    +0.058 N 
ENDBRANCH  24  29
ENDBRANCH  18  21
ENDBRANCH  16  19
ENDBRANCH   2  16
TORSDOF 9
ENDMDL
MODEL 2
REMARK VINA RESULT:      -6.2      2.965     10.748
REMARK  Name = 197468
REMARK  9 active torsions:
REMARK  status: ('A' for Active; 'I' for Inactive)
REMARK    1  A    between atoms: C_1  and  C_7
REMARK    2  A    between atoms: C_2  and  C_16
REMARK    3  A    between atoms: C_7  and  C_10
REMARK    4  A    between atoms: N_9  and  C_12
REMARK    5  A    between atoms: C_12  and  C_13
REMARK    6  A    between atoms: C_13  and  C_14
REMARK    7  A    between atoms: C_16  and  C_19
REMARK    8  A    between atoms: N_18  and  C_21
REMARK    9  A    between atoms: C_24  and  N_29
REMARK                            x       y       z     vdW  Elec       q    Type
REMARK                         _______ _______ _______ _____ _____    ______ ____
ROOT
ATOM      1  C   UNL     1     -35.286  24.955   4.845  0.00  0.00    -0.013 C 
ATOM      2  C   UNL     1     -36.312  23.174   2.959  0.00  0.00    -0.013 C 
ATOM      3  C   UNL     1     -34.984  23.596   4.933  0.00  0.00    -0.004 C 
ATOM      4  C   UNL     1     -36.101  25.424   3.814  0.00  0.00    -0.004 C 
ATOM      5  C   UNL     1     -35.497  22.705   3.989  0.00  0.00    -0.004 C 
ATOM      6  C   UNL     1     -36.614  24.534   2.871  0.00  0.00    -0.004 C 
ENDROOT
BRANCH   1   7
ATOM      7  C   UNL     1     -34.732  25.916   5.864  0.00  0.00    +0.111 C 
BRANCH   7  10
ATOM      8  O   UNL     1     -32.934  26.411   4.318  0.00  0.00    -0.275 OA
ATOM      9  N   UNL     1     -32.925  27.412   6.413  0.00  0.00    -0.304 N 
ATOM     10  C   UNL     1     -33.446  26.586   5.420  0.00  0.00    +0.227 C 
ATOM     11  H   UNL     1     -33.411  27.486   7.266  0.00  0.00    +0.149 HD
BRANCH   9  12
ATOM     12  C   UNL     1     -31.710  28.159   6.247  0.00  0.00    +0.089 C 
BRANCH  12  13
ATOM     13  C   UNL     1     -31.747  29.499   6.975  0.00  0.00    +0.021 C 
BRANCH  13  14
ATOM     14  C   UNL     1     -32.008  30.674   6.030  0.00  0.00    +0.002 C 
ATOM     15  C   UNL     1     -32.078  30.218   4.582  0.00  0.00    +0.000 C 
ENDBRANCH  13  14
ENDBRANCH  12  13
ENDBRANCH   9  12
ENDBRANCH   7  10
ENDBRANCH   1   7
BRANCH   2  16
ATOM     16  C   UNL     1     -36.861  22.221   1.951  0.00  0.00    +0.112 C 
BRANCH  16  19
ATOM     17  O   UNL     1     -36.608  20.024   2.908  0.00  0.00    -0.274 OA
ATOM     18  N   UNL     1     -35.334  20.609   1.023  0.00  0.00    -0.284 N 
ATOM     19  C   UNL     1     -36.266  20.819   2.037  0.00  0.00    +0.231 C 
ATOM     20  H   UNL     1     -35.186  21.363   0.407  0.00  0.00    +0.155 HD
BRANCH  18  21
ATOM     21  C   UNL     1     -34.577  19.441   0.776  0.00  0.00    +0.050 C 
ATOM     22  C   UNL     1     -34.997  18.529  -0.193  0.00  0.00    +0.016 C 
ATOM     23  C   UNL     1     -33.407  19.201   1.498  0.00  0.00    +0.016 C 
ATOM     24  C   UNL     1     -33.080  17.138   0.284  0.00  0.00    +0.143 C 
ATOM     25  C   UNL     1     -34.249  17.378  -0.438  0.00  0.00    +0.025 C 
ATOM     26  C   UNL     1     -32.659  18.051   1.253  0.00  0.00    +0.025 C 
BRANCH  24  29
ATOM     27  O   UNL     1     -31.143  15.901   0.469  0.00  0.00    -0.126 OA
ATOM     28  O   UNL     1     -32.842  15.028  -0.614  0.00  0.00    -0.126 OA
ATOM     29  N   UNL     1     -32.318  15.966   0.034  0.00  0.00    +0.058 N 
ENDBRANCH  24  29
ENDBRANCH  18  21
ENDBRANCH  16  19
ENDBRANCH   2  16
TORSDOF 9
ENDMDL
MODEL 3
REMARK VINA RESULT:      -6.2      1.844      3.171
REMARK  Name = 197468
REMARK  9 active torsions:
REMARK  status: ('A' for Active; 'I' for Inactive)
REMARK    1  A    between atoms: C_1  and  C_7
REMARK    2  A    between atoms: C_2  and  C_16
REMARK    3  A    between atoms: C_7  and  C_10
REMARK    4  A    between atoms: N_9  and  C_12
REMARK    5  A    between atoms: C_12  and  C_13
REMARK    6  A    between atoms: C_13  and  C_14
REMARK    7  A    between atoms: C_16  and  C_19
REMARK    8  A    between atoms: N_18  and  C_21
REMARK    9  A    between atoms: C_24  and  N_29
REMARK                            x       y       z     vdW  Elec       q    Type
REMARK                         _______ _______ _______ _____ _____    ______ ____
ROOT
ATOM      1  C   UNL     1     -35.456  22.271   3.596  0.00  0.00    -0.013 C 
ATOM      2  C   UNL     1     -35.280  24.794   4.773  0.00  0.00    -0.013 C 
ATOM      3  C   UNL     1     -35.197  23.391   2.807  0.00  0.00    -0.004 C 
ATOM      4  C   UNL     1     -35.626  22.411   4.974  0.00  0.00    -0.004 C 
ATOM      5  C   UNL     1     -35.109  24.653   3.395  0.00  0.00    -0.004 C 
ATOM      6  C   UNL     1     -35.538  23.673   5.562  0.00  0.00    -0.004 C 
ENDROOT
BRANCH   1   7
ATOM      7  C   UNL     1     -35.551  20.909   2.961  0.00  0.00    +0.111 C 
BRANCH   7  10
ATOM      8  O   UNL     1     -36.506  20.365   0.802  0.00  0.00    -0.275 OA
ATOM      9  N   UNL     1     -37.879  21.258   2.447  0.00  0.00    -0.304 N 
ATOM     10  C   UNL     1     -36.667  20.800   1.938  0.00  0.00    +0.227 C 
ATOM     11  H   UNL     1     -37.905  21.590   3.374  0.00  0.00    +0.149 HD
BRANCH   9  12
ATOM     12  C   UNL     1     -39.092  21.268   1.679  0.00  0.00    +0.089 C 
BRANCH  12  13
ATOM     13  C   UNL     1     -39.711  22.659   1.586  0.00  0.00    +0.021 C 
BRANCH  13  14
ATOM     14  C   UNL     1     -39.089  23.647   2.576  0.00  0.00    +0.002 C 
ATOM     15  C   UNL     1     -38.521  24.864   1.863  0.00  0.00    +0.000 C 
ENDBRANCH  13  14
ENDBRANCH  12  13
ENDBRANCH   9  12
ENDBRANCH   7  10
ENDBRANCH   1   7
BRANCH   2  16
ATOM     16  C   UNL     1     -35.186  26.143   5.401  0.00  0.00    +0.112 C 
BRANCH  16  19
ATOM     17  O   UNL     1     -33.041  26.047   6.496  0.00  0.00    -0.274 OA
ATOM     18  N   UNL     1     -33.423  27.689   4.862  0.00  0.00    -0.284 N 
ATOM     19  C   UNL     1     -33.756  26.604   5.668  0.00  0.00    +0.231 C 
ATOM     20  H   UNL     1     -34.125  28.006   4.249  0.00  0.00    +0.155 HD
BRANCH  18  21
ATOM     21  C   UNL     1     -32.194  28.389   4.821  0.00  0.00    +0.050 C 
ATOM     22  C   UNL     1     -31.904  29.346   5.795  0.00  0.00    +0.016 C 
ATOM     23  C   UNL     1     -31.271  28.121   3.810  0.00  0.00    +0.016 C 
ATOM     24  C   UNL     1     -29.768  29.766   4.745  0.00  0.00    +0.143 C 
ATOM     25  C   UNL     1     -30.691  30.033   5.756  0.00  0.00    +0.025 C 
ATOM     26  C   UNL     1     -30.059  28.809   3.772  0.00  0.00    +0.025 C 
BRANCH  24  29
ATOM     27  O   UNL     1     -27.810  30.365   3.686  0.00  0.00    -0.126 OA
ATOM     28  O   UNL     1     -28.203  31.170   5.691  0.00  0.00    -0.126 OA
ATOM     29  N   UNL     1     -28.534  30.467   4.706  0.00  0.00    +0.058 N 
ENDBRANCH  24  29
ENDBRANCH  18  21
ENDBRANCH  16  19
ENDBRANCH   2  16
TORSDOF 9
ENDMDL
MODEL 4
REMARK VINA RESULT:      -6.2      1.153      1.587
REMARK  Name = 197468
REMARK  9 active torsions:
REMARK  status: ('A' for Active; 'I' for Inactive)
REMARK    1  A    between atoms: C_1  and  C_7
REMARK    2  A    between atoms: C_2  and  C_16
REMARK    3  A    between atoms: C_7  and  C_10
REMARK    4  A    between atoms: N_9  and  C_12
REMARK    5  A    between atoms: C_12  and  C_13
REMARK    6  A    between atoms: C_13  and  C_14
REMARK    7  A    between atoms: C_16  and  C_19
REMARK    8  A    between atoms: N_18  and  C_21
REMARK    9  A    between atoms: C_24  and  N_29
REMARK                            x       y       z     vdW  Elec       q    Type
REMARK                         _______ _______ _______ _____ _____    ______ ____
ROOT
ATOM      1  C   UNL     1     -36.440  23.303   3.558  0.00  0.00    -0.013 C 
ATOM      2  C   UNL     1     -35.031  25.035   5.230  0.00  0.00    -0.013 C 
ATOM      3  C   UNL     1     -35.369  22.825   4.313  0.00  0.00    -0.004 C 
ATOM      4  C   UNL     1     -36.807  24.646   3.638  0.00  0.00    -0.004 C 
ATOM      5  C   UNL     1     -34.664  23.691   5.150  0.00  0.00    -0.004 C 
ATOM      6  C   UNL     1     -36.102  25.512   4.474  0.00  0.00    -0.004 C 
ENDROOT
BRANCH   1   7
ATOM      7  C   UNL     1     -37.200  22.368   2.654  0.00  0.00    +0.111 C 
BRANCH   7  10
ATOM      8  O   UNL     1     -36.208  20.159   2.583  0.00  0.00    -0.275 OA
ATOM      9  N   UNL     1     -35.715  21.670   0.890  0.00  0.00    -0.304 N 
ATOM     10  C   UNL     1     -36.337  21.266   2.069  0.00  0.00    +0.227 C 
ATOM     11  H   UNL     1     -35.882  22.581   0.558  0.00  0.00    +0.149 HD
BRANCH   9  12
ATOM     12  C   UNL     1     -34.839  20.814   0.139  0.00  0.00    +0.089 C 
BRANCH  12  13
ATOM     13  C   UNL     1     -33.386  20.934   0.585  0.00  0.00    +0.021 C 
BRANCH  13  14
ATOM     14  C   UNL     1     -32.611  19.624   0.426  0.00  0.00    +0.002 C 
ATOM     15  C   UNL     1     -33.052  18.591   1.450  0.00  0.00    +0.000 C 
ENDBRANCH  13  14
ENDBRANCH  12  13
ENDBRANCH   9  12
ENDBRANCH   7  10
ENDBRANCH   1   7
BRANCH   2  16
ATOM     16  C   UNL     1     -34.277  25.961   6.124  0.00  0.00    +0.112 C 
BRANCH  16  19
ATOM     17  O   UNL     1     -32.952  26.617   4.221  0.00  0.00    -0.274 OA
ATOM     18  N   UNL     1     -32.688  27.763   6.254  0.00  0.00    -0.284 N 
ATOM     19  C   UNL     1     -33.231  26.805   5.401  0.00  0.00    +0.231 C 
ATOM     20  H   UNL     1     -33.036  27.771   7.175  0.00  0.00    +0.155 HD
BRANCH  18  21
ATOM     21  C   UNL     1     -31.697  28.725   5.950  0.00  0.00    +0.050 C 
ATOM     22  C   UNL     1     -32.070  29.991   5.494  0.00  0.00    +0.016 C 
ATOM     23  C   UNL     1     -30.347  28.411   6.108  0.00  0.00    +0.016 C 
ATOM     24  C   UNL     1     -29.743  30.626   5.355  0.00  0.00    +0.143 C 
ATOM     25  C   UNL     1     -31.092  30.940   5.198  0.00  0.00    +0.025 C 
ATOM     26  C   UNL     1     -29.370  29.360   5.811  0.00  0.00    +0.025 C 
BRANCH  24  29
ATOM     27  O   UNL     1     -27.888  31.873   5.923  0.00  0.00    -0.126 OA
ATOM     28  O   UNL     1     -28.754  32.138   3.923  0.00  0.00    -0.126 OA
ATOM     29  N   UNL     1     -28.748  31.592   5.053  0.00  0.00    +0.058 N 
ENDBRANCH  24  29
ENDBRANCH  18  21
ENDBRANCH  16  19
ENDBRANCH   2  16
TORSDOF 9
ENDMDL
MODEL 5
REMARK VINA RESULT:      -6.1      3.607     10.145
REMARK  Name = 197468
REMARK  9 active torsions:
REMARK  status: ('A' for Active; 'I' for Inactive)
REMARK    1  A    between atoms: C_1  and  C_7
REMARK    2  A    between atoms: C_2  and  C_16
REMARK    3  A    between atoms: C_7  and  C_10
REMARK    4  A    between atoms: N_9  and  C_12
REMARK    5  A    between atoms: C_12  and  C_13
REMARK    6  A    between atoms: C_13  and  C_14
REMARK    7  A    between atoms: C_16  and  C_19
REMARK    8  A    between atoms: N_18  and  C_21
REMARK    9  A    between atoms: C_24  and  N_29
REMARK                            x       y       z     vdW  Elec       q    Type
REMARK                         _______ _______ _______ _____ _____    ______ ____
ROOT
ATOM      1  C   UNL     1     -35.929  24.505   4.824  0.00  0.00    -0.013 C 
ATOM      2  C   UNL     1     -36.524  22.540   2.936  0.00  0.00    -0.013 C 
ATOM      3  C   UNL     1     -36.969  24.703   3.917  0.00  0.00    -0.004 C 
ATOM      4  C   UNL     1     -35.185  23.324   4.788  0.00  0.00    -0.004 C 
ATOM      5  C   UNL     1     -37.268  23.720   2.972  0.00  0.00    -0.004 C 
ATOM      6  C   UNL     1     -35.484  22.342   3.844  0.00  0.00    -0.004 C 
ENDROOT
BRANCH   1   7
ATOM      7  C   UNL     1     -35.606  25.566   5.843  0.00  0.00    +0.111 C 
BRANCH   7  10
ATOM      8  O   UNL     1     -33.367  26.378   6.283  0.00  0.00    -0.275 OA
ATOM      9  N   UNL     1     -34.410  26.973   4.295  0.00  0.00    -0.304 N 
ATOM     10  C   UNL     1     -34.335  26.332   5.530  0.00  0.00    +0.227 C 
ATOM     11  H   UNL     1     -35.233  26.875   3.764  0.00  0.00    +0.149 HD
BRANCH   9  12
ATOM     12  C   UNL     1     -33.339  27.770   3.765  0.00  0.00    +0.089 C 
BRANCH  12  13
ATOM     13  C   UNL     1     -32.894  27.301   2.384  0.00  0.00    +0.021 C 
BRANCH  13  14
ATOM     14  C   UNL     1     -32.761  25.779   2.293  0.00  0.00    +0.002 C 
ATOM     15  C   UNL     1     -33.881  25.173   1.461  0.00  0.00    +0.000 C 
ENDBRANCH  13  14
ENDBRANCH  12  13
ENDBRANCH   9  12
ENDBRANCH   7  10
ENDBRANCH   1   7
BRANCH   2  16
ATOM     16  C   UNL     1     -36.844  21.489   1.926  0.00  0.00    +0.112 C 
BRANCH  16  19
ATOM     17  O   UNL     1     -34.931  21.667   0.470  0.00  0.00    -0.274 OA
ATOM     18  N   UNL     1     -35.439  19.594   1.450  0.00  0.00    -0.284 N 
ATOM     19  C   UNL     1     -35.623  20.949   1.187  0.00  0.00    +0.231 C 
ATOM     20  H   UNL     1     -36.095  19.177   2.055  0.00  0.00    +0.155 HD
BRANCH  18  21
ATOM     21  C   UNL     1     -34.422  18.748   0.951  0.00  0.00    +0.050 C 
ATOM     22  C   UNL     1     -33.150  18.773   1.525  0.00  0.00    +0.016 C 
ATOM     23  C   UNL     1     -34.689  17.888  -0.114  0.00  0.00    +0.016 C 
ATOM     24  C   UNL     1     -32.415  17.076  -0.030  0.00  0.00    +0.143 C 
ATOM     25  C   UNL     1     -32.148  17.937   1.034  0.00  0.00    +0.025 C 
ATOM     26  C   UNL     1     -33.687  17.052  -0.604  0.00  0.00    +0.025 C 
BRANCH  24  29
ATOM     27  O   UNL     1     -30.591  15.699   0.278  0.00  0.00    -0.126 OA
ATOM     28  O   UNL     1     -31.324  16.022  -1.766  0.00  0.00    -0.126 OA
ATOM     29  N   UNL     1     -31.394  16.226  -0.530  0.00  0.00    +0.058 N 
ENDBRANCH  24  29
ENDBRANCH  18  21
ENDBRANCH  16  19
ENDBRANCH   2  16
TORSDOF 9
ENDMDL
MODEL 6
REMARK VINA RESULT:      -6.1      2.607     10.276
REMARK  Name = 197468
REMARK  9 active torsions:
REMARK  status: ('A' for Active; 'I' for Inactive)
REMARK    1  A    between atoms: C_1  and  C_7
REMARK    2  A    between atoms: C_2  and  C_16
REMARK    3  A    between atoms: C_7  and  C_10
REMARK    4  A    between atoms: N_9  and  C_12
REMARK    5  A    between atoms: C_12  and  C_13
REMARK    6  A    between atoms: C_13  and  C_14
REMARK    7  A    between atoms: C_16  and  C_19
REMARK    8  A    between atoms: N_18  and  C_21
REMARK    9  A    between atoms: C_24  and  N_29
REMARK                            x       y       z     vdW  Elec       q    Type
REMARK                         _______ _______ _______ _____ _____    ______ ____
ROOT
ATOM      1  C   UNL     1     -34.708  26.572   3.941  0.00  0.00    -0.013 C 
ATOM      2  C   UNL     1     -35.291  24.160   5.214  0.00  0.00    -0.013 C 
ATOM      3  C   UNL     1     -33.752  25.558   3.983  0.00  0.00    -0.004 C 
ATOM      4  C   UNL     1     -35.956  26.381   4.534  0.00  0.00    -0.004 C 
ATOM      5  C   UNL     1     -34.043  24.351   4.620  0.00  0.00    -0.004 C 
ATOM      6  C   UNL     1     -36.247  25.175   5.171  0.00  0.00    -0.004 C 
ENDROOT
BRANCH   1   7
ATOM      7  C   UNL     1     -34.393  27.875   3.254  0.00  0.00    +0.111 C 
BRANCH   7  10
ATOM      8  O   UNL     1     -32.136  28.621   2.789  0.00  0.00    -0.275 OA
ATOM      9  N   UNL     1     -32.911  28.675   4.977  0.00  0.00    -0.304 N 
ATOM     10  C   UNL     1     -33.026  28.427   3.612  0.00  0.00    +0.227 C 
ATOM     11  H   UNL     1     -33.684  28.485   5.557  0.00  0.00    +0.149 HD
BRANCH   9  12
ATOM     12  C   UNL     1     -31.714  29.196   5.577  0.00  0.00    +0.089 C 
BRANCH  12  13
ATOM     13  C   UNL     1     -31.784  30.703   5.800  0.00  0.00    +0.021 C 
BRANCH  13  14
ATOM     14  C   UNL     1     -30.807  31.476   4.912  0.00  0.00    +0.002 C 
ATOM     15  C   UNL     1     -31.494  32.012   3.666  0.00  0.00    +0.000 C 
ENDBRANCH  13  14
ENDBRANCH  12  13
ENDBRANCH   9  12
ENDBRANCH   7  10
ENDBRANCH   1   7
BRANCH   2  16
ATOM     16  C   UNL     1     -35.602  22.869   5.894  0.00  0.00    +0.112 C 
BRANCH  16  19
ATOM     17  O   UNL     1     -34.986  20.586   5.426  0.00  0.00    -0.274 OA
ATOM     18  N   UNL     1     -35.877  21.912   3.704  0.00  0.00    -0.284 N 
ATOM     19  C   UNL     1     -35.442  21.643   4.999  0.00  0.00    +0.231 C 
ATOM     20  H   UNL     1     -36.218  22.821   3.540  0.00  0.00    +0.155 HD
BRANCH  18  21
ATOM     21  C   UNL     1     -35.887  21.031   2.597  0.00  0.00    +0.050 C 
ATOM     22  C   UNL     1     -37.056  20.857   1.854  0.00  0.00    +0.016 C 
ATOM     23  C   UNL     1     -34.728  20.338   2.246  0.00  0.00    +0.016 C 
ATOM     24  C   UNL     1     -35.906  19.297   0.411  0.00  0.00    +0.143 C 
ATOM     25  C   UNL     1     -37.064  19.990   0.762  0.00  0.00    +0.025 C 
ATOM     26  C   UNL     1     -34.737  19.472   1.154  0.00  0.00    +0.025 C 
BRANCH  24  29
ATOM     27  O   UNL     1     -35.917  17.177  -0.495  0.00  0.00    -0.126 OA
ATOM     28  O   UNL     1     -35.922  18.897  -1.860  0.00  0.00    -0.126 OA
ATOM     29  N   UNL     1     -35.915  18.415  -0.701  0.00  0.00    +0.058 N 
ENDBRANCH  24  29
ENDBRANCH  18  21
ENDBRANCH  16  19
ENDBRANCH   2  16
TORSDOF 9
ENDMDL
MODEL 7
REMARK VINA RESULT:      -6.1      2.788      9.999
REMARK  Name = 197468
REMARK  9 active torsions:
REMARK  status: ('A' for Active; 'I' for Inactive)
REMARK    1  A    between atoms: C_1  and  C_7
REMARK    2  A    between atoms: C_2  and  C_16
REMARK    3  A    between atoms: C_7  and  C_10
REMARK    4  A    between atoms: N_9  and  C_12
REMARK    5  A    between atoms: C_12  and  C_13
REMARK    6  A    between atoms: C_13  and  C_14
REMARK    7  A    between atoms: C_16  and  C_19
REMARK    8  A    between atoms: N_18  and  C_21
REMARK    9  A    between atoms: C_24  and  N_29
REMARK                            x       y       z     vdW  Elec       q    Type
REMARK                         _______ _______ _______ _____ _____    ______ ____
ROOT
ATOM      1  C   UNL     1     -34.568  25.597   5.516  0.00  0.00    -0.013 C 
ATOM      2  C   UNL     1     -36.310  23.989   4.046  0.00  0.00    -0.013 C 
ATOM      3  C   UNL     1     -35.915  25.941   5.414  0.00  0.00    -0.004 C 
ATOM      4  C   UNL     1     -34.091  24.448   4.883  0.00  0.00    -0.004 C 
ATOM      5  C   UNL     1     -36.787  25.137   4.679  0.00  0.00    -0.004 C 
ATOM      6  C   UNL     1     -34.962  23.645   4.148  0.00  0.00    -0.004 C 
ENDROOT
BRANCH   1   7
ATOM      7  C   UNL     1     -33.627  26.465   6.309  0.00  0.00    +0.111 C 
BRANCH   7  10
ATOM      8  O   UNL     1     -31.642  27.716   5.707  0.00  0.00    -0.275 OA
ATOM      9  N   UNL     1     -33.509  27.838   4.333  0.00  0.00    -0.304 N 
ATOM     10  C   UNL     1     -32.797  27.396   5.445  0.00  0.00    +0.227 C 
ATOM     11  H   UNL     1     -34.434  27.524   4.210  0.00  0.00    +0.149 HD
BRANCH   9  12
ATOM     12  C   UNL     1     -32.953  28.734   3.357  0.00  0.00    +0.089 C 
BRANCH  12  13
ATOM     13  C   UNL     1     -33.483  28.466   1.952  0.00  0.00    +0.021 C 
BRANCH  13  14
ATOM     14  C   UNL     1     -34.726  27.573   1.953  0.00  0.00    +0.002 C 
ATOM     15  C   UNL     1     -34.418  26.193   1.395  0.00  0.00    +0.000 C 
ENDBRANCH  13  14
ENDBRANCH  12  13
ENDBRANCH   9  12
ENDBRANCH   7  10
ENDBRANCH   1   7
BRANCH   2  16
ATOM     16  C   UNL     1     -37.243  23.130   3.260  0.00  0.00    +0.112 C 
BRANCH  16  19
ATOM     17  O   UNL     1     -36.319  22.950   1.042  0.00  0.00    -0.274 OA
ATOM     18  N   UNL     1     -36.327  21.062   2.439  0.00  0.00    -0.284 N 
ATOM     19  C   UNL     1     -36.577  22.390   2.103  0.00  0.00    +0.231 C 
ATOM     20  H   UNL     1     -36.602  20.783   3.342  0.00  0.00    +0.155 HD
BRANCH  18  21
ATOM     21  C   UNL     1     -35.726  20.067   1.633  0.00  0.00    +0.050 C 
ATOM     22  C   UNL     1     -36.482  19.399   0.668  0.00  0.00    +0.016 C 
ATOM     23  C   UNL     1     -34.377  19.755   1.800  0.00  0.00    +0.016 C 
ATOM     24  C   UNL     1     -34.540  18.108   0.039  0.00  0.00    +0.143 C 
ATOM     25  C   UNL     1     -35.888  18.421  -0.127  0.00  0.00    +0.025 C 
ATOM     26  C   UNL     1     -33.784  18.776   1.004  0.00  0.00    +0.025 C 
BRANCH  24  29
ATOM     27  O   UNL     1     -34.581  16.640  -1.738  0.00  0.00    -0.126 OA
ATOM     28  O   UNL     1     -32.771  16.730  -0.499  0.00  0.00    -0.126 OA
ATOM     29  N   UNL     1     -33.935  17.111  -0.771  0.00  0.00    +0.058 N 
ENDBRANCH  24  29
ENDBRANCH  18  21
ENDBRANCH  16  19
ENDBRANCH   2  16
TORSDOF 9
ENDMDL
MODEL 8
REMARK VINA RESULT:      -6.1      2.322     10.607
REMARK  Name = 197468
REMARK  9 active torsions:
REMARK  status: ('A' for Active; 'I' for Inactive)
REMARK    1  A    between atoms: C_1  and  C_7
REMARK    2  A    between atoms: C_2  and  C_16
REMARK    3  A    between atoms: C_7  and  C_10
REMARK    4  A    between atoms: N_9  and  C_12
REMARK    5  A    between atoms: C_12  and  C_13
REMARK    6  A    between atoms: C_13  and  C_14
REMARK    7  A    between atoms: C_16  and  C_19
REMARK    8  A    between atoms: N_18  and  C_21
REMARK    9  A    between atoms: C_24  and  N_29
REMARK                            x       y       z     vdW  Elec       q    Type
REMARK                         _______ _______ _______ _____ _____    ______ ____
ROOT
ATOM      1  C   UNL     1     -34.601  25.540   5.637  0.00  0.00    -0.013 C 
ATOM      2  C   UNL     1     -36.264  24.068   3.950  0.00  0.00    -0.013 C 
ATOM      3  C   UNL     1     -34.159  24.328   5.108  0.00  0.00    -0.004 C 
ATOM      4  C   UNL     1     -35.873  26.017   5.323  0.00  0.00    -0.004 C 
ATOM      5  C   UNL     1     -34.991  23.591   4.264  0.00  0.00    -0.004 C 
ATOM      6  C   UNL     1     -36.705  25.281   4.479  0.00  0.00    -0.004 C 
ENDROOT
BRANCH   1   7
ATOM      7  C   UNL     1     -33.703  26.335   6.549  0.00  0.00    +0.111 C 
BRANCH   7  10
ATOM      8  O   UNL     1     -32.645  27.291   4.591  0.00  0.00    -0.275 OA
ATOM      9  N   UNL     1     -32.180  28.197   6.678  0.00  0.00    -0.304 N 
ATOM     10  C   UNL     1     -32.802  27.304   5.809  0.00  0.00    +0.227 C 
ATOM     11  H   UNL     1     -32.371  28.126   7.642  0.00  0.00    +0.149 HD
BRANCH   9  12
ATOM     12  C   UNL     1     -31.271  29.215   6.231  0.00  0.00    +0.089 C 
BRANCH  12  13
ATOM     13  C   UNL     1     -31.958  30.563   6.036  0.00  0.00    +0.021 C 
BRANCH  13  14
ATOM     14  C   UNL     1     -31.904  31.047   4.585  0.00  0.00    +0.002 C 
ATOM     15  C   UNL     1     -30.603  31.777   4.292  0.00  0.00    +0.000 C 
ENDBRANCH  13  14
ENDBRANCH  12  13
ENDBRANCH   9  12
ENDBRANCH   7  10
ENDBRANCH   1   7
BRANCH   2  16
ATOM     16  C   UNL     1     -37.153  23.280   3.048  0.00  0.00    +0.112 C 
BRANCH  16  19
ATOM     17  O   UNL     1     -35.993  23.040   0.948  0.00  0.00    -0.274 OA
ATOM     18  N   UNL     1     -36.278  21.159   2.324  0.00  0.00    -0.284 N 
ATOM     19  C   UNL     1     -36.405  22.500   1.970  0.00  0.00    +0.231 C 
ATOM     20  H   UNL     1     -36.670  20.899   3.189  0.00  0.00    +0.155 HD
BRANCH  18  21
ATOM     21  C   UNL     1     -35.650  20.128   1.587  0.00  0.00    +0.050 C 
ATOM     22  C   UNL     1     -36.375  19.412   0.633  0.00  0.00    +0.016 C 
ATOM     23  C   UNL     1     -34.306  19.828   1.810  0.00  0.00    +0.016 C 
ATOM     24  C   UNL     1     -34.412  18.097   0.128  0.00  0.00    +0.143 C 
ATOM     25  C   UNL     1     -35.755  18.397  -0.096  0.00  0.00    +0.025 C 
ATOM     26  C   UNL     1     -33.687  18.813   1.082  0.00  0.00    +0.025 C 
BRANCH  24  29
ATOM     27  O   UNL     1     -32.728  17.323  -1.245  0.00  0.00    -0.126 OA
ATOM     28  O   UNL     1     -34.294  15.918  -0.617  0.00  0.00    -0.126 OA
ATOM     29  N   UNL     1     -33.782  17.064  -0.614  0.00  0.00    +0.058 N 
ENDBRANCH  24  29
ENDBRANCH  18  21
ENDBRANCH  16  19
ENDBRANCH   2  16
TORSDOF 9
ENDMDL
MODEL 9
REMARK VINA RESULT:      -6.1      3.435     10.152
REMARK  Name = 197468
REMARK  9 active torsions:
REMARK  status: ('A' for Active; 'I' for Inactive)
REMARK    1  A    between atoms: C_1  and  C_7
REMARK    2  A    between atoms: C_2  and  C_16
REMARK    3  A    between atoms: C_7  and  C_10
REMARK    4  A    between atoms: N_9  and  C_12
REMARK    5  A    between atoms: C_12  and  C_13
REMARK    6  A    between atoms: C_13  and  C_14
REMARK    7  A    between atoms: C_16  and  C_19
REMARK    8  A    between atoms: N_18  and  C_21
REMARK    9  A    between atoms: C_24  and  N_29
REMARK                            x       y       z     vdW  Elec       q    Type
REMARK                         _______ _______ _______ _____ _____    ______ ____
ROOT
ATOM      1  C   UNL     1     -34.678  24.022   4.795  0.00  0.00    -0.013 C 
ATOM      2  C   UNL     1     -35.581  21.834   3.320  0.00  0.00    -0.013 C 
ATOM      3  C   UNL     1     -35.052  22.849   5.449  0.00  0.00    -0.004 C 
ATOM      4  C   UNL     1     -34.755  24.103   3.404  0.00  0.00    -0.004 C 
ATOM      5  C   UNL     1     -35.504  21.753   4.711  0.00  0.00    -0.004 C 
ATOM      6  C   UNL     1     -35.206  23.008   2.667  0.00  0.00    -0.004 C 
ENDROOT
BRANCH   1   7
ATOM      7  C   UNL     1     -34.191  25.204   5.591  0.00  0.00    +0.111 C 
BRANCH   7  10
ATOM      8  O   UNL     1     -35.327  27.040   4.494  0.00  0.00    -0.275 OA
ATOM      9  N   UNL     1     -33.006  27.033   4.563  0.00  0.00    -0.304 N 
ATOM     10  C   UNL     1     -34.271  26.514   4.831  0.00  0.00    +0.227 C 
ATOM     11  H   UNL     1     -32.217  26.534   4.876  0.00  0.00    +0.149 HD
BRANCH   9  12
ATOM     12  C   UNL     1     -32.804  28.263   3.851  0.00  0.00    +0.089 C 
BRANCH  12  13
ATOM     13  C   UNL     1     -31.654  29.085   4.424  0.00  0.00    +0.021 C 
BRANCH  13  14
ATOM     14  C   UNL     1     -32.106  30.036   5.534  0.00  0.00    +0.002 C 
ATOM     15  C   UNL     1     -31.549  29.617   6.885  0.00  0.00    +0.000 C 
ENDBRANCH  13  14
ENDBRANCH  12  13
ENDBRANCH   9  12
ENDBRANCH   7  10
ENDBRANCH   1   7
BRANCH   2  16
ATOM     16  C   UNL     1     -36.064  20.663   2.532  0.00  0.00    +0.112 C 
BRANCH  16  19
ATOM     17  O   UNL     1     -35.432  20.502   0.212  0.00  0.00    -0.274 OA
ATOM     18  N   UNL     1     -33.994  19.641   1.856  0.00  0.00    -0.284 N 
ATOM     19  C   UNL     1     -35.143  20.268   1.382  0.00  0.00    +0.231 C 
ATOM     20  H   UNL     1     -33.927  19.537   2.834  0.00  0.00    +0.155 HD
BRANCH  18  21
ATOM     21  C   UNL     1     -32.911  19.135   1.099  0.00  0.00    +0.050 C 
ATOM     22  C   UNL     1     -32.670  17.761   1.059  0.00  0.00    +0.016 C 
ATOM     23  C   UNL     1     -32.087  20.009   0.390  0.00  0.00    +0.016 C 
ATOM     24  C   UNL     1     -30.780  18.136  -0.399  0.00  0.00    +0.143 C 
ATOM     25  C   UNL     1     -31.604  17.263   0.310  0.00  0.00    +0.025 C 
ATOM     26  C   UNL     1     -31.022  19.510  -0.358  0.00  0.00    +0.025 C 
BRANCH  24  29
ATOM     27  O   UNL     1     -29.241  18.317  -2.106  0.00  0.00    -0.126 OA
ATOM     28  O   UNL     1     -29.218  16.505  -0.867  0.00  0.00    -0.126 OA
ATOM     29  N   UNL     1     -29.695  17.628  -1.161  0.00  0.00    +0.058 N 
ENDBRANCH  24  29
ENDBRANCH  18  21
ENDBRANCH  16  19
ENDBRANCH   2  16
TORSDOF 9
ENDMDL
