MODEL 1
REMARK VINA RESULT:      -7.7      0.000      0.000
REMARK  Name = 5482346
REMARK  2 active torsions:
REMARK  status: ('A' for Active; 'I' for Inactive)
REMARK    1  A    between atoms: C_24  and  O_29
REMARK    2  A    between atoms: C_25  and  O_31
REMARK                            x       y       z     vdW  Elec       q    Type
REMARK                         _______ _______ _______ _____ _____    ______ ____
ROOT
ATOM      1  O   UNL     1     -36.629  20.895   2.473  0.00  0.00    -0.270 OA
ATOM      2  O   UNL     1     -40.743  21.257   0.413  0.00  0.00    -0.270 OA
ATOM      3  N   UNL     1     -37.882  26.077   3.836  0.00  0.00    -0.352 N 
ATOM      4  N   UNL     1     -40.363  26.296   2.592  0.00  0.00    -0.352 N 
ATOM      5  N   UNL     1     -38.655  20.708   1.317  0.00  0.00    -0.248 N 
ATOM      6  C   UNL     1     -37.731  23.777   3.016  0.00  0.00    +0.023 A 
ATOM      7  C   UNL     1     -40.122  23.987   1.818  0.00  0.00    +0.023 A 
ATOM      8  C   UNL     1     -38.406  25.038   3.148  0.00  0.00    +0.073 A 
ATOM      9  C   UNL     1     -39.654  25.147   2.523  0.00  0.00    +0.073 A 
ATOM     10  C   UNL     1     -38.209  22.666   2.325  0.00  0.00    +0.060 A 
ATOM     11  C   UNL     1     -39.447  22.775   1.704  0.00  0.00    +0.060 A 
ATOM     12  C   UNL     1     -36.555  24.177   3.801  0.00  0.00    +0.017 A 
ATOM     13  C   UNL     1     -41.384  24.601   1.382  0.00  0.00    +0.017 A 
ATOM     14  C   UNL     1     -36.682  25.530   4.264  0.00  0.00    +0.060 A 
ATOM     15  C   UNL     1     -41.488  25.953   1.855  0.00  0.00    +0.060 A 
ATOM     16  C   UNL     1     -37.691  21.332   2.078  0.00  0.00    +0.252 C 
ATOM     17  C   UNL     1     -39.741  21.512   1.052  0.00  0.00    +0.252 C 
ATOM     18  C   UNL     1     -35.376  23.480   4.160  0.00  0.00    +0.005 C 
ATOM     19  C   UNL     1     -42.461  24.104   0.610  0.00  0.00    +0.005 C 
ATOM     20  C   UNL     1     -35.685  26.143   5.037  0.00  0.00    +0.054 C 
ATOM     21  C   UNL     1     -42.604  26.752   1.569  0.00  0.00    +0.054 C 
ATOM     22  C   UNL     1     -34.388  24.100   4.931  0.00  0.00    +0.037 C 
ATOM     23  C   UNL     1     -43.570  24.909   0.331  0.00  0.00    +0.037 C 
ATOM     24  C   UNL     1     -34.541  25.411   5.362  0.00  0.00    +0.135 C 
ATOM     25  C   UNL     1     -43.638  26.212   0.804  0.00  0.00    +0.135 C 
ATOM     26  H   UNL     1     -38.252  26.976   3.990  0.00  0.00    +0.166 HD
ATOM     27  H   UNL     1     -40.143  27.143   3.042  0.00  0.00    +0.166 HD
ATOM     28  H   UNL     1     -38.575  19.781   0.996  0.00  0.00    +0.158 HD
ENDROOT
BRANCH  24  29
ATOM     29  O   UNL     1     -33.565  25.995   6.114  0.00  0.00    -0.505 OA
ATOM     30  H   UNL     1     -32.902  25.467   6.513  0.00  0.00    +0.292 HD
ENDBRANCH  24  29
BRANCH  25  31
ATOM     31  O   UNL     1     -44.730  26.978   0.518  0.00  0.00    -0.505 OA
ATOM     32  H   UNL     1     -44.963  27.148  -0.373  0.00  0.00    +0.292 HD
ENDBRANCH  25  31
TORSDOF 2
ENDMDL
MODEL 2
REMARK VINA RESULT:      -7.6      0.229      6.639
REMARK  Name = 5482346
REMARK  2 active torsions:
REMARK  status: ('A' for Active; 'I' for Inactive)
REMARK    1  A    between atoms: C_24  and  O_29
REMARK    2  A    between atoms: C_25  and  O_31
REMARK                            x       y       z     vdW  Elec       q    Type
REMARK                         _______ _______ _______ _____ _____    ______ ____
ROOT
ATOM      1  O   UNL     1     -40.479  21.169   0.521  0.00  0.00    -0.270 OA
ATOM      2  O   UNL     1     -36.379  20.948   2.630  0.00  0.00    -0.270 OA
ATOM      3  N   UNL     1     -40.214  26.279   2.545  0.00  0.00    -0.352 N 
ATOM      4  N   UNL     1     -37.742  26.145   3.818  0.00  0.00    -0.352 N 
ATOM      5  N   UNL     1     -38.389  20.689   1.458  0.00  0.00    -0.248 N 
ATOM      6  C   UNL     1     -39.921  23.954   1.843  0.00  0.00    +0.023 A 
ATOM      7  C   UNL     1     -37.539  23.825   3.069  0.00  0.00    +0.023 A 
ATOM      8  C   UNL     1     -39.482  25.143   2.517  0.00  0.00    +0.073 A 
ATOM      9  C   UNL     1     -38.239  25.076   3.157  0.00  0.00    +0.073 A 
ATOM     10  C   UNL     1     -39.222  22.752   1.774  0.00  0.00    +0.060 A 
ATOM     11  C   UNL     1     -37.988  22.685   2.409  0.00  0.00    +0.060 A 
ATOM     12  C   UNL     1     -41.191  24.530   1.378  0.00  0.00    +0.017 A 
ATOM     13  C   UNL     1     -36.379  24.270   3.854  0.00  0.00    +0.017 A 
ATOM     14  C   UNL     1     -41.325  25.893   1.809  0.00  0.00    +0.060 A 
ATOM     15  C   UNL     1     -36.536  25.634   4.275  0.00  0.00    +0.060 A 
ATOM     16  C   UNL     1     -39.487  21.464   1.157  0.00  0.00    +0.252 C 
ATOM     17  C   UNL     1     -37.444  21.354   2.208  0.00  0.00    +0.252 C 
ATOM     18  C   UNL     1     -42.250  23.988   0.612  0.00  0.00    +0.005 C 
ATOM     19  C   UNL     1     -35.190  23.608   4.245  0.00  0.00    +0.005 C 
ATOM     20  C   UNL     1     -42.454  26.661   1.490  0.00  0.00    +0.054 C 
ATOM     21  C   UNL     1     -35.560  26.289   5.040  0.00  0.00    +0.054 C 
ATOM     22  C   UNL     1     -43.373  24.762   0.299  0.00  0.00    +0.037 C 
ATOM     23  C   UNL     1     -34.223  24.270   5.008  0.00  0.00    +0.037 C 
ATOM     24  C   UNL     1     -43.472  26.078   0.732  0.00  0.00    +0.135 C 
ATOM     25  C   UNL     1     -34.407  25.589   5.398  0.00  0.00    +0.135 C 
ATOM     26  H   UNL     1     -40.014  27.143   2.971  0.00  0.00    +0.166 HD
ATOM     27  H   UNL     1     -38.130  27.041   3.942  0.00  0.00    +0.166 HD
ATOM     28  H   UNL     1     -38.290  19.753   1.167  0.00  0.00    +0.158 HD
ENDROOT
BRANCH  24  29
ATOM     29  O   UNL     1     -44.575  26.814   0.414  0.00  0.00    -0.505 OA
ATOM     30  H   UNL     1     -45.408  26.589   0.777  0.00  0.00    +0.292 HD
ENDBRANCH  24  29
BRANCH  25  31
ATOM     31  O   UNL     1     -33.449  26.213   6.141  0.00  0.00    -0.505 OA
ATOM     32  H   UNL     1     -32.555  26.196   5.863  0.00  0.00    +0.292 HD
ENDBRANCH  25  31
TORSDOF 2
ENDMDL
MODEL 3
REMARK VINA RESULT:      -7.6      2.818      6.942
REMARK  Name = 5482346
REMARK  2 active torsions:
REMARK  status: ('A' for Active; 'I' for Inactive)
REMARK    1  A    between atoms: C_24  and  O_29
REMARK    2  A    between atoms: C_25  and  O_31
REMARK                            x       y       z     vdW  Elec       q    Type
REMARK                         _______ _______ _______ _____ _____    ______ ____
ROOT
ATOM      1  O   UNL     1     -40.218  20.740   0.520  0.00  0.00    -0.270 OA
ATOM      2  O   UNL     1     -39.835  24.411   3.291  0.00  0.00    -0.270 OA
ATOM      3  N   UNL     1     -34.835  20.490   1.631  0.00  0.00    -0.352 N 
ATOM      4  N   UNL     1     -34.603  22.705   3.302  0.00  0.00    -0.352 N 
ATOM      5  N   UNL     1     -40.408  22.644   1.866  0.00  0.00    -0.248 N 
ATOM      6  C   UNL     1     -37.223  20.970   1.410  0.00  0.00    +0.023 A 
ATOM      7  C   UNL     1     -37.001  23.104   3.020  0.00  0.00    +0.023 A 
ATOM      8  C   UNL     1     -35.913  21.249   1.927  0.00  0.00    +0.073 A 
ATOM      9  C   UNL     1     -35.797  22.363   2.767  0.00  0.00    +0.073 A 
ATOM     10  C   UNL     1     -38.376  21.707   1.671  0.00  0.00    +0.060 A 
ATOM     11  C   UNL     1     -38.260  22.812   2.505  0.00  0.00    +0.060 A 
ATOM     12  C   UNL     1     -36.811  19.786   0.643  0.00  0.00    +0.017 A 
ATOM     13  C   UNL     1     -36.361  24.095   3.896  0.00  0.00    +0.017 A 
ATOM     14  C   UNL     1     -35.405  19.537   0.800  0.00  0.00    +0.060 A 
ATOM     15  C   UNL     1     -34.957  23.827   4.036  0.00  0.00    +0.060 A 
ATOM     16  C   UNL     1     -39.763  21.593   1.254  0.00  0.00    +0.252 C 
ATOM     17  C   UNL     1     -39.572  23.422   2.635  0.00  0.00    +0.252 C 
ATOM     18  C   UNL     1     -37.536  18.894  -0.182  0.00  0.00    +0.005 C 
ATOM     19  C   UNL     1     -36.876  25.216   4.591  0.00  0.00    +0.005 C 
ATOM     20  C   UNL     1     -34.771  18.460   0.164  0.00  0.00    +0.054 C 
ATOM     21  C   UNL     1     -34.125  24.636   4.824  0.00  0.00    +0.054 C 
ATOM     22  C   UNL     1     -36.894  17.822  -0.811  0.00  0.00    +0.037 C 
ATOM     23  C   UNL     1     -36.037  26.016   5.374  0.00  0.00    +0.037 C 
ATOM     24  C   UNL     1     -35.532  17.610  -0.639  0.00  0.00    +0.135 C 
ATOM     25  C   UNL     1     -34.684  25.729   5.487  0.00  0.00    +0.135 C 
ATOM     26  H   UNL     1     -33.901  20.586   1.926  0.00  0.00    +0.166 HD
ATOM     27  H   UNL     1     -33.724  22.275   3.199  0.00  0.00    +0.166 HD
ATOM     28  H   UNL     1     -41.372  22.822   1.764  0.00  0.00    +0.158 HD
ENDROOT
BRANCH  24  29
ATOM     29  O   UNL     1     -34.928  16.558  -1.262  0.00  0.00    -0.505 OA
ATOM     30  H   UNL     1     -35.038  16.433  -2.183  0.00  0.00    +0.292 HD
ENDBRANCH  24  29
BRANCH  25  31
ATOM     31  O   UNL     1     -33.887  26.524   6.257  0.00  0.00    -0.505 OA
ATOM     32  H   UNL     1     -33.299  27.130   5.853  0.00  0.00    +0.292 HD
ENDBRANCH  25  31
TORSDOF 2
ENDMDL
MODEL 4
REMARK VINA RESULT:      -7.6      2.781      5.957
REMARK  Name = 5482346
REMARK  2 active torsions:
REMARK  status: ('A' for Active; 'I' for Inactive)
REMARK    1  A    between atoms: C_24  and  O_29
REMARK    2  A    between atoms: C_25  and  O_31
REMARK                            x       y       z     vdW  Elec       q    Type
REMARK                         _______ _______ _______ _____ _____    ______ ____
ROOT
ATOM      1  O   UNL     1     -39.856  24.490   3.235  0.00  0.00    -0.270 OA
ATOM      2  O   UNL     1     -40.265  20.837   0.445  0.00  0.00    -0.270 OA
ATOM      3  N   UNL     1     -34.660  22.682   3.328  0.00  0.00    -0.352 N 
ATOM      4  N   UNL     1     -34.907  20.477   1.646  0.00  0.00    -0.352 N 
ATOM      5  N   UNL     1     -40.440  22.743   1.793  0.00  0.00    -0.248 N 
ATOM      6  C   UNL     1     -37.043  23.131   3.005  0.00  0.00    +0.023 A 
ATOM      7  C   UNL     1     -37.281  21.008   1.384  0.00  0.00    +0.023 A 
ATOM      8  C   UNL     1     -35.851  22.366   2.771  0.00  0.00    +0.073 A 
ATOM      9  C   UNL     1     -35.975  21.258   1.925  0.00  0.00    +0.073 A 
ATOM     10  C   UNL     1     -38.300  22.865   2.467  0.00  0.00    +0.060 A 
ATOM     11  C   UNL     1     -38.423  21.766   1.627  0.00  0.00    +0.060 A 
ATOM     12  C   UNL     1     -36.399  24.106   3.897  0.00  0.00    +0.017 A 
ATOM     13  C   UNL     1     -36.879  19.817   0.621  0.00  0.00    +0.017 A 
ATOM     14  C   UNL     1     -35.004  23.808   4.060  0.00  0.00    +0.060 A 
ATOM     15  C   UNL     1     -35.482  19.539   0.802  0.00  0.00    +0.060 A 
ATOM     16  C   UNL     1     -39.601  23.502   2.578  0.00  0.00    +0.252 C 
ATOM     17  C   UNL     1     -39.804  21.682   1.187  0.00  0.00    +0.252 C 
ATOM     18  C   UNL     1     -36.904  25.234   4.586  0.00  0.00    +0.005 C 
ATOM     19  C   UNL     1     -37.608  18.941  -0.220  0.00  0.00    +0.005 C 
ATOM     20  C   UNL     1     -34.170  24.597   4.867  0.00  0.00    +0.054 C 
ATOM     21  C   UNL     1     -34.859  18.450   0.175  0.00  0.00    +0.054 C 
ATOM     22  C   UNL     1     -36.064  26.014   5.388  0.00  0.00    +0.037 C 
ATOM     23  C   UNL     1     -36.977  17.858  -0.839  0.00  0.00    +0.037 C 
ATOM     24  C   UNL     1     -34.719  25.699   5.526  0.00  0.00    +0.135 C 
ATOM     25  C   UNL     1     -35.624  17.618  -0.644  0.00  0.00    +0.135 C 
ATOM     26  H   UNL     1     -33.788  22.234   3.239  0.00  0.00    +0.166 HD
ATOM     27  H   UNL     1     -33.977  20.553   1.957  0.00  0.00    +0.166 HD
ATOM     28  H   UNL     1     -41.398  22.940   1.676  0.00  0.00    +0.158 HD
ENDROOT
BRANCH  24  29
ATOM     29  O   UNL     1     -33.920  26.474   6.313  0.00  0.00    -0.505 OA
ATOM     30  H   UNL     1     -33.144  26.112   6.694  0.00  0.00    +0.292 HD
ENDBRANCH  24  29
BRANCH  25  31
ATOM     31  O   UNL     1     -35.031  16.555  -1.259  0.00  0.00    -0.505 OA
ATOM     32  H   UNL     1     -34.688  16.647  -2.126  0.00  0.00    +0.292 HD
ENDBRANCH  25  31
TORSDOF 2
ENDMDL
MODEL 5
REMARK VINA RESULT:      -7.0      5.812      9.166
REMARK  Name = 5482346
REMARK  2 active torsions:
REMARK  status: ('A' for Active; 'I' for Inactive)
REMARK    1  A    between atoms: C_24  and  O_29
REMARK    2  A    between atoms: C_25  and  O_31
REMARK                            x       y       z     vdW  Elec       q    Type
REMARK                         _______ _______ _______ _____ _____    ______ ____
ROOT
ATOM      1  O   UNL     1     -29.665  31.125   2.226  0.00  0.00    -0.270 OA
ATOM      2  O   UNL     1     -33.495  28.999   0.774  0.00  0.00    -0.270 OA
ATOM      3  N   UNL     1     -30.950  28.335   6.791  0.00  0.00    -0.352 N 
ATOM      4  N   UNL     1     -33.261  27.053   5.916  0.00  0.00    -0.352 N 
ATOM      5  N   UNL     1     -31.541  30.231   1.151  0.00  0.00    -0.248 N 
ATOM      6  C   UNL     1     -30.755  29.378   4.587  0.00  0.00    +0.023 A 
ATOM      7  C   UNL     1     -32.981  28.143   3.743  0.00  0.00    +0.023 A 
ATOM      8  C   UNL     1     -31.411  28.522   5.535  0.00  0.00    +0.073 A 
ATOM      9  C   UNL     1     -32.574  27.877   5.095  0.00  0.00    +0.073 A 
ATOM     10  C   UNL     1     -31.172  29.618   3.280  0.00  0.00    +0.060 A 
ATOM     11  C   UNL     1     -32.325  28.978   2.843  0.00  0.00    +0.060 A 
ATOM     12  C   UNL     1     -29.672  29.774   5.499  0.00  0.00    +0.017 A 
ATOM     13  C   UNL     1     -34.169  27.278   3.794  0.00  0.00    +0.017 A 
ATOM     14  C   UNL     1     -29.822  29.141   6.779  0.00  0.00    +0.060 A 
ATOM     15  C   UNL     1     -34.298  26.659   5.083  0.00  0.00    +0.060 A 
ATOM     16  C   UNL     1     -30.660  30.430   2.190  0.00  0.00    +0.252 C 
ATOM     17  C   UNL     1     -32.569  29.370   1.467  0.00  0.00    +0.252 C 
ATOM     18  C   UNL     1     -28.560  30.633   5.330  0.00  0.00    +0.005 C 
ATOM     19  C   UNL     1     -35.158  26.972   2.829  0.00  0.00    +0.005 C 
ATOM     20  C   UNL     1     -28.910  29.361   7.823  0.00  0.00    +0.054 C 
ATOM     21  C   UNL     1     -35.355  25.786   5.381  0.00  0.00    +0.054 C 
ATOM     22  C   UNL     1     -27.657  30.846   6.376  0.00  0.00    +0.037 C 
ATOM     23  C   UNL     1     -36.208  26.101   3.137  0.00  0.00    +0.037 C 
ATOM     24  C   UNL     1     -27.831  30.219   7.603  0.00  0.00    +0.135 C 
ATOM     25  C   UNL     1     -36.303  25.519   4.393  0.00  0.00    +0.135 C 
ATOM     26  H   UNL     1     -31.314  27.778   7.516  0.00  0.00    +0.166 HD
ATOM     27  H   UNL     1     -33.076  26.801   6.849  0.00  0.00    +0.166 HD
ATOM     28  H   UNL     1     -31.446  30.661   0.270  0.00  0.00    +0.158 HD
ENDROOT
BRANCH  24  29
ATOM     29  O   UNL     1     -26.938  30.441   8.609  0.00  0.00    -0.505 OA
ATOM     30  H   UNL     1     -26.170  30.952   8.449  0.00  0.00    +0.292 HD
ENDBRANCH  24  29
BRANCH  25  31
ATOM     31  O   UNL     1     -37.337  24.672   4.668  0.00  0.00    -0.505 OA
ATOM     32  H   UNL     1     -37.907  24.390   3.981  0.00  0.00    +0.292 HD
ENDBRANCH  25  31
TORSDOF 2
ENDMDL
MODEL 6
REMARK VINA RESULT:      -7.0      1.710      6.769
REMARK  Name = 5482346
REMARK  2 active torsions:
REMARK  status: ('A' for Active; 'I' for Inactive)
REMARK    1  A    between atoms: C_24  and  O_29
REMARK    2  A    between atoms: C_25  and  O_31
REMARK                            x       y       z     vdW  Elec       q    Type
REMARK                         _______ _______ _______ _____ _____    ______ ____
ROOT
ATOM      1  O   UNL     1     -38.622  19.392  -0.093  0.00  0.00    -0.270 OA
ATOM      2  O   UNL     1     -35.146  20.304   2.801  0.00  0.00    -0.270 OA
ATOM      3  N   UNL     1     -40.069  24.454   1.509  0.00  0.00    -0.352 N 
ATOM      4  N   UNL     1     -37.972  25.003   3.256  0.00  0.00    -0.352 N 
ATOM      5  N   UNL     1     -36.730  19.498   1.279  0.00  0.00    -0.248 N 
ATOM      6  C   UNL     1     -39.067  22.264   1.076  0.00  0.00    +0.023 A 
ATOM      7  C   UNL     1     -37.047  22.794   2.759  0.00  0.00    +0.023 A 
ATOM      8  C   UNL     1     -39.090  23.546   1.723  0.00  0.00    +0.073 A 
ATOM      9  C   UNL     1     -38.036  23.823   2.601  0.00  0.00    +0.073 A 
ATOM     10  C   UNL     1     -38.094  21.283   1.248  0.00  0.00    +0.060 A 
ATOM     11  C   UNL     1     -37.048  21.557   2.120  0.00  0.00    +0.060 A 
ATOM     12  C   UNL     1     -40.310  22.478   0.321  0.00  0.00    +0.017 A 
ATOM     13  C   UNL     1     -36.228  23.548   3.720  0.00  0.00    +0.017 A 
ATOM     14  C   UNL     1     -40.865  23.772   0.601  0.00  0.00    +0.060 A 
ATOM     15  C   UNL     1     -36.804  24.836   3.985  0.00  0.00    +0.060 A 
ATOM     16  C   UNL     1     -37.895  19.952   0.701  0.00  0.00    +0.252 C 
ATOM     17  C   UNL     1     -36.162  20.407   2.143  0.00  0.00    +0.252 C 
ATOM     18  C   UNL     1     -41.013  21.658  -0.593  0.00  0.00    +0.005 C 
ATOM     19  C   UNL     1     -35.025  23.227   4.393  0.00  0.00    +0.005 C 
ATOM     20  C   UNL     1     -42.054  24.211   0.000  0.00  0.00    +0.054 C 
ATOM     21  C   UNL     1     -36.206  25.743   4.872  0.00  0.00    +0.054 C 
ATOM     22  C   UNL     1     -42.198  22.105  -1.187  0.00  0.00    +0.037 C 
ATOM     23  C   UNL     1     -34.437  24.140   5.276  0.00  0.00    +0.037 C 
ATOM     24  C   UNL     1     -42.709  23.363  -0.894  0.00  0.00    +0.135 C 
ATOM     25  C   UNL     1     -35.020  25.377   5.510  0.00  0.00    +0.135 C 
ATOM     26  H   UNL     1     -40.184  25.353   1.893  0.00  0.00    +0.166 HD
ATOM     27  H   UNL     1     -38.586  25.771   3.225  0.00  0.00    +0.166 HD
ATOM     28  H   UNL     1     -36.343  18.612   1.092  0.00  0.00    +0.158 HD
ENDROOT
BRANCH  24  29
ATOM     29  O   UNL     1     -43.865  23.778  -1.486  0.00  0.00    -0.505 OA
ATOM     30  H   UNL     1     -44.692  23.550  -1.110  0.00  0.00    +0.292 HD
ENDBRANCH  24  29
BRANCH  25  31
ATOM     31  O   UNL     1     -34.428  26.250   6.375  0.00  0.00    -0.505 OA
ATOM     32  H   UNL     1     -34.671  27.154   6.367  0.00  0.00    +0.292 HD
ENDBRANCH  25  31
TORSDOF 2
ENDMDL
MODEL 7
REMARK VINA RESULT:      -7.0      3.779      6.603
REMARK  Name = 5482346
REMARK  2 active torsions:
REMARK  status: ('A' for Active; 'I' for Inactive)
REMARK    1  A    between atoms: C_24  and  O_29
REMARK    2  A    between atoms: C_25  and  O_31
REMARK                            x       y       z     vdW  Elec       q    Type
REMARK                         _______ _______ _______ _____ _____    ______ ____
ROOT
ATOM      1  O   UNL     1     -38.037  18.068  -1.354  0.00  0.00    -0.270 OA
ATOM      2  O   UNL     1     -40.055  21.835   0.388  0.00  0.00    -0.270 OA
ATOM      3  N   UNL     1     -33.970  19.870   1.884  0.00  0.00    -0.352 N 
ATOM      4  N   UNL     1     -35.187  22.144   2.934  0.00  0.00    -0.352 N 
ATOM      5  N   UNL     1     -39.368  19.874  -0.690  0.00  0.00    -0.248 N 
ATOM      6  C   UNL     1     -36.007  19.435   0.601  0.00  0.00    +0.023 A 
ATOM      7  C   UNL     1     -37.179  21.625   1.612  0.00  0.00    +0.023 A 
ATOM      8  C   UNL     1     -35.229  20.209   1.527  0.00  0.00    +0.073 A 
ATOM      9  C   UNL     1     -35.841  21.352   2.055  0.00  0.00    +0.073 A 
ATOM     10  C   UNL     1     -37.305  19.723   0.188  0.00  0.00    +0.060 A 
ATOM     11  C   UNL     1     -37.912  20.857   0.712  0.00  0.00    +0.060 A 
ATOM     12  C   UNL     1     -34.965  18.424   0.370  0.00  0.00    +0.017 A 
ATOM     13  C   UNL     1     -37.334  22.847   2.415  0.00  0.00    +0.017 A 
ATOM     14  C   UNL     1     -33.789  18.713   1.141  0.00  0.00    +0.060 A 
ATOM     15  C   UNL     1     -36.145  23.117   3.174  0.00  0.00    +0.060 A 
ATOM     16  C   UNL     1     -38.241  19.083  -0.720  0.00  0.00    +0.252 C 
ATOM     17  C   UNL     1     -39.247  20.960   0.149  0.00  0.00    +0.252 C 
ATOM     18  C   UNL     1     -34.934  17.267  -0.444  0.00  0.00    +0.005 C 
ATOM     19  C   UNL     1     -38.409  23.757   2.554  0.00  0.00    +0.005 C 
ATOM     20  C   UNL     1     -32.653  17.891   1.092  0.00  0.00    +0.054 C 
ATOM     21  C   UNL     1     -36.047  24.231   4.020  0.00  0.00    +0.054 C 
ATOM     22  C   UNL     1     -33.797  16.454  -0.486  0.00  0.00    +0.037 C 
ATOM     23  C   UNL     1     -38.300  24.865   3.401  0.00  0.00    +0.037 C 
ATOM     24  C   UNL     1     -32.674  16.763   0.271  0.00  0.00    +0.135 C 
ATOM     25  C   UNL     1     -37.136  25.097   4.121  0.00  0.00    +0.135 C 
ATOM     26  H   UNL     1     -33.351  20.321   2.503  0.00  0.00    +0.166 HD
ATOM     27  H   UNL     1     -34.278  22.054   3.303  0.00  0.00    +0.166 HD
ATOM     28  H   UNL     1     -40.179  19.683  -1.215  0.00  0.00    +0.158 HD
ENDROOT
BRANCH  24  29
ATOM     29  O   UNL     1     -31.578  15.955   0.215  0.00  0.00    -0.505 OA
ATOM     30  H   UNL     1     -31.606  15.161  -0.280  0.00  0.00    +0.292 HD
ENDBRANCH  24  29
BRANCH  25  31
ATOM     31  O   UNL     1     -37.054  26.185   4.939  0.00  0.00    -0.505 OA
ATOM     32  H   UNL     1     -37.033  27.046   4.573  0.00  0.00    +0.292 HD
ENDBRANCH  25  31
TORSDOF 2
ENDMDL
MODEL 8
REMARK VINA RESULT:      -6.9      3.758      7.473
REMARK  Name = 5482346
REMARK  2 active torsions:
REMARK  status: ('A' for Active; 'I' for Inactive)
REMARK    1  A    between atoms: C_24  and  O_29
REMARK    2  A    between atoms: C_25  and  O_31
REMARK                            x       y       z     vdW  Elec       q    Type
REMARK                         _______ _______ _______ _____ _____    ______ ____
ROOT
ATOM      1  O   UNL     1     -40.091  21.865   0.387  0.00  0.00    -0.270 OA
ATOM      2  O   UNL     1     -38.103  18.086  -1.364  0.00  0.00    -0.270 OA
ATOM      3  N   UNL     1     -35.214  22.139   2.920  0.00  0.00    -0.352 N 
ATOM      4  N   UNL     1     -34.016  19.858   1.865  0.00  0.00    -0.352 N 
ATOM      5  N   UNL     1     -39.419  19.903  -0.697  0.00  0.00    -0.248 N 
ATOM      6  C   UNL     1     -37.213  21.636   1.601  0.00  0.00    +0.023 A 
ATOM      7  C   UNL     1     -36.058  19.440   0.584  0.00  0.00    +0.023 A 
ATOM      8  C   UNL     1     -35.875  21.353   2.041  0.00  0.00    +0.073 A 
ATOM      9  C   UNL     1     -35.272  20.207   1.510  0.00  0.00    +0.073 A 
ATOM     10  C   UNL     1     -37.953  20.874   0.701  0.00  0.00    +0.060 A 
ATOM     11  C   UNL     1     -37.354  19.737   0.174  0.00  0.00    +0.060 A 
ATOM     12  C   UNL     1     -37.358  22.857   2.407  0.00  0.00    +0.017 A 
ATOM     13  C   UNL     1     -35.024  18.421   0.351  0.00  0.00    +0.017 A 
ATOM     14  C   UNL     1     -36.166  23.118   3.164  0.00  0.00    +0.060 A 
ATOM     15  C   UNL     1     -33.844  18.701   1.120  0.00  0.00    +0.060 A 
ATOM     16  C   UNL     1     -39.288  20.987   0.142  0.00  0.00    +0.252 C 
ATOM     17  C   UNL     1     -38.297  19.104  -0.731  0.00  0.00    +0.252 C 
ATOM     18  C   UNL     1     -38.426  23.774   2.550  0.00  0.00    +0.005 C 
ATOM     19  C   UNL     1     -35.003  17.265  -0.466  0.00  0.00    +0.005 C 
ATOM     20  C   UNL     1     -36.058  24.229   4.013  0.00  0.00    +0.054 C 
ATOM     21  C   UNL     1     -32.715  17.871   1.068  0.00  0.00    +0.054 C 
ATOM     22  C   UNL     1     -38.309  24.879   3.399  0.00  0.00    +0.037 C 
ATOM     23  C   UNL     1     -33.871  16.444  -0.509  0.00  0.00    +0.037 C 
ATOM     24  C   UNL     1     -37.143  25.102   4.119  0.00  0.00    +0.135 C 
ATOM     25  C   UNL     1     -32.747  16.744   0.247  0.00  0.00    +0.135 C 
ATOM     26  H   UNL     1     -34.306  22.042   3.287  0.00  0.00    +0.166 HD
ATOM     27  H   UNL     1     -33.393  20.304   2.483  0.00  0.00    +0.166 HD
ATOM     28  H   UNL     1     -40.233  19.717  -1.219  0.00  0.00    +0.158 HD
ENDROOT
BRANCH  24  29
ATOM     29  O   UNL     1     -37.051  26.187   4.939  0.00  0.00    -0.505 OA
ATOM     30  H   UNL     1     -37.628  26.915   4.820  0.00  0.00    +0.292 HD
ENDBRANCH  24  29
BRANCH  25  31
ATOM     31  O   UNL     1     -31.655  15.927   0.187  0.00  0.00    -0.505 OA
ATOM     32  H   UNL     1     -31.627  15.145   0.702  0.00  0.00    +0.292 HD
ENDBRANCH  25  31
TORSDOF 2
ENDMDL
MODEL 9
REMARK VINA RESULT:      -6.8      5.093      8.310
REMARK  Name = 5482346
REMARK  2 active torsions:
REMARK  status: ('A' for Active; 'I' for Inactive)
REMARK    1  A    between atoms: C_24  and  O_29
REMARK    2  A    between atoms: C_25  and  O_31
REMARK                            x       y       z     vdW  Elec       q    Type
REMARK                         _______ _______ _______ _____ _____    ______ ____
ROOT
ATOM      1  O   UNL     1     -34.626  25.297  -0.977  0.00  0.00    -0.270 OA
ATOM      2  O   UNL     1     -32.631  28.949   1.018  0.00  0.00    -0.270 OA
ATOM      3  N   UNL     1     -34.752  23.654   4.273  0.00  0.00    -0.352 N 
ATOM      4  N   UNL     1     -33.547  25.857   5.476  0.00  0.00    -0.352 N 
ATOM      5  N   UNL     1     -33.593  27.293  -0.329  0.00  0.00    -0.248 N 
ATOM      6  C   UNL     1     -34.496  24.762   2.107  0.00  0.00    +0.023 A 
ATOM      7  C   UNL     1     -33.336  26.884   3.266  0.00  0.00    +0.023 A 
ATOM      8  C   UNL     1     -34.342  24.708   3.533  0.00  0.00    +0.073 A 
ATOM      9  C   UNL     1     -33.736  25.816   4.139  0.00  0.00    +0.073 A 
ATOM     10  C   UNL     1     -34.098  25.812   1.283  0.00  0.00    +0.060 A 
ATOM     11  C   UNL     1     -33.497  26.911   1.884  0.00  0.00    +0.060 A 
ATOM     12  C   UNL     1     -35.138  23.444   1.997  0.00  0.00    +0.017 A 
ATOM     13  C   UNL     1     -32.796  27.732   4.339  0.00  0.00    +0.017 A 
ATOM     14  C   UNL     1     -35.271  22.828   3.287  0.00  0.00    +0.060 A 
ATOM     15  C   UNL     1     -32.938  27.094   5.618  0.00  0.00    +0.060 A 
ATOM     16  C   UNL     1     -34.163  26.052  -0.148  0.00  0.00    +0.252 C 
ATOM     17  C   UNL     1     -33.169  27.873   0.847  0.00  0.00    +0.252 C 
ATOM     18  C   UNL     1     -35.625  22.720   0.883  0.00  0.00    +0.005 C 
ATOM     19  C   UNL     1     -32.187  29.010   4.319  0.00  0.00    +0.005 C 
ATOM     20  C   UNL     1     -35.855  21.563   3.445  0.00  0.00    +0.054 C 
ATOM     21  C   UNL     1     -32.496  27.706   6.800  0.00  0.00    +0.054 C 
ATOM     22  C   UNL     1     -36.206  21.458   1.050  0.00  0.00    +0.037 C 
ATOM     23  C   UNL     1     -31.750  29.610   5.504  0.00  0.00    +0.037 C 
ATOM     24  C   UNL     1     -36.318  20.890   2.312  0.00  0.00    +0.135 C 
ATOM     25  C   UNL     1     -31.903  28.966   6.724  0.00  0.00    +0.135 C 
ATOM     26  H   UNL     1     -34.698  23.512   5.245  0.00  0.00    +0.166 HD
ATOM     27  H   UNL     1     -33.779  25.190   6.162  0.00  0.00    +0.166 HD
ATOM     28  H   UNL     1     -33.497  27.723  -1.210  0.00  0.00    +0.158 HD
ENDROOT
BRANCH  24  29
ATOM     29  O   UNL     1     -36.888  19.660   2.452  0.00  0.00    -0.505 OA
ATOM     30  H   UNL     1     -37.803  19.546   2.287  0.00  0.00    +0.292 HD
ENDBRANCH  24  29
BRANCH  25  31
ATOM     31  O   UNL     1     -31.468  29.572   7.866  0.00  0.00    -0.505 OA
ATOM     32  H   UNL     1     -32.012  30.200   8.299  0.00  0.00    +0.292 HD
ENDBRANCH  25  31
TORSDOF 2
ENDMDL
