MODEL 1
REMARK VINA RESULT:      -6.9      0.000      0.000
REMARK  Name = 5353852
REMARK  7 active torsions:
REMARK  status: ('A' for Active; 'I' for Inactive)
REMARK    1  A    between atoms: C_1  and  N_7
REMARK    2  A    between atoms: C_4  and  C_18
REMARK    3  A    between atoms: N_7  and  S_9
REMARK    4  A    between atoms: S_9  and  C_12
REMARK    5  A    between atoms: C_19  and  C_20
REMARK    6  A    between atoms: C_21  and  C_24
REMARK    7  A    between atoms: N_23  and  O_26
REMARK                            x       y       z     vdW  Elec       q    Type
REMARK                         _______ _______ _______ _____ _____    ______ ____
ROOT
ATOM      1  C   UNL     1     -35.690  23.088   2.435  0.00  0.00    +0.065 C 
ATOM      2  C   UNL     1     -34.845  23.873   3.222  0.00  0.00    +0.024 C 
ATOM      3  C   UNL     1     -37.074  23.207   2.567  0.00  0.00    +0.016 C 
ATOM      4  C   UNL     1     -35.386  24.774   4.139  0.00  0.00    +0.043 C 
ATOM      5  C   UNL     1     -37.613  24.108   3.484  0.00  0.00    +0.002 C 
ATOM      6  C   UNL     1     -36.770  24.891   4.270  0.00  0.00    +0.008 C 
ENDROOT
BRANCH   1   7
ATOM      7  N   UNL     1     -35.138  22.166   1.496  0.00  0.00    -0.215 N 
ATOM      8  H   UNL     1     -34.722  22.488   0.663  0.00  0.00    +0.174 HD
BRANCH   7   9
ATOM      9  S   UNL     1     -35.209  20.481   1.846  0.00  0.00    +0.074 S 
ATOM     10  O   UNL     1     -35.160  20.294   3.283  0.00  0.00    -0.150 OA
ATOM     11  O   UNL     1     -36.266  19.858   1.073  0.00  0.00    -0.150 OA
BRANCH   9  12
ATOM     12  C   UNL     1     -33.662  19.910   1.201  0.00  0.00    +0.125 C 
ATOM     13  C   UNL     1     -33.208  18.652   1.555  0.00  0.00    +0.020 C 
ATOM     14  C   UNL     1     -32.939  20.734   0.357  0.00  0.00    +0.020 C 
ATOM     15  C   UNL     1     -31.989  18.203   1.048  0.00  0.00    +0.001 C 
ATOM     16  C   UNL     1     -31.720  20.284  -0.150  0.00  0.00    +0.001 C 
ATOM     17  C   UNL     1     -31.245  19.019   0.195  0.00  0.00    +0.000 C 
ENDBRANCH   9  12
ENDBRANCH   7   9
ENDBRANCH   1   7
BRANCH   4  18
ATOM     18  C   UNL     1     -34.521  25.578   4.946  0.00  0.00    -0.060 C 
ATOM     19  C   UNL     1     -33.795  26.252   5.623  0.00  0.00    -0.059 C 
BRANCH  19  20
ATOM     20  C   UNL     1     -32.937  27.052   6.428  0.00  0.00    +0.054 C 
ATOM     21  C   UNL     1     -32.194  28.028   5.892  0.00  0.00    +0.069 C 
BRANCH  21  24
ATOM     22  O   UNL     1     -31.682  29.883   7.302  0.00  0.00    -0.268 OA
ATOM     23  N   UNL     1     -30.051  28.308   6.857  0.00  0.00    -0.193 N 
ATOM     24  C   UNL     1     -31.306  28.851   6.757  0.00  0.00    +0.269 C 
ATOM     25  H   UNL     1     -29.803  27.474   6.396  0.00  0.00    +0.183 HD
BRANCH  23  26
ATOM     26  O   UNL     1     -29.143  29.013   7.659  0.00  0.00    -0.295 OA
ATOM     27  H   UNL     1     -29.565  29.239   8.504  0.00  0.00    +0.241 HD
ENDBRANCH  23  26
ENDBRANCH  21  24
ENDBRANCH  19  20
ENDBRANCH   4  18
TORSDOF 7
ENDMDL
MODEL 2
REMARK VINA RESULT:      -6.7      5.321      7.684
REMARK  Name = 5353852
REMARK  7 active torsions:
REMARK  status: ('A' for Active; 'I' for Inactive)
REMARK    1  A    between atoms: C_1  and  N_7
REMARK    2  A    between atoms: C_4  and  C_18
REMARK    3  A    between atoms: N_7  and  S_9
REMARK    4  A    between atoms: S_9  and  C_12
REMARK    5  A    between atoms: C_19  and  C_20
REMARK    6  A    between atoms: C_21  and  C_24
REMARK    7  A    between atoms: N_23  and  O_26
REMARK                            x       y       z     vdW  Elec       q    Type
REMARK                         _______ _______ _______ _____ _____    ______ ____
ROOT
ATOM      1  C   UNL     1     -38.444  21.289   1.611  0.00  0.00    +0.065 C 
ATOM      2  C   UNL     1     -39.025  22.488   2.023  0.00  0.00    +0.024 C 
ATOM      3  C   UNL     1     -38.815  20.717   0.393  0.00  0.00    +0.016 C 
ATOM      4  C   UNL     1     -39.977  23.114   1.219  0.00  0.00    +0.043 C 
ATOM      5  C   UNL     1     -39.767  21.344  -0.410  0.00  0.00    +0.002 C 
ATOM      6  C   UNL     1     -40.348  22.542   0.002  0.00  0.00    +0.008 C 
ENDROOT
BRANCH   1   7
ATOM      7  N   UNL     1     -37.469  20.648   2.433  0.00  0.00    -0.215 N 
ATOM      8  H   UNL     1     -37.731  19.926   3.050  0.00  0.00    +0.174 HD
BRANCH   7   9
ATOM      9  S   UNL     1     -35.827  21.157   2.325  0.00  0.00    +0.074 S 
ATOM     10  O   UNL     1     -34.963  20.006   2.503  0.00  0.00    -0.150 OA
ATOM     11  O   UNL     1     -35.649  22.020   1.173  0.00  0.00    -0.150 OA
BRANCH   9  12
ATOM     12  C   UNL     1     -35.659  22.154   3.778  0.00  0.00    +0.125 C 
ATOM     13  C   UNL     1     -35.272  21.557   4.963  0.00  0.00    +0.020 C 
ATOM     14  C   UNL     1     -35.920  23.511   3.697  0.00  0.00    +0.020 C 
ATOM     15  C   UNL     1     -35.141  22.342   6.109  0.00  0.00    +0.001 C 
ATOM     16  C   UNL     1     -35.789  24.296   4.843  0.00  0.00    +0.001 C 
ATOM     17  C   UNL     1     -35.399  23.712   6.048  0.00  0.00    +0.000 C 
ENDBRANCH   9  12
ENDBRANCH   7   9
ENDBRANCH   1   7
BRANCH   4  18
ATOM     18  C   UNL     1     -40.573  24.343   1.642  0.00  0.00    -0.060 C 
ATOM     19  C   UNL     1     -41.074  25.376   1.996  0.00  0.00    -0.059 C 
BRANCH  19  20
ATOM     20  C   UNL     1     -41.666  26.597   2.420  0.00  0.00    +0.054 C 
ATOM     21  C   UNL     1     -41.948  26.820   3.710  0.00  0.00    +0.069 C 
BRANCH  21  24
ATOM     22  O   UNL     1     -41.974  28.940   4.805  0.00  0.00    -0.268 OA
ATOM     23  N   UNL     1     -43.849  28.229   3.657  0.00  0.00    -0.193 N 
ATOM     24  C   UNL     1     -42.566  28.107   4.127  0.00  0.00    +0.269 C 
ATOM     25  H   UNL     1     -44.276  27.527   3.115  0.00  0.00    +0.183 HD
BRANCH  23  26
ATOM     26  O   UNL     1     -44.513  29.416   3.996  0.00  0.00    -0.295 OA
ATOM     27  H   UNL     1     -45.431  29.374   3.682  0.00  0.00    +0.241 HD
ENDBRANCH  23  26
ENDBRANCH  21  24
ENDBRANCH  19  20
ENDBRANCH   4  18
TORSDOF 7
ENDMDL
MODEL 3
REMARK VINA RESULT:      -6.6     14.227     17.082
REMARK  Name = 5353852
REMARK  7 active torsions:
REMARK  status: ('A' for Active; 'I' for Inactive)
REMARK    1  A    between atoms: C_1  and  N_7
REMARK    2  A    between atoms: C_4  and  C_18
REMARK    3  A    between atoms: N_7  and  S_9
REMARK    4  A    between atoms: S_9  and  C_12
REMARK    5  A    between atoms: C_19  and  C_20
REMARK    6  A    between atoms: C_21  and  C_24
REMARK    7  A    between atoms: N_23  and  O_26
REMARK                            x       y       z     vdW  Elec       q    Type
REMARK                         _______ _______ _______ _____ _____    ______ ____
ROOT
ATOM      1  C   UNL     1     -34.201  39.492   0.290  0.00  0.00    +0.065 C 
ATOM      2  C   UNL     1     -35.187  38.732   0.919  0.00  0.00    +0.024 C 
ATOM      3  C   UNL     1     -34.027  39.402  -1.092  0.00  0.00    +0.016 C 
ATOM      4  C   UNL     1     -35.997  37.882   0.167  0.00  0.00    +0.043 C 
ATOM      5  C   UNL     1     -34.838  38.552  -1.843  0.00  0.00    +0.002 C 
ATOM      6  C   UNL     1     -35.823  37.792  -1.214  0.00  0.00    +0.008 C 
ENDROOT
BRANCH   1   7
ATOM      7  N   UNL     1     -33.371  40.363   1.059  0.00  0.00    -0.215 N 
ATOM      8  H   UNL     1     -33.683  41.264   1.305  0.00  0.00    +0.174 HD
BRANCH   7   9
ATOM      9  S   UNL     1     -31.816  39.808   1.551  0.00  0.00    +0.074 S 
ATOM     10  O   UNL     1     -31.781  38.361   1.466  0.00  0.00    -0.150 OA
ATOM     11  O   UNL     1     -30.782  40.593   0.905  0.00  0.00    -0.150 OA
BRANCH   9  12
ATOM     12  C   UNL     1     -31.811  40.222   3.272  0.00  0.00    +0.125 C 
ATOM     13  C   UNL     1     -31.064  39.453   4.147  0.00  0.00    +0.020 C 
ATOM     14  C   UNL     1     -32.554  41.304   3.707  0.00  0.00    +0.020 C 
ATOM     15  C   UNL     1     -31.060  39.778   5.504  0.00  0.00    +0.001 C 
ATOM     16  C   UNL     1     -32.551  41.629   5.064  0.00  0.00    +0.001 C 
ATOM     17  C   UNL     1     -31.804  40.866   5.962  0.00  0.00    +0.000 C 
ENDBRANCH   9  12
ENDBRANCH   7   9
ENDBRANCH   1   7
BRANCH   4  18
ATOM     18  C   UNL     1     -37.008  37.102   0.811  0.00  0.00    -0.060 C 
ATOM     19  C   UNL     1     -37.856  36.447   1.353  0.00  0.00    -0.059 C 
BRANCH  19  20
ATOM     20  C   UNL     1     -38.863  35.672   1.991  0.00  0.00    +0.054 C 
ATOM     21  C   UNL     1     -40.162  35.959   1.835  0.00  0.00    +0.069 C 
BRANCH  21  24
ATOM     22  O   UNL     1     -41.680  34.126   2.003  0.00  0.00    -0.268 OA
ATOM     23  N   UNL     1     -41.517  35.632   3.748  0.00  0.00    -0.193 N 
ATOM     24  C   UNL     1     -41.196  35.131   2.513  0.00  0.00    +0.269 C 
ATOM     25  H   UNL     1     -41.096  36.446   4.109  0.00  0.00    +0.183 HD
BRANCH  23  26
ATOM     26  O   UNL     1     -42.483  34.913   4.466  0.00  0.00    -0.295 OA
ATOM     27  H   UNL     1     -42.363  33.963   4.307  0.00  0.00    +0.241 HD
ENDBRANCH  23  26
ENDBRANCH  21  24
ENDBRANCH  19  20
ENDBRANCH   4  18
TORSDOF 7
ENDMDL
MODEL 4
REMARK VINA RESULT:      -6.6     14.606     18.299
REMARK  Name = 5353852
REMARK  7 active torsions:
REMARK  status: ('A' for Active; 'I' for Inactive)
REMARK    1  A    between atoms: C_1  and  N_7
REMARK    2  A    between atoms: C_4  and  C_18
REMARK    3  A    between atoms: N_7  and  S_9
REMARK    4  A    between atoms: S_9  and  C_12
REMARK    5  A    between atoms: C_19  and  C_20
REMARK    6  A    between atoms: C_21  and  C_24
REMARK    7  A    between atoms: N_23  and  O_26
REMARK                            x       y       z     vdW  Elec       q    Type
REMARK                         _______ _______ _______ _____ _____    ______ ____
ROOT
ATOM      1  C   UNL     1     -34.186  39.405  -0.025  0.00  0.00    +0.065 C 
ATOM      2  C   UNL     1     -35.181  38.728   0.681  0.00  0.00    +0.024 C 
ATOM      3  C   UNL     1     -33.995  39.144  -1.383  0.00  0.00    +0.016 C 
ATOM      4  C   UNL     1     -35.983  37.791   0.029  0.00  0.00    +0.043 C 
ATOM      5  C   UNL     1     -34.797  38.208  -2.033  0.00  0.00    +0.002 C 
ATOM      6  C   UNL     1     -35.791  37.531  -1.327  0.00  0.00    +0.008 C 
ENDROOT
BRANCH   1   7
ATOM      7  N   UNL     1     -33.364  40.364   0.640  0.00  0.00    -0.215 N 
ATOM      8  H   UNL     1     -32.740  40.084   1.348  0.00  0.00    +0.174 HD
BRANCH   7   9
ATOM      9  S   UNL     1     -33.482  42.020   0.180  0.00  0.00    +0.074 S 
ATOM     10  O   UNL     1     -32.407  42.332  -0.743  0.00  0.00    -0.150 OA
ATOM     11  O   UNL     1     -34.851  42.342  -0.173  0.00  0.00    -0.150 OA
BRANCH   9  12
ATOM     12  C   UNL     1     -33.109  42.847   1.701  0.00  0.00    +0.125 C 
ATOM     13  C   UNL     1     -32.914  44.216   1.692  0.00  0.00    +0.020 C 
ATOM     14  C   UNL     1     -33.021  42.106   2.865  0.00  0.00    +0.020 C 
ATOM     15  C   UNL     1     -32.619  44.868   2.890  0.00  0.00    +0.001 C 
ATOM     16  C   UNL     1     -32.726  42.758   4.063  0.00  0.00    +0.001 C 
ATOM     17  C   UNL     1     -32.525  44.138   4.076  0.00  0.00    +0.000 C 
ENDBRANCH   9  12
ENDBRANCH   7   9
ENDBRANCH   1   7
BRANCH   4  18
ATOM     18  C   UNL     1     -37.003  37.097   0.753  0.00  0.00    -0.060 C 
ATOM     19  C   UNL     1     -37.858  36.514   1.361  0.00  0.00    -0.059 C 
BRANCH  19  20
ATOM     20  C   UNL     1     -38.874  35.824   2.077  0.00  0.00    +0.054 C 
ATOM     21  C   UNL     1     -40.132  35.773   1.621  0.00  0.00    +0.069 C 
BRANCH  21  24
ATOM     22  O   UNL     1     -41.721  34.027   1.969  0.00  0.00    -0.268 OA
ATOM     23  N   UNL     1     -41.430  35.643   3.596  0.00  0.00    -0.193 N 
ATOM     24  C   UNL     1     -41.176  35.042   2.389  0.00  0.00    +0.269 C 
ATOM     25  H   UNL     1     -40.961  36.459   3.883  0.00  0.00    +0.183 HD
BRANCH  23  26
ATOM     26  O   UNL     1     -42.399  35.021   4.395  0.00  0.00    -0.295 OA
ATOM     27  H   UNL     1     -42.570  34.126   4.059  0.00  0.00    +0.241 HD
ENDBRANCH  23  26
ENDBRANCH  21  24
ENDBRANCH  19  20
ENDBRANCH   4  18
TORSDOF 7
ENDMDL
MODEL 5
REMARK VINA RESULT:      -6.6      3.787      6.817
REMARK  Name = 5353852
REMARK  7 active torsions:
REMARK  status: ('A' for Active; 'I' for Inactive)
REMARK    1  A    between atoms: C_1  and  N_7
REMARK    2  A    between atoms: C_4  and  C_18
REMARK    3  A    between atoms: N_7  and  S_9
REMARK    4  A    between atoms: S_9  and  C_12
REMARK    5  A    between atoms: C_19  and  C_20
REMARK    6  A    between atoms: C_21  and  C_24
REMARK    7  A    between atoms: N_23  and  O_26
REMARK                            x       y       z     vdW  Elec       q    Type
REMARK                         _______ _______ _______ _____ _____    ______ ____
ROOT
ATOM      1  C   UNL     1     -37.650  24.374   3.823  0.00  0.00    +0.065 C 
ATOM      2  C   UNL     1     -36.753  25.189   4.514  0.00  0.00    +0.024 C 
ATOM      3  C   UNL     1     -37.227  23.145   3.315  0.00  0.00    +0.016 C 
ATOM      4  C   UNL     1     -35.434  24.775   4.696  0.00  0.00    +0.043 C 
ATOM      5  C   UNL     1     -35.907  22.733   3.497  0.00  0.00    +0.002 C 
ATOM      6  C   UNL     1     -35.011  23.547   4.187  0.00  0.00    +0.008 C 
ENDROOT
BRANCH   1   7
ATOM      7  N   UNL     1     -39.001  24.796   3.637  0.00  0.00    -0.215 N 
ATOM      8  H   UNL     1     -39.663  24.690   4.358  0.00  0.00    +0.174 HD
BRANCH   7   9
ATOM      9  S   UNL     1     -39.452  25.498   2.129  0.00  0.00    +0.074 S 
ATOM     10  O   UNL     1     -38.743  26.752   1.961  0.00  0.00    -0.150 OA
ATOM     11  O   UNL     1     -39.404  24.497   1.081  0.00  0.00    -0.150 OA
BRANCH   9  12
ATOM     12  C   UNL     1     -41.152  25.903   2.411  0.00  0.00    +0.125 C 
ATOM     13  C   UNL     1     -42.095  25.546   1.464  0.00  0.00    +0.020 C 
ATOM     14  C   UNL     1     -41.502  26.569   3.572  0.00  0.00    +0.020 C 
ATOM     15  C   UNL     1     -43.435  25.867   1.686  0.00  0.00    +0.001 C 
ATOM     16  C   UNL     1     -42.842  26.889   3.794  0.00  0.00    +0.001 C 
ATOM     17  C   UNL     1     -43.808  26.538   2.851  0.00  0.00    +0.000 C 
ENDBRANCH   9  12
ENDBRANCH   7   9
ENDBRANCH   1   7
BRANCH   4  18
ATOM     18  C   UNL     1     -34.513  25.610   5.404  0.00  0.00    -0.060 C 
ATOM     19  C   UNL     1     -33.741  26.311   5.998  0.00  0.00    -0.059 C 
BRANCH  19  20
ATOM     20  C   UNL     1     -32.826  27.139   6.705  0.00  0.00    +0.054 C 
ATOM     21  C   UNL     1     -32.093  28.062   6.070  0.00  0.00    +0.069 C 
BRANCH  21  24
ATOM     22  O   UNL     1     -31.457  30.012   7.289  0.00  0.00    -0.268 OA
ATOM     23  N   UNL     1     -29.914  28.324   6.957  0.00  0.00    -0.193 N 
ATOM     24  C   UNL     1     -31.144  28.917   6.834  0.00  0.00    +0.269 C 
ATOM     25  H   UNL     1     -29.717  27.440   6.570  0.00  0.00    +0.183 HD
BRANCH  23  26
ATOM     26  O   UNL     1     -28.952  29.055   7.668  0.00  0.00    -0.295 OA
ATOM     27  H   UNL     1     -29.119  30.005   7.555  0.00  0.00    +0.241 HD
ENDBRANCH  23  26
ENDBRANCH  21  24
ENDBRANCH  19  20
ENDBRANCH   4  18
TORSDOF 7
ENDMDL
MODEL 6
REMARK VINA RESULT:      -6.5      4.085      4.881
REMARK  Name = 5353852
REMARK  7 active torsions:
REMARK  status: ('A' for Active; 'I' for Inactive)
REMARK    1  A    between atoms: C_1  and  N_7
REMARK    2  A    between atoms: C_4  and  C_18
REMARK    3  A    between atoms: N_7  and  S_9
REMARK    4  A    between atoms: S_9  and  C_12
REMARK    5  A    between atoms: C_19  and  C_20
REMARK    6  A    between atoms: C_21  and  C_24
REMARK    7  A    between atoms: N_23  and  O_26
REMARK                            x       y       z     vdW  Elec       q    Type
REMARK                         _______ _______ _______ _____ _____    ______ ____
ROOT
ATOM      1  C   UNL     1     -36.525  25.333   4.626  0.00  0.00    +0.065 C 
ATOM      2  C   UNL     1     -35.570  26.259   5.050  0.00  0.00    +0.024 C 
ATOM      3  C   UNL     1     -36.248  23.967   4.689  0.00  0.00    +0.016 C 
ATOM      4  C   UNL     1     -34.340  25.817   5.536  0.00  0.00    +0.043 C 
ATOM      5  C   UNL     1     -35.017  23.527   5.174  0.00  0.00    +0.002 C 
ATOM      6  C   UNL     1     -34.063  24.451   5.598  0.00  0.00    +0.008 C 
ENDROOT
BRANCH   1   7
ATOM      7  N   UNL     1     -37.785  25.784   4.130  0.00  0.00    -0.215 N 
ATOM      8  H   UNL     1     -38.517  26.006   4.750  0.00  0.00    +0.174 HD
BRANCH   7   9
ATOM      9  S   UNL     1     -38.002  25.934   2.427  0.00  0.00    +0.074 S 
ATOM     10  O   UNL     1     -39.236  26.651   2.170  0.00  0.00    -0.150 OA
ATOM     11  O   UNL     1     -36.769  26.375   1.806  0.00  0.00    -0.150 OA
BRANCH   9  12
ATOM     12  C   UNL     1     -38.276  24.252   1.946  0.00  0.00    +0.125 C 
ATOM     13  C   UNL     1     -37.349  23.624   1.135  0.00  0.00    +0.020 C 
ATOM     14  C   UNL     1     -39.413  23.601   2.391  0.00  0.00    +0.020 C 
ATOM     15  C   UNL     1     -37.565  22.299   0.755  0.00  0.00    +0.001 C 
ATOM     16  C   UNL     1     -39.629  22.277   2.011  0.00  0.00    +0.001 C 
ATOM     17  C   UNL     1     -38.705  21.625   1.194  0.00  0.00    +0.000 C 
ENDBRANCH   9  12
ENDBRANCH   7   9
ENDBRANCH   1   7
BRANCH   4  18
ATOM     18  C   UNL     1     -33.361  26.765   5.970  0.00  0.00    -0.060 C 
ATOM     19  C   UNL     1     -32.539  27.561   6.335  0.00  0.00    -0.059 C 
BRANCH  19  20
ATOM     20  C   UNL     1     -31.567  28.505   6.764  0.00  0.00    +0.054 C 
ATOM     21  C   UNL     1     -30.288  28.406   6.381  0.00  0.00    +0.069 C 
BRANCH  21  24
ATOM     22  O   UNL     1     -28.922  30.348   6.145  0.00  0.00    -0.268 OA
ATOM     23  N   UNL     1     -28.860  29.145   8.117  0.00  0.00    -0.193 N 
ATOM     24  C   UNL     1     -29.291  29.409   6.843  0.00  0.00    +0.269 C 
ATOM     25  H   UNL     1     -29.191  28.374   8.633  0.00  0.00    +0.183 HD
BRANCH  23  26
ATOM     26  O   UNL     1     -27.919  30.042   8.642  0.00  0.00    -0.295 OA
ATOM     27  H   UNL     1     -28.249  30.950   8.546  0.00  0.00    +0.241 HD
ENDBRANCH  23  26
ENDBRANCH  21  24
ENDBRANCH  19  20
ENDBRANCH   4  18
TORSDOF 7
ENDMDL
MODEL 7
REMARK VINA RESULT:      -6.5      6.913      8.410
REMARK  Name = 5353852
REMARK  7 active torsions:
REMARK  status: ('A' for Active; 'I' for Inactive)
REMARK    1  A    between atoms: C_1  and  N_7
REMARK    2  A    between atoms: C_4  and  C_18
REMARK    3  A    between atoms: N_7  and  S_9
REMARK    4  A    between atoms: S_9  and  C_12
REMARK    5  A    between atoms: C_19  and  C_20
REMARK    6  A    between atoms: C_21  and  C_24
REMARK    7  A    between atoms: N_23  and  O_26
REMARK                            x       y       z     vdW  Elec       q    Type
REMARK                         _______ _______ _______ _____ _____    ______ ____
ROOT
ATOM      1  C   UNL     1     -34.459  28.648   2.383  0.00  0.00    +0.065 C 
ATOM      2  C   UNL     1     -35.568  29.491   2.301  0.00  0.00    +0.024 C 
ATOM      3  C   UNL     1     -33.177  29.160   2.181  0.00  0.00    +0.016 C 
ATOM      4  C   UNL     1     -35.393  30.844   2.015  0.00  0.00    +0.043 C 
ATOM      5  C   UNL     1     -33.004  30.514   1.896  0.00  0.00    +0.002 C 
ATOM      6  C   UNL     1     -34.112  31.356   1.813  0.00  0.00    +0.008 C 
ENDROOT
BRANCH   1   7
ATOM      7  N   UNL     1     -34.636  27.262   2.676  0.00  0.00    -0.215 N 
ATOM      8  H   UNL     1     -35.321  26.734   2.204  0.00  0.00    +0.174 HD
BRANCH   7   9
ATOM      9  S   UNL     1     -33.629  26.529   3.866  0.00  0.00    +0.074 S 
ATOM     10  O   UNL     1     -32.334  26.244   3.279  0.00  0.00    -0.150 OA
ATOM     11  O   UNL     1     -33.710  27.270   5.110  0.00  0.00    -0.150 OA
BRANCH   9  12
ATOM     12  C   UNL     1     -34.434  24.971   4.114  0.00  0.00    +0.125 C 
ATOM     13  C   UNL     1     -34.731  24.564   5.402  0.00  0.00    +0.020 C 
ATOM     14  C   UNL     1     -34.748  24.193   3.014  0.00  0.00    +0.020 C 
ATOM     15  C   UNL     1     -35.364  23.337   5.597  0.00  0.00    +0.001 C 
ATOM     16  C   UNL     1     -35.382  22.966   3.209  0.00  0.00    +0.001 C 
ATOM     17  C   UNL     1     -35.690  22.538   4.501  0.00  0.00    +0.000 C 
ENDBRANCH   9  12
ENDBRANCH   7   9
ENDBRANCH   1   7
BRANCH   4  18
ATOM     18  C   UNL     1     -36.530  31.709   1.930  0.00  0.00    -0.060 C 
ATOM     19  C   UNL     1     -37.484  32.435   1.858  0.00  0.00    -0.059 C 
BRANCH  19  20
ATOM     20  C   UNL     1     -38.611  33.297   1.775  0.00  0.00    +0.054 C 
ATOM     21  C   UNL     1     -38.669  34.432   2.482  0.00  0.00    +0.069 C 
BRANCH  21  24
ATOM     22  O   UNL     1     -40.265  35.761   1.306  0.00  0.00    -0.268 OA
ATOM     23  N   UNL     1     -40.426  35.556   3.603  0.00  0.00    -0.193 N 
ATOM     24  C   UNL     1     -39.861  35.317   2.376  0.00  0.00    +0.269 C 
ATOM     25  H   UNL     1     -40.058  35.173   4.432  0.00  0.00    +0.183 HD
BRANCH  23  26
ATOM     26  O   UNL     1     -41.561  36.378   3.602  0.00  0.00    -0.295 OA
ATOM     27  H   UNL     1     -41.509  37.001   2.859  0.00  0.00    +0.241 HD
ENDBRANCH  23  26
ENDBRANCH  21  24
ENDBRANCH  19  20
ENDBRANCH   4  18
TORSDOF 7
ENDMDL
MODEL 8
REMARK VINA RESULT:      -6.4      6.530      8.030
REMARK  Name = 5353852
REMARK  7 active torsions:
REMARK  status: ('A' for Active; 'I' for Inactive)
REMARK    1  A    between atoms: C_1  and  N_7
REMARK    2  A    between atoms: C_4  and  C_18
REMARK    3  A    between atoms: N_7  and  S_9
REMARK    4  A    between atoms: S_9  and  C_12
REMARK    5  A    between atoms: C_19  and  C_20
REMARK    6  A    between atoms: C_21  and  C_24
REMARK    7  A    between atoms: N_23  and  O_26
REMARK                            x       y       z     vdW  Elec       q    Type
REMARK                         _______ _______ _______ _____ _____    ______ ____
ROOT
ATOM      1  C   UNL     1     -34.102  28.071   3.228  0.00  0.00    +0.065 C 
ATOM      2  C   UNL     1     -35.147  28.886   2.794  0.00  0.00    +0.024 C 
ATOM      3  C   UNL     1     -32.861  28.632   3.533  0.00  0.00    +0.016 C 
ATOM      4  C   UNL     1     -34.951  30.261   2.665  0.00  0.00    +0.043 C 
ATOM      5  C   UNL     1     -32.666  30.007   3.404  0.00  0.00    +0.002 C 
ATOM      6  C   UNL     1     -33.711  30.821   2.970  0.00  0.00    +0.008 C 
ENDROOT
BRANCH   1   7
ATOM      7  N   UNL     1     -34.301  26.664   3.361  0.00  0.00    -0.215 N 
ATOM      8  H   UNL     1     -34.241  26.073   2.576  0.00  0.00    +0.174 HD
BRANCH   7   9
ATOM      9  S   UNL     1     -34.647  26.018   4.921  0.00  0.00    +0.074 S 
ATOM     10  O   UNL     1     -33.442  26.055   5.726  0.00  0.00    -0.150 OA
ATOM     11  O   UNL     1     -35.876  26.591   5.434  0.00  0.00    -0.150 OA
BRANCH   9  12
ATOM     12  C   UNL     1     -34.962  24.316   4.547  0.00  0.00    +0.125 C 
ATOM     13  C   UNL     1     -35.134  23.937   3.228  0.00  0.00    +0.020 C 
ATOM     14  C   UNL     1     -35.029  23.401   5.582  0.00  0.00    +0.020 C 
ATOM     15  C   UNL     1     -35.383  22.596   2.934  0.00  0.00    +0.001 C 
ATOM     16  C   UNL     1     -35.278  22.060   5.288  0.00  0.00    +0.001 C 
ATOM     17  C   UNL     1     -35.455  21.658   3.964  0.00  0.00    +0.000 C 
ENDBRANCH   9  12
ENDBRANCH   7   9
ENDBRANCH   1   7
BRANCH   4  18
ATOM     18  C   UNL     1     -36.023  31.097   2.220  0.00  0.00    -0.060 C 
ATOM     19  C   UNL     1     -36.923  31.799   1.846  0.00  0.00    -0.059 C 
BRANCH  19  20
ATOM     20  C   UNL     1     -37.986  32.632   1.401  0.00  0.00    +0.054 C 
ATOM     21  C   UNL     1     -38.462  33.619   2.171  0.00  0.00    +0.069 C 
BRANCH  21  24
ATOM     22  O   UNL     1     -39.917  34.511   0.503  0.00  0.00    -0.268 OA
ATOM     23  N   UNL     1     -40.144  35.198   2.698  0.00  0.00    -0.193 N 
ATOM     24  C   UNL     1     -39.574  34.477   1.680  0.00  0.00    +0.269 C 
ATOM     25  H   UNL     1     -39.827  35.132   3.628  0.00  0.00    +0.183 HD
BRANCH  23  26
ATOM     26  O   UNL     1     -41.207  36.035   2.332  0.00  0.00    -0.295 OA
ATOM     27  H   UNL     1     -41.799  35.560   1.726  0.00  0.00    +0.241 HD
ENDBRANCH  23  26
ENDBRANCH  21  24
ENDBRANCH  19  20
ENDBRANCH   4  18
TORSDOF 7
ENDMDL
MODEL 9
REMARK VINA RESULT:      -6.4      4.647      9.397
REMARK  Name = 5353852
REMARK  7 active torsions:
REMARK  status: ('A' for Active; 'I' for Inactive)
REMARK    1  A    between atoms: C_1  and  N_7
REMARK    2  A    between atoms: C_4  and  C_18
REMARK    3  A    between atoms: N_7  and  S_9
REMARK    4  A    between atoms: S_9  and  C_12
REMARK    5  A    between atoms: C_19  and  C_20
REMARK    6  A    between atoms: C_21  and  C_24
REMARK    7  A    between atoms: N_23  and  O_26
REMARK                            x       y       z     vdW  Elec       q    Type
REMARK                         _______ _______ _______ _____ _____    ______ ____
ROOT
ATOM      1  C   UNL     1     -37.508  24.559   3.962  0.00  0.00    +0.065 C 
ATOM      2  C   UNL     1     -37.118  23.404   3.284  0.00  0.00    +0.024 C 
ATOM      3  C   UNL     1     -36.602  25.219   4.793  0.00  0.00    +0.016 C 
ATOM      4  C   UNL     1     -35.823  22.909   3.438  0.00  0.00    +0.043 C 
ATOM      5  C   UNL     1     -35.308  24.723   4.946  0.00  0.00    +0.002 C 
ATOM      6  C   UNL     1     -34.918  23.568   4.269  0.00  0.00    +0.008 C 
ENDROOT
BRANCH   1   7
ATOM      7  N   UNL     1     -38.832  25.067   3.804  0.00  0.00    -0.215 N 
ATOM      8  H   UNL     1     -39.451  25.100   4.570  0.00  0.00    +0.174 HD
BRANCH   7   9
ATOM      9  S   UNL     1     -39.330  25.623   2.251  0.00  0.00    +0.074 S 
ATOM     10  O   UNL     1     -38.683  26.891   1.973  0.00  0.00    -0.150 OA
ATOM     11  O   UNL     1     -39.245  24.543   1.286  0.00  0.00    -0.150 OA
BRANCH   9  12
ATOM     12  C   UNL     1     -41.045  25.970   2.521  0.00  0.00    +0.125 C 
ATOM     13  C   UNL     1     -41.971  25.562   1.579  0.00  0.00    +0.020 C 
ATOM     14  C   UNL     1     -41.422  26.644   3.669  0.00  0.00    +0.020 C 
ATOM     15  C   UNL     1     -43.323  25.837   1.792  0.00  0.00    +0.001 C 
ATOM     16  C   UNL     1     -42.773  26.919   3.882  0.00  0.00    +0.001 C 
ATOM     17  C   UNL     1     -43.723  26.516   2.943  0.00  0.00    +0.000 C 
ENDBRANCH   9  12
ENDBRANCH   7   9
ENDBRANCH   1   7
BRANCH   4  18
ATOM     18  C   UNL     1     -35.423  21.724   2.744  0.00  0.00    -0.060 C 
ATOM     19  C   UNL     1     -35.087  20.730   2.161  0.00  0.00    -0.059 C 
BRANCH  19  20
ATOM     20  C   UNL     1     -34.690  19.554   1.468  0.00  0.00    +0.054 C 
ATOM     21  C   UNL     1     -33.426  19.113   1.516  0.00  0.00    +0.069 C 
BRANCH  21  24
ATOM     22  O   UNL     1     -33.735  17.381  -0.096  0.00  0.00    -0.268 OA
ATOM     23  N   UNL     1     -31.828  17.395   1.210  0.00  0.00    -0.193 N 
ATOM     24  C   UNL     1     -33.037  17.879   0.782  0.00  0.00    +0.269 C 
ATOM     25  H   UNL     1     -31.309  17.836   1.921  0.00  0.00    +0.183 HD
BRANCH  23  26
ATOM     26  O   UNL     1     -31.375  16.232   0.571  0.00  0.00    -0.295 OA
ATOM     27  H   UNL     1     -30.976  15.637   1.226  0.00  0.00    +0.241 HD
ENDBRANCH  23  26
ENDBRANCH  21  24
ENDBRANCH  19  20
ENDBRANCH   4  18
TORSDOF 7
ENDMDL
