MODEL 1
REMARK VINA RESULT:      -7.7      0.000      0.000
REMARK  Name = 19119
REMARK  6 active torsions:
REMARK  status: ('A' for Active; 'I' for Inactive)
REMARK    1  A    between atoms: N_1  and  N_2
REMARK    2  A    between atoms: N_1  and  C_7
REMARK    3  A    between atoms: N_2  and  C_22
REMARK    4  A    between atoms: C_5  and  S_13
REMARK    5  A    between atoms: C_6  and  O_17
REMARK    6  A    between atoms: C_21  and  S_29
REMARK                            x       y       z     vdW  Elec       q    Type
REMARK                         _______ _______ _______ _____ _____    ______ ____
ROOT
ATOM      1  N   UNL     1     -35.021  20.436   2.633  0.00  0.00    -0.125 NA
ENDROOT
BRANCH   1   6
ATOM      2  C   UNL     1     -37.287  23.929   3.249  0.00  0.00    +0.021 C 
ATOM      3  C   UNL     1     -37.900  22.786   2.684  0.00  0.00    +0.036 C 
ATOM      4  C   UNL     1     -35.927  23.879   3.597  0.00  0.00    +0.114 C 
ATOM      5  C   UNL     1     -37.134  21.626   2.483  0.00  0.00    +0.150 C 
ATOM      6  C   UNL     1     -35.787  21.597   2.834  0.00  0.00    +0.124 C 
ATOM      7  C   UNL     1     -35.182  22.718   3.389  0.00  0.00    +0.040 C 
ATOM      8  C   UNL     1     -38.053  25.090   3.452  0.00  0.00    +0.001 C 
ATOM      9  C   UNL     1     -39.260  22.836   2.336  0.00  0.00    +0.003 C 
ATOM     10  C   UNL     1     -39.403  25.122   3.100  0.00  0.00    +0.000 C 
ATOM     11  C   UNL     1     -40.005  23.997   2.544  0.00  0.00    +0.000 C 
BRANCH   4  12
ATOM     12  S   UNL     1     -35.075  25.243   4.305  0.00  0.00    +0.042 S 
ATOM     13  O   UNL     1     -33.546  24.716   4.519  0.00  0.00    -0.065 OA
ATOM     14  O   UNL     1     -35.032  26.299   3.308  0.00  0.00    -0.065 OA
ATOM     15  O   UNL     1     -35.669  25.468   5.610  0.00  0.00    -0.065 OA
ENDBRANCH   4  12
BRANCH   5  16
ATOM     16  O   UNL     1     -37.698  20.506   1.937  0.00  0.00    -0.504 OA
ATOM     17  H   UNL     1     -37.224  19.697   1.932  0.00  0.00    +0.292 HD
ENDBRANCH   5  16
ENDBRANCH   1   6
BRANCH   1  18
ATOM     18  N   UNL     1     -34.989  20.156   1.413  0.00  0.00    -0.128 NA
BRANCH  18  22
ATOM     19  C   UNL     1     -31.538  19.988   0.007  0.00  0.00    +0.019 C 
ATOM     20  C   UNL     1     -32.817  20.498   0.332  0.00  0.00    +0.018 C 
ATOM     21  C   UNL     1     -31.188  18.692   0.423  0.00  0.00    +0.112 C 
ATOM     22  C   UNL     1     -33.709  19.698   1.064  0.00  0.00    +0.089 C 
ATOM     23  C   UNL     1     -32.088  17.912   1.149  0.00  0.00    +0.020 C 
ATOM     24  C   UNL     1     -33.346  18.413   1.470  0.00  0.00    +0.019 C 
ATOM     25  C   UNL     1     -30.645  20.787  -0.725  0.00  0.00    +0.001 C 
ATOM     26  C   UNL     1     -33.165  21.793  -0.084  0.00  0.00    +0.001 C 
ATOM     27  C   UNL     1     -31.009  22.072  -1.130  0.00  0.00    +0.000 C 
ATOM     28  C   UNL     1     -32.267  22.574  -0.809  0.00  0.00    +0.000 C 
BRANCH  21  29
ATOM     29  S   UNL     1     -29.627  17.968   0.071  0.00  0.00    +0.042 S 
ATOM     30  O   UNL     1     -29.677  16.501   0.782  0.00  0.00    -0.065 OA
ATOM     31  O   UNL     1     -29.558  17.750  -1.363  0.00  0.00    -0.065 OA
ATOM     32  O   UNL     1     -28.633  18.775   0.756  0.00  0.00    -0.065 OA
ENDBRANCH  21  29
ENDBRANCH  18  22
ENDBRANCH   1  18
TORSDOF 6
ENDMDL
MODEL 2
REMARK VINA RESULT:      -7.3      1.699      2.722
REMARK  Name = 19119
REMARK  6 active torsions:
REMARK  status: ('A' for Active; 'I' for Inactive)
REMARK    1  A    between atoms: N_1  and  N_2
REMARK    2  A    between atoms: N_1  and  C_7
REMARK    3  A    between atoms: N_2  and  C_22
REMARK    4  A    between atoms: C_5  and  S_13
REMARK    5  A    between atoms: C_6  and  O_17
REMARK    6  A    between atoms: C_21  and  S_29
REMARK                            x       y       z     vdW  Elec       q    Type
REMARK                         _______ _______ _______ _____ _____    ______ ____
ROOT
ATOM      1  N   UNL     1     -35.193  20.543   2.784  0.00  0.00    -0.125 NA
ENDROOT
BRANCH   1   6
ATOM      2  C   UNL     1     -37.363  24.118   3.252  0.00  0.00    +0.021 C 
ATOM      3  C   UNL     1     -37.994  22.984   2.688  0.00  0.00    +0.036 C 
ATOM      4  C   UNL     1     -36.018  24.032   3.648  0.00  0.00    +0.114 C 
ATOM      5  C   UNL     1     -37.259  21.796   2.537  0.00  0.00    +0.150 C 
ATOM      6  C   UNL     1     -35.926  21.732   2.935  0.00  0.00    +0.124 C 
ATOM      7  C   UNL     1     -35.305  22.844   3.489  0.00  0.00    +0.040 C 
ATOM      8  C   UNL     1     -38.097  25.307   3.405  0.00  0.00    +0.001 C 
ATOM      9  C   UNL     1     -39.338  23.070   2.293  0.00  0.00    +0.003 C 
ATOM     10  C   UNL     1     -39.432  25.375   3.006  0.00  0.00    +0.000 C 
ATOM     11  C   UNL     1     -40.052  24.259   2.452  0.00  0.00    +0.000 C 
BRANCH   4  12
ATOM     12  S   UNL     1     -35.146  25.383   4.358  0.00  0.00    +0.042 S 
ATOM     13  O   UNL     1     -33.639  24.816   4.622  0.00  0.00    -0.065 OA
ATOM     14  O   UNL     1     -35.046  26.421   3.347  0.00  0.00    -0.065 OA
ATOM     15  O   UNL     1     -35.769  25.645   5.643  0.00  0.00    -0.065 OA
ENDBRANCH   4  12
BRANCH   5  16
ATOM     16  O   UNL     1     -37.841  20.684   1.994  0.00  0.00    -0.504 OA
ATOM     17  H   UNL     1     -37.393  19.860   2.021  0.00  0.00    +0.292 HD
ENDBRANCH   5  16
ENDBRANCH   1   6
BRANCH   1  18
ATOM     18  N   UNL     1     -35.254  20.156   1.595  0.00  0.00    -0.128 NA
BRANCH  18  22
ATOM     19  C   UNL     1     -31.838  20.162   0.096  0.00  0.00    +0.019 C 
ATOM     20  C   UNL     1     -32.978  19.713   0.803  0.00  0.00    +0.018 C 
ATOM     21  C   UNL     1     -31.851  21.440  -0.488  0.00  0.00    +0.112 C 
ATOM     22  C   UNL     1     -34.098  20.553   0.906  0.00  0.00    +0.089 C 
ATOM     23  C   UNL     1     -32.972  22.262  -0.375  0.00  0.00    +0.020 C 
ATOM     24  C   UNL     1     -34.094  21.820   0.320  0.00  0.00    +0.019 C 
ATOM     25  C   UNL     1     -30.717  19.322  -0.007  0.00  0.00    +0.001 C 
ATOM     26  C   UNL     1     -32.964  18.435   1.386  0.00  0.00    +0.001 C 
ATOM     27  C   UNL     1     -30.722  18.056   0.579  0.00  0.00    +0.000 C 
ATOM     28  C   UNL     1     -31.843  17.613   1.274  0.00  0.00    +0.000 C 
BRANCH  21  29
ATOM     29  S   UNL     1     -30.488  22.091  -1.385  0.00  0.00    +0.042 S 
ATOM     30  O   UNL     1     -30.594  23.707  -1.192  0.00  0.00    -0.065 OA
ATOM     31  O   UNL     1     -29.275  21.655  -0.717  0.00  0.00    -0.065 OA
ATOM     32  O   UNL     1     -30.727  21.779  -2.783  0.00  0.00    -0.065 OA
ENDBRANCH  21  29
ENDBRANCH  18  22
ENDBRANCH   1  18
TORSDOF 6
ENDMDL
MODEL 3
REMARK VINA RESULT:      -7.2      2.495      7.759
REMARK  Name = 19119
REMARK  6 active torsions:
REMARK  status: ('A' for Active; 'I' for Inactive)
REMARK    1  A    between atoms: N_1  and  N_2
REMARK    2  A    between atoms: N_1  and  C_7
REMARK    3  A    between atoms: N_2  and  C_22
REMARK    4  A    between atoms: C_5  and  S_13
REMARK    5  A    between atoms: C_6  and  O_17
REMARK    6  A    between atoms: C_21  and  S_29
REMARK                            x       y       z     vdW  Elec       q    Type
REMARK                         _______ _______ _______ _____ _____    ______ ____
ROOT
ATOM      1  N   UNL     1     -35.672  21.826   0.147  0.00  0.00    -0.125 NA
ENDROOT
BRANCH   1   6
ATOM      2  C   UNL     1     -31.819  20.138   0.021  0.00  0.00    +0.021 C 
ATOM      3  C   UNL     1     -32.875  19.430   0.642  0.00  0.00    +0.036 C 
ATOM      4  C   UNL     1     -32.074  21.398  -0.545  0.00  0.00    +0.114 C 
ATOM      5  C   UNL     1     -34.156  20.003   0.678  0.00  0.00    +0.150 C 
ATOM      6  C   UNL     1     -34.389  21.254   0.111  0.00  0.00    +0.124 C 
ATOM      7  C   UNL     1     -33.354  21.951  -0.499  0.00  0.00    +0.040 C 
ATOM      8  C   UNL     1     -30.536  19.565  -0.016  0.00  0.00    +0.001 C 
ATOM      9  C   UNL     1     -32.619  18.170   1.208  0.00  0.00    +0.003 C 
ATOM     10  C   UNL     1     -30.299  18.312   0.552  0.00  0.00    +0.000 C 
ATOM     11  C   UNL     1     -31.338  17.617   1.162  0.00  0.00    +0.000 C 
BRANCH   4  12
ATOM     12  S   UNL     1     -30.833  22.355  -1.339  0.00  0.00    +0.042 S 
ATOM     13  O   UNL     1     -31.085  23.881  -0.819  0.00  0.00    -0.065 OA
ATOM     14  O   UNL     1     -29.547  21.927  -0.814  0.00  0.00    -0.065 OA
ATOM     15  O   UNL     1     -31.117  22.302  -2.761  0.00  0.00    -0.065 OA
ENDBRANCH   4  12
BRANCH   5  16
ATOM     16  O   UNL     1     -35.197  19.344   1.272  0.00  0.00    -0.504 OA
ATOM     17  H   UNL     1     -35.153  18.415   1.399  0.00  0.00    +0.292 HD
ENDBRANCH   5  16
ENDBRANCH   1   6
BRANCH   1  18
ATOM     18  N   UNL     1     -36.161  21.698   1.292  0.00  0.00    -0.128 NA
BRANCH  18  22
ATOM     19  C   UNL     1     -35.122  23.769   4.216  0.00  0.00    +0.019 C 
ATOM     20  C   UNL     1     -35.493  22.635   3.455  0.00  0.00    +0.018 C 
ATOM     21  C   UNL     1     -35.061  25.026   3.591  0.00  0.00    +0.112 C 
ATOM     22  C   UNL     1     -35.790  22.790   2.092  0.00  0.00    +0.089 C 
ATOM     23  C   UNL     1     -35.360  25.161   2.235  0.00  0.00    +0.020 C 
ATOM     24  C   UNL     1     -35.723  24.046   1.486  0.00  0.00    +0.019 C 
ATOM     25  C   UNL     1     -34.825  23.615   5.580  0.00  0.00    +0.001 C 
ATOM     26  C   UNL     1     -35.554  21.379   4.081  0.00  0.00    +0.001 C 
ATOM     27  C   UNL     1     -34.892  22.359   6.184  0.00  0.00    +0.000 C 
ATOM     28  C   UNL     1     -35.255  21.243   5.436  0.00  0.00    +0.000 C 
BRANCH  21  29
ATOM     29  S   UNL     1     -34.613  26.494   4.446  0.00  0.00    +0.042 S 
ATOM     30  O   UNL     1     -34.980  27.705   3.417  0.00  0.00    -0.065 OA
ATOM     31  O   UNL     1     -35.494  26.620   5.593  0.00  0.00    -0.065 OA
ATOM     32  O   UNL     1     -33.171  26.452   4.609  0.00  0.00    -0.065 OA
ENDBRANCH  21  29
ENDBRANCH  18  22
ENDBRANCH   1  18
TORSDOF 6
ENDMDL
MODEL 4
REMARK VINA RESULT:      -7.2      2.820      8.072
REMARK  Name = 19119
REMARK  6 active torsions:
REMARK  status: ('A' for Active; 'I' for Inactive)
REMARK    1  A    between atoms: N_1  and  N_2
REMARK    2  A    between atoms: N_1  and  C_7
REMARK    3  A    between atoms: N_2  and  C_22
REMARK    4  A    between atoms: C_5  and  S_13
REMARK    5  A    between atoms: C_6  and  O_17
REMARK    6  A    between atoms: C_21  and  S_29
REMARK                            x       y       z     vdW  Elec       q    Type
REMARK                         _______ _______ _______ _____ _____    ______ ____
ROOT
ATOM      1  N   UNL     1     -35.322  19.915   1.433  0.00  0.00    -0.125 NA
ENDROOT
BRANCH   1   6
ATOM      2  C   UNL     1     -31.559  20.737  -0.264  0.00  0.00    +0.021 C 
ATOM      3  C   UNL     1     -31.777  19.504   0.394  0.00  0.00    +0.036 C 
ATOM      4  C   UNL     1     -32.606  21.671  -0.340  0.00  0.00    +0.114 C 
ATOM      5  C   UNL     1     -33.037  19.241   0.956  0.00  0.00    +0.150 C 
ATOM      6  C   UNL     1     -34.062  20.180   0.871  0.00  0.00    +0.124 C 
ATOM      7  C   UNL     1     -33.850  21.392   0.225  0.00  0.00    +0.040 C 
ATOM      8  C   UNL     1     -30.300  21.002  -0.828  0.00  0.00    +0.001 C 
ATOM      9  C   UNL     1     -30.731  18.571   0.470  0.00  0.00    +0.003 C 
ATOM     10  C   UNL     1     -29.270  20.063  -0.742  0.00  0.00    +0.000 C 
ATOM     11  C   UNL     1     -29.486  18.850  -0.095  0.00  0.00    +0.000 C 
BRANCH   4  12
ATOM     12  S   UNL     1     -32.436  23.229  -1.135  0.00  0.00    +0.042 S 
ATOM     13  O   UNL     1     -33.906  23.926  -1.009  0.00  0.00    -0.065 OA
ATOM     14  O   UNL     1     -31.511  24.025  -0.347  0.00  0.00    -0.065 OA
ATOM     15  O   UNL     1     -32.180  22.951  -2.537  0.00  0.00    -0.065 OA
ENDBRANCH   4  12
BRANCH   5  16
ATOM     16  O   UNL     1     -33.278  18.058   1.600  0.00  0.00    -0.504 OA
ATOM     17  H   UNL     1     -32.876  17.884   2.429  0.00  0.00    +0.292 HD
ENDBRANCH   5  16
ENDBRANCH   1   6
BRANCH   1  18
ATOM     18  N   UNL     1     -35.368  20.366   2.600  0.00  0.00    -0.128 NA
BRANCH  18  22
ATOM     19  C   UNL     1     -37.019  23.570   3.565  0.00  0.00    +0.019 C 
ATOM     20  C   UNL     1     -36.080  22.511   3.546  0.00  0.00    +0.018 C 
ATOM     21  C   UNL     1     -38.122  23.525   2.695  0.00  0.00    +0.112 C 
ATOM     22  C   UNL     1     -36.270  21.440   2.659  0.00  0.00    +0.089 C 
ATOM     23  C   UNL     1     -38.295  22.452   1.821  0.00  0.00    +0.020 C 
ATOM     24  C   UNL     1     -37.371  21.411   1.802  0.00  0.00    +0.019 C 
ATOM     25  C   UNL     1     -36.829  24.642   4.451  0.00  0.00    +0.001 C 
ATOM     26  C   UNL     1     -34.977  22.557   4.415  0.00  0.00    +0.001 C 
ATOM     27  C   UNL     1     -35.728  24.669   5.308  0.00  0.00    +0.000 C 
ATOM     28  C   UNL     1     -34.803  23.629   5.289  0.00  0.00    +0.000 C 
BRANCH  21  29
ATOM     29  S   UNL     1     -39.342  24.787   2.640  0.00  0.00    +0.042 S 
ATOM     30  O   UNL     1     -40.407  24.290   1.509  0.00  0.00    -0.065 OA
ATOM     31  O   UNL     1     -40.035  24.782   3.916  0.00  0.00    -0.065 OA
ATOM     32  O   UNL     1     -38.679  25.982   2.152  0.00  0.00    -0.065 OA
ENDBRANCH  21  29
ENDBRANCH  18  22
ENDBRANCH   1  18
TORSDOF 6
ENDMDL
MODEL 5
REMARK VINA RESULT:      -7.1      3.463      4.656
REMARK  Name = 19119
REMARK  6 active torsions:
REMARK  status: ('A' for Active; 'I' for Inactive)
REMARK    1  A    between atoms: N_1  and  N_2
REMARK    2  A    between atoms: N_1  and  C_7
REMARK    3  A    between atoms: N_2  and  C_22
REMARK    4  A    between atoms: C_5  and  S_13
REMARK    5  A    between atoms: C_6  and  O_17
REMARK    6  A    between atoms: C_21  and  S_29
REMARK                            x       y       z     vdW  Elec       q    Type
REMARK                         _______ _______ _______ _____ _____    ______ ____
ROOT
ATOM      1  N   UNL     1     -37.419  21.101   1.547  0.00  0.00    -0.125 NA
ENDROOT
BRANCH   1   6
ATOM      2  C   UNL     1     -36.762  24.616   3.767  0.00  0.00    +0.021 C 
ATOM      3  C   UNL     1     -36.090  23.424   4.126  0.00  0.00    +0.036 C 
ATOM      4  C   UNL     1     -37.641  24.608   2.671  0.00  0.00    +0.114 C 
ATOM      5  C   UNL     1     -36.318  22.258   3.379  0.00  0.00    +0.150 C 
ATOM      6  C   UNL     1     -37.193  22.269   2.296  0.00  0.00    +0.124 C 
ATOM      7  C   UNL     1     -37.854  23.439   1.940  0.00  0.00    +0.040 C 
ATOM      8  C   UNL     1     -36.535  25.785   4.514  0.00  0.00    +0.001 C 
ATOM      9  C   UNL     1     -35.212  23.434   5.222  0.00  0.00    +0.003 C 
ATOM     10  C   UNL     1     -35.659  25.776   5.600  0.00  0.00    +0.000 C 
ATOM     11  C   UNL     1     -34.999  24.603   5.953  0.00  0.00    +0.000 C 
BRANCH   4  12
ATOM     12  S   UNL     1     -38.521  26.035   2.144  0.00  0.00    +0.042 S 
ATOM     13  O   UNL     1     -39.237  25.592   0.746  0.00  0.00    -0.065 OA
ATOM     14  O   UNL     1     -39.577  26.280   3.111  0.00  0.00    -0.065 OA
ATOM     15  O   UNL     1     -37.524  27.048   1.848  0.00  0.00    -0.065 OA
ENDBRANCH   4  12
BRANCH   5  16
ATOM     16  O   UNL     1     -35.684  21.089   3.703  0.00  0.00    -0.504 OA
ATOM     17  H   UNL     1     -34.977  21.094   4.318  0.00  0.00    +0.292 HD
ENDBRANCH   5  16
ENDBRANCH   1   6
BRANCH   1  18
ATOM     18  N   UNL     1     -36.582  21.024   0.620  0.00  0.00    -0.128 NA
BRANCH  18  22
ATOM     19  C   UNL     1     -35.157  17.647  -0.073  0.00  0.00    +0.019 C 
ATOM     20  C   UNL     1     -35.238  18.993   0.356  0.00  0.00    +0.018 C 
ATOM     21  C   UNL     1     -36.290  17.036  -0.636  0.00  0.00    +0.112 C 
ATOM     22  C   UNL     1     -36.448  19.689   0.210  0.00  0.00    +0.089 C 
ATOM     23  C   UNL     1     -37.485  17.743  -0.773  0.00  0.00    +0.020 C 
ATOM     24  C   UNL     1     -37.565  19.066  -0.350  0.00  0.00    +0.019 C 
ATOM     25  C   UNL     1     -33.946  16.951   0.072  0.00  0.00    +0.001 C 
ATOM     26  C   UNL     1     -34.104  19.603   0.918  0.00  0.00    +0.001 C 
ATOM     27  C   UNL     1     -32.830  17.574   0.633  0.00  0.00    +0.000 C 
ATOM     28  C   UNL     1     -32.910  18.897   1.056  0.00  0.00    +0.000 C 
BRANCH  21  29
ATOM     29  S   UNL     1     -36.294  15.372  -1.198  0.00  0.00    +0.042 S 
ATOM     30  O   UNL     1     -37.854  14.904  -1.111  0.00  0.00    -0.065 OA
ATOM     31  O   UNL     1     -35.925  15.383  -2.603  0.00  0.00    -0.065 OA
ATOM     32  O   UNL     1     -35.531  14.606  -0.229  0.00  0.00    -0.065 OA
ENDBRANCH  21  29
ENDBRANCH  18  22
ENDBRANCH   1  18
TORSDOF 6
ENDMDL
MODEL 6
REMARK VINA RESULT:      -7.0      2.437      8.346
REMARK  Name = 19119
REMARK  6 active torsions:
REMARK  status: ('A' for Active; 'I' for Inactive)
REMARK    1  A    between atoms: N_1  and  N_2
REMARK    2  A    between atoms: N_1  and  C_7
REMARK    3  A    between atoms: N_2  and  C_22
REMARK    4  A    between atoms: C_5  and  S_13
REMARK    5  A    between atoms: C_6  and  O_17
REMARK    6  A    between atoms: C_21  and  S_29
REMARK                            x       y       z     vdW  Elec       q    Type
REMARK                         _______ _______ _______ _____ _____    ______ ____
ROOT
ATOM      1  N   UNL     1     -34.639  22.280  -0.065  0.00  0.00    -0.125 NA
ENDROOT
BRANCH   1   6
ATOM      2  C   UNL     1     -31.058  20.088  -0.368  0.00  0.00    +0.021 C 
ATOM      3  C   UNL     1     -31.076  21.456  -0.729  0.00  0.00    +0.036 C 
ATOM      4  C   UNL     1     -32.241  19.481   0.088  0.00  0.00    +0.114 C 
ATOM      5  C   UNL     1     -32.276  22.177  -0.623  0.00  0.00    +0.150 C 
ATOM      6  C   UNL     1     -33.438  21.557  -0.170  0.00  0.00    +0.124 C 
ATOM      7  C   UNL     1     -33.424  20.214   0.185  0.00  0.00    +0.040 C 
ATOM      8  C   UNL     1     -29.858  19.365  -0.471  0.00  0.00    +0.001 C 
ATOM      9  C   UNL     1     -29.894  22.062  -1.184  0.00  0.00    +0.003 C 
ATOM     10  C   UNL     1     -28.692  19.983  -0.926  0.00  0.00    +0.000 C 
ATOM     11  C   UNL     1     -28.710  21.328  -1.281  0.00  0.00    +0.000 C 
BRANCH   4  12
ATOM     12  S   UNL     1     -32.323  17.791   0.561  0.00  0.00    +0.042 S 
ATOM     13  O   UNL     1     -33.915  17.486   0.748  0.00  0.00    -0.065 OA
ATOM     14  O   UNL     1     -31.861  16.998  -0.565  0.00  0.00    -0.065 OA
ATOM     15  O   UNL     1     -31.681  17.694   1.859  0.00  0.00    -0.065 OA
ENDBRANCH   4  12
BRANCH   5  16
ATOM     16  O   UNL     1     -32.325  23.500  -0.966  0.00  0.00    -0.504 OA
ATOM     17  H   UNL     1     -31.597  24.061  -0.779  0.00  0.00    +0.292 HD
ENDBRANCH   5  16
ENDBRANCH   1   6
BRANCH   1  18
ATOM     18  N   UNL     1     -35.244  21.945   0.979  0.00  0.00    -0.128 NA
BRANCH  18  22
ATOM     19  C   UNL     1     -35.000  23.715   4.254  0.00  0.00    +0.019 C 
ATOM     20  C   UNL     1     -35.137  22.661   3.320  0.00  0.00    +0.018 C 
ATOM     21  C   UNL     1     -34.846  25.031   3.788  0.00  0.00    +0.112 C 
ATOM     22  C   UNL     1     -35.114  22.953   1.947  0.00  0.00    +0.089 C 
ATOM     23  C   UNL     1     -34.826  25.303   2.420  0.00  0.00    +0.020 C 
ATOM     24  C   UNL     1     -34.959  24.266   1.500  0.00  0.00    +0.019 C 
ATOM     25  C   UNL     1     -35.024  23.424   5.628  0.00  0.00    +0.001 C 
ATOM     26  C   UNL     1     -35.291  21.345   3.788  0.00  0.00    +0.001 C 
ATOM     27  C   UNL     1     -35.178  22.110   6.073  0.00  0.00    +0.000 C 
ATOM     28  C   UNL     1     -35.311  21.073   5.155  0.00  0.00    +0.000 C 
BRANCH  21  29
ATOM     29  S   UNL     1     -34.670  26.408   4.864  0.00  0.00    +0.042 S 
ATOM     30  O   UNL     1     -34.604  27.705   3.876  0.00  0.00    -0.065 OA
ATOM     31  O   UNL     1     -35.892  26.518   5.640  0.00  0.00    -0.065 OA
ATOM     32  O   UNL     1     -33.380  26.262   5.514  0.00  0.00    -0.065 OA
ENDBRANCH  21  29
ENDBRANCH  18  22
ENDBRANCH   1  18
TORSDOF 6
ENDMDL
MODEL 7
REMARK VINA RESULT:      -7.0      6.526      9.834
REMARK  Name = 19119
REMARK  6 active torsions:
REMARK  status: ('A' for Active; 'I' for Inactive)
REMARK    1  A    between atoms: N_1  and  N_2
REMARK    2  A    between atoms: N_1  and  C_7
REMARK    3  A    between atoms: N_2  and  C_22
REMARK    4  A    between atoms: C_5  and  S_13
REMARK    5  A    between atoms: C_6  and  O_17
REMARK    6  A    between atoms: C_21  and  S_29
REMARK                            x       y       z     vdW  Elec       q    Type
REMARK                         _______ _______ _______ _____ _____    ______ ____
ROOT
ATOM      1  N   UNL     1     -32.929  27.756   5.639  0.00  0.00    -0.125 NA
ENDROOT
BRANCH   1   6
ATOM      2  C   UNL     1     -29.401  30.053   5.644  0.00  0.00    +0.021 C 
ATOM      3  C   UNL     1     -30.578  30.577   5.059  0.00  0.00    +0.036 C 
ATOM      4  C   UNL     1     -29.429  28.770   6.216  0.00  0.00    +0.114 C 
ATOM      5  C   UNL     1     -31.749  29.801   5.063  0.00  0.00    +0.150 C 
ATOM      6  C   UNL     1     -31.756  28.531   5.635  0.00  0.00    +0.124 C 
ATOM      7  C   UNL     1     -30.602  28.015   6.210  0.00  0.00    +0.040 C 
ATOM      8  C   UNL     1     -28.229  30.828   5.641  0.00  0.00    +0.001 C 
ATOM      9  C   UNL     1     -30.550  31.858   4.487  0.00  0.00    +0.003 C 
ATOM     10  C   UNL     1     -28.219  32.100   5.068  0.00  0.00    +0.000 C 
ATOM     11  C   UNL     1     -29.377  32.615   4.492  0.00  0.00    +0.000 C 
BRANCH   4  12
ATOM     12  S   UNL     1     -28.023  28.032   6.968  0.00  0.00    +0.042 S 
ATOM     13  O   UNL     1     -28.431  26.465   7.171  0.00  0.00    -0.065 OA
ATOM     14  O   UNL     1     -26.938  28.073   6.003  0.00  0.00    -0.065 OA
ATOM     15  O   UNL     1     -27.886  28.644   8.277  0.00  0.00    -0.065 OA
ENDBRANCH   4  12
BRANCH   5  16
ATOM     16  O   UNL     1     -32.902  30.279   4.504  0.00  0.00    -0.504 OA
ATOM     17  H   UNL     1     -32.916  31.132   4.114  0.00  0.00    +0.292 HD
ENDBRANCH   5  16
ENDBRANCH   1   6
BRANCH   1  18
ATOM     18  N   UNL     1     -32.819  26.819   4.817  0.00  0.00    -0.128 NA
BRANCH  18  22
ATOM     19  C   UNL     1     -36.006  25.287   3.627  0.00  0.00    +0.019 C 
ATOM     20  C   UNL     1     -34.778  25.435   4.314  0.00  0.00    +0.018 C 
ATOM     21  C   UNL     1     -36.462  26.329   2.802  0.00  0.00    +0.112 C 
ATOM     22  C   UNL     1     -34.042  26.620   4.158  0.00  0.00    +0.089 C 
ATOM     23  C   UNL     1     -35.717  27.499   2.658  0.00  0.00    +0.020 C 
ATOM     24  C   UNL     1     -34.510  27.646   3.335  0.00  0.00    +0.019 C 
ATOM     25  C   UNL     1     -36.742  24.101   3.783  0.00  0.00    +0.001 C 
ATOM     26  C   UNL     1     -34.323  24.392   5.138  0.00  0.00    +0.001 C 
ATOM     27  C   UNL     1     -36.274  23.076   4.606  0.00  0.00    +0.000 C 
ATOM     28  C   UNL     1     -35.067  23.222   5.283  0.00  0.00    +0.000 C 
BRANCH  21  29
ATOM     29  S   UNL     1     -37.971  26.243   1.907  0.00  0.00    +0.042 S 
ATOM     30  O   UNL     1     -38.012  27.615   1.024  0.00  0.00    -0.065 OA
ATOM     31  O   UNL     1     -37.867  25.134   0.976  0.00  0.00    -0.065 OA
ATOM     32  O   UNL     1     -39.038  26.299   2.890  0.00  0.00    -0.065 OA
ENDBRANCH  21  29
ENDBRANCH  18  22
ENDBRANCH   1  18
TORSDOF 6
ENDMDL
MODEL 8
REMARK VINA RESULT:      -7.0      5.022      7.263
REMARK  Name = 19119
REMARK  6 active torsions:
REMARK  status: ('A' for Active; 'I' for Inactive)
REMARK    1  A    between atoms: N_1  and  N_2
REMARK    2  A    between atoms: N_1  and  C_7
REMARK    3  A    between atoms: N_2  and  C_22
REMARK    4  A    between atoms: C_5  and  S_13
REMARK    5  A    between atoms: C_6  and  O_17
REMARK    6  A    between atoms: C_21  and  S_29
REMARK                            x       y       z     vdW  Elec       q    Type
REMARK                         _______ _______ _______ _____ _____    ______ ____
ROOT
ATOM      1  N   UNL     1     -35.083  26.932   2.675  0.00  0.00    -0.125 NA
ENDROOT
BRANCH   1   6
ATOM      2  C   UNL     1     -32.443  29.923   4.019  0.00  0.00    +0.021 C 
ATOM      3  C   UNL     1     -33.260  30.164   2.889  0.00  0.00    +0.036 C 
ATOM      4  C   UNL     1     -32.526  28.684   4.676  0.00  0.00    +0.114 C 
ATOM      5  C   UNL     1     -34.137  29.159   2.450  0.00  0.00    +0.150 C 
ATOM      6  C   UNL     1     -34.204  27.937   3.115  0.00  0.00    +0.124 C 
ATOM      7  C   UNL     1     -33.403  27.697   4.225  0.00  0.00    +0.040 C 
ATOM      8  C   UNL     1     -31.566  30.928   4.460  0.00  0.00    +0.001 C 
ATOM      9  C   UNL     1     -33.177  31.403   2.233  0.00  0.00    +0.003 C 
ATOM     10  C   UNL     1     -31.495  32.153   3.795  0.00  0.00    +0.000 C 
ATOM     11  C   UNL     1     -32.299  32.390   2.684  0.00  0.00    +0.000 C 
BRANCH   4  12
ATOM     12  S   UNL     1     -31.556  28.287   6.086  0.00  0.00    +0.042 S 
ATOM     13  O   UNL     1     -32.219  26.919   6.679  0.00  0.00    -0.065 OA
ATOM     14  O   UNL     1     -30.221  27.952   5.620  0.00  0.00    -0.065 OA
ATOM     15  O   UNL     1     -31.768  29.354   7.047  0.00  0.00    -0.065 OA
ENDBRANCH   4  12
BRANCH   5  16
ATOM     16  O   UNL     1     -34.938  29.362   1.361  0.00  0.00    -0.504 OA
ATOM     17  H   UNL     1     -34.566  29.657   0.552  0.00  0.00    +0.292 HD
ENDBRANCH   5  16
ENDBRANCH   1   6
BRANCH   1  18
ATOM     18  N   UNL     1     -35.350  26.159   3.623  0.00  0.00    -0.128 NA
BRANCH  18  22
ATOM     19  C   UNL     1     -35.343  22.429   3.542  0.00  0.00    +0.019 C 
ATOM     20  C   UNL     1     -35.330  23.748   4.056  0.00  0.00    +0.018 C 
ATOM     21  C   UNL     1     -35.386  22.235   2.151  0.00  0.00    +0.112 C 
ATOM     22  C   UNL     1     -35.360  24.832   3.166  0.00  0.00    +0.089 C 
ATOM     23  C   UNL     1     -35.415  23.325   1.281  0.00  0.00    +0.020 C 
ATOM     24  C   UNL     1     -35.403  24.622   1.787  0.00  0.00    +0.019 C 
ATOM     25  C   UNL     1     -35.312  21.344   4.432  0.00  0.00    +0.001 C 
ATOM     26  C   UNL     1     -35.286  23.941   5.447  0.00  0.00    +0.001 C 
ATOM     27  C   UNL     1     -35.269  21.556   5.811  0.00  0.00    +0.000 C 
ATOM     28  C   UNL     1     -35.257  22.852   6.317  0.00  0.00    +0.000 C 
BRANCH  21  29
ATOM     29  S   UNL     1     -35.406  20.641   1.413  0.00  0.00    +0.042 S 
ATOM     30  O   UNL     1     -35.348  20.923  -0.193  0.00  0.00    -0.065 OA
ATOM     31  O   UNL     1     -34.169  19.973   1.778  0.00  0.00    -0.065 OA
ATOM     32  O   UNL     1     -36.696  20.055   1.729  0.00  0.00    -0.065 OA
ENDBRANCH  21  29
ENDBRANCH  18  22
ENDBRANCH   1  18
TORSDOF 6
ENDMDL
MODEL 9
REMARK VINA RESULT:      -7.0      2.449      7.716
REMARK  Name = 19119
REMARK  6 active torsions:
REMARK  status: ('A' for Active; 'I' for Inactive)
REMARK    1  A    between atoms: N_1  and  N_2
REMARK    2  A    between atoms: N_1  and  C_7
REMARK    3  A    between atoms: N_2  and  C_22
REMARK    4  A    between atoms: C_5  and  S_13
REMARK    5  A    between atoms: C_6  and  O_17
REMARK    6  A    between atoms: C_21  and  S_29
REMARK                            x       y       z     vdW  Elec       q    Type
REMARK                         _______ _______ _______ _____ _____    ______ ____
ROOT
ATOM      1  N   UNL     1     -35.752  21.746   0.160  0.00  0.00    -0.125 NA
ENDROOT
BRANCH   1   6
ATOM      2  C   UNL     1     -34.685  17.680  -0.058  0.00  0.00    +0.021 C 
ATOM      3  C   UNL     1     -36.037  18.060  -0.231  0.00  0.00    +0.036 C 
ATOM      4  C   UNL     1     -33.717  18.669   0.184  0.00  0.00    +0.114 C 
ATOM      5  C   UNL     1     -36.381  19.420  -0.156  0.00  0.00    +0.150 C 
ATOM      6  C   UNL     1     -35.407  20.385   0.086  0.00  0.00    +0.124 C 
ATOM      7  C   UNL     1     -34.078  20.014   0.255  0.00  0.00    +0.040 C 
ATOM      8  C   UNL     1     -34.338  16.320  -0.134  0.00  0.00    +0.001 C 
ATOM      9  C   UNL     1     -37.004  17.072  -0.472  0.00  0.00    +0.003 C 
ATOM     10  C   UNL     1     -35.313  15.350  -0.374  0.00  0.00    +0.000 C 
ATOM     11  C   UNL     1     -36.642  15.725  -0.544  0.00  0.00    +0.000 C 
BRANCH   4  12
ATOM     12  S   UNL     1     -32.014  18.300   0.410  0.00  0.00    +0.042 S 
ATOM     13  O   UNL     1     -31.265  19.749   0.385  0.00  0.00    -0.065 OA
ATOM     14  O   UNL     1     -31.857  17.756   1.748  0.00  0.00    -0.065 OA
ATOM     15  O   UNL     1     -31.596  17.548  -0.759  0.00  0.00    -0.065 OA
ENDBRANCH   4  12
BRANCH   5  16
ATOM     16  O   UNL     1     -37.679  19.819  -0.317  0.00  0.00    -0.504 OA
ATOM     17  H   UNL     1     -38.221  19.405  -0.961  0.00  0.00    +0.292 HD
ENDBRANCH   5  16
ENDBRANCH   1   6
BRANCH   1  18
ATOM     18  N   UNL     1     -36.499  21.940   1.145  0.00  0.00    -0.128 NA
BRANCH  18  22
ATOM     19  C   UNL     1     -35.065  23.829   4.025  0.00  0.00    +0.019 C 
ATOM     20  C   UNL     1     -35.584  22.752   3.268  0.00  0.00    +0.018 C 
ATOM     21  C   UNL     1     -34.956  25.097   3.430  0.00  0.00    +0.112 C 
ATOM     22  C   UNL     1     -35.978  22.973   1.940  0.00  0.00    +0.089 C 
ATOM     23  C   UNL     1     -35.353  25.299   2.108  0.00  0.00    +0.020 C 
ATOM     24  C   UNL     1     -35.863  24.240   1.363  0.00  0.00    +0.019 C 
ATOM     25  C   UNL     1     -34.670  23.608   5.354  0.00  0.00    +0.001 C 
ATOM     26  C   UNL     1     -35.693  21.484   3.864  0.00  0.00    +0.001 C 
ATOM     27  C   UNL     1     -34.786  22.342   5.929  0.00  0.00    +0.000 C 
ATOM     28  C   UNL     1     -35.296  21.282   5.185  0.00  0.00    +0.000 C 
BRANCH  21  29
ATOM     29  S   UNL     1     -34.325  26.498   4.282  0.00  0.00    +0.042 S 
ATOM     30  O   UNL     1     -34.821  27.780   3.404  0.00  0.00    -0.065 OA
ATOM     31  O   UNL     1     -34.997  26.568   5.567  0.00  0.00    -0.065 OA
ATOM     32  O   UNL     1     -32.878  26.416   4.197  0.00  0.00    -0.065 OA
ENDBRANCH  21  29
ENDBRANCH  18  22
ENDBRANCH   1  18
TORSDOF 6
ENDMDL
