MODEL 1
REMARK VINA RESULT:      -6.4      0.000      0.000
REMARK  Name = 20824
REMARK  7 active torsions:
REMARK  status: ('A' for Active; 'I' for Inactive)
REMARK    1  A    between atoms: N_2  and  CA_11
REMARK    2  A    between atoms: C_3  and  C_19
REMARK    3  A    between atoms: CA_10  and  C_16
REMARK    4  A    between atoms: C_16  and  O_17
REMARK    5  A    between atoms: C_19  and  C_20
REMARK    6  A    between atoms: C_19  and  C_27
REMARK    7  A    between atoms: C_27  and  O_28
REMARK                            x       y       z     vdW  Elec       q    Type
REMARK                         _______ _______ _______ _____ _____    ______ ____
ROOT
ATOM      1  O   UNL     1     -35.149  26.383   2.710  0.00  0.00    -0.274 OA
ATOM      2  N   UNL     1     -37.286  25.880   3.464  0.00  0.00    -0.296 N 
ATOM      3  C   UNL     1     -35.897  25.948   3.583  0.00  0.00    +0.237 C 
ATOM      4  H   UNL     1     -37.805  25.515   4.216  0.00  0.00    +0.150 HD
ENDROOT
BRANCH   2  11
ATOM      5  S   UNL     1     -37.730  23.581   1.477  0.00  0.00    -0.118 S 
ATOM      6  O   UNL     1     -40.369  26.682   3.162  0.00  0.00    -0.273 OA
ATOM      7  N   UNL     1     -39.608  25.366   1.356  0.00  0.00    -0.260 N 
ATOM      8  C   UNL     1     -38.163  25.322   1.114  0.00  0.00    +0.151 C 
ATOM      9  C   UNL     1     -39.405  23.005   0.902  0.00  0.00    +0.068 C 
ATOM     10  CA  UNL     1     -40.357  24.126   1.369  0.00  0.00    +0.184 C 
ATOM     11  CA  UNL     1     -38.006  26.327   2.264  0.00  0.00    +0.178 C 
ATOM     12  C   UNL     1     -39.541  26.255   2.389  0.00  0.00    +0.247 C 
ATOM     13  C   UNL     1     -39.342  22.816  -0.620  0.00  0.00    +0.013 C 
ATOM     14  C   UNL     1     -39.733  21.675   1.582  0.00  0.00    +0.013 C 
BRANCH  10  16
ATOM     15  OXT UNL     1     -42.542  23.596   0.489  0.00  0.00    -0.248 OA
ATOM     16  C   UNL     1     -41.568  24.333   0.516  0.00  0.00    +0.333 C 
BRANCH  16  17
ATOM     17  O   UNL     1     -41.440  25.457  -0.231  0.00  0.00    -0.479 OA
ATOM     18  H   UNL     1     -41.856  26.252   0.042  0.00  0.00    +0.295 HD
ENDBRANCH  16  17
ENDBRANCH  10  16
ENDBRANCH   2  11
BRANCH   3  19
ATOM     19  C   UNL     1     -35.380  25.429   4.925  0.00  0.00    +0.197 C 
BRANCH  19  20
ATOM     20  C   UNL     1     -35.341  23.909   4.924  0.00  0.00    -0.003 C 
ATOM     21  C   UNL     1     -35.373  23.240   6.131  0.00  0.00    -0.003 C 
ATOM     22  C   UNL     1     -35.274  23.242   3.717  0.00  0.00    -0.003 C 
ATOM     23  C   UNL     1     -35.337  21.845   6.131  0.00  0.00    -0.000 C 
ATOM     24  C   UNL     1     -35.236  21.848   3.717  0.00  0.00    -0.000 C 
ATOM     25  C   UNL     1     -35.268  21.149   4.924  0.00  0.00    -0.000 C 
ENDBRANCH  19  20
BRANCH  19  27
ATOM     26  O   UNL     1     -33.826  26.663   6.354  0.00  0.00    -0.249 OA
ATOM     27  C   UNL     1     -34.043  26.039   5.323  0.00  0.00    +0.326 C 
BRANCH  27  28
ATOM     28  O   UNL     1     -33.070  25.780   4.409  0.00  0.00    -0.480 OA
ATOM     29  H   UNL     1     -32.327  25.263   4.650  0.00  0.00    +0.295 HD
ENDBRANCH  27  28
ENDBRANCH  19  27
ENDBRANCH   3  19
TORSDOF 7
ENDMDL
MODEL 2
REMARK VINA RESULT:      -6.3      4.197      5.875
REMARK  Name = 20824
REMARK  7 active torsions:
REMARK  status: ('A' for Active; 'I' for Inactive)
REMARK    1  A    between atoms: N_2  and  CA_11
REMARK    2  A    between atoms: C_3  and  C_19
REMARK    3  A    between atoms: CA_10  and  C_16
REMARK    4  A    between atoms: C_16  and  O_17
REMARK    5  A    between atoms: C_19  and  C_20
REMARK    6  A    between atoms: C_19  and  C_27
REMARK    7  A    between atoms: C_27  and  O_28
REMARK                            x       y       z     vdW  Elec       q    Type
REMARK                         _______ _______ _______ _____ _____    ______ ____
ROOT
ATOM      1  O   UNL     1     -35.152  20.312   2.930  0.00  0.00    -0.274 OA
ATOM      2  N   UNL     1     -35.487  22.175   1.587  0.00  0.00    -0.296 N 
ATOM      3  C   UNL     1     -35.167  20.837   1.818  0.00  0.00    +0.237 C 
ATOM      4  H   UNL     1     -35.473  22.510   0.662  0.00  0.00    +0.150 HD
ENDROOT
BRANCH   2  11
ATOM      5  S   UNL     1     -35.567  25.082   0.602  0.00  0.00    -0.118 S 
ATOM      6  O   UNL     1     -38.328  22.616   2.992  0.00  0.00    -0.273 OA
ATOM      7  N   UNL     1     -37.225  24.655   2.551  0.00  0.00    -0.260 N 
ATOM      8  C   UNL     1     -35.773  24.609   2.358  0.00  0.00    +0.151 C 
ATOM      9  C   UNL     1     -37.076  26.171   0.680  0.00  0.00    +0.068 C 
ATOM     10  CA  UNL     1     -38.036  25.399   1.610  0.00  0.00    +0.184 C 
ATOM     11  CA  UNL     1     -35.845  23.107   2.666  0.00  0.00    +0.178 C 
ATOM     12  C   UNL     1     -37.362  23.326   2.829  0.00  0.00    +0.247 C 
ATOM     13  C   UNL     1     -36.640  27.543   1.211  0.00  0.00    +0.013 C 
ATOM     14  C   UNL     1     -37.658  26.315  -0.727  0.00  0.00    +0.013 C 
BRANCH  10  16
ATOM     15  OXT UNL     1     -39.988  26.772   1.977  0.00  0.00    -0.248 OA
ATOM     16  C   UNL     1     -38.972  26.249   2.410  0.00  0.00    +0.333 C 
BRANCH  16  17
ATOM     17  O   UNL     1     -38.539  26.364   3.689  0.00  0.00    -0.479 OA
ATOM     18  H   UNL     1     -37.889  25.775   4.019  0.00  0.00    +0.295 HD
ENDBRANCH  16  17
ENDBRANCH  10  16
ENDBRANCH   2  11
BRANCH   3  19
ATOM     19  C   UNL     1     -34.835  20.067   0.540  0.00  0.00    +0.197 C 
BRANCH  19  20
ATOM     20  C   UNL     1     -33.412  19.534   0.597  0.00  0.00    -0.003 C 
ATOM     21  C   UNL     1     -32.408  20.244  -0.031  0.00  0.00    -0.003 C 
ATOM     22  C   UNL     1     -33.165  18.358   1.276  0.00  0.00    -0.003 C 
ATOM     23  C   UNL     1     -31.102  19.756   0.022  0.00  0.00    -0.000 C 
ATOM     24  C   UNL     1     -31.859  17.869   1.327  0.00  0.00    -0.000 C 
ATOM     25  C   UNL     1     -30.828  18.568   0.700  0.00  0.00    -0.000 C 
ENDBRANCH  19  20
BRANCH  19  27
ATOM     26  O   UNL     1     -35.843  18.267  -0.775  0.00  0.00    -0.249 OA
ATOM     27  C   UNL     1     -35.846  18.972   0.225  0.00  0.00    +0.326 C 
BRANCH  27  28
ATOM     28  O   UNL     1     -36.764  18.824   1.218  0.00  0.00    -0.480 OA
ATOM     29  H   UNL     1     -36.566  19.116   2.087  0.00  0.00    +0.295 HD
ENDBRANCH  27  28
ENDBRANCH  19  27
ENDBRANCH   3  19
TORSDOF 7
ENDMDL
MODEL 3
REMARK VINA RESULT:      -6.0      3.945      6.739
REMARK  Name = 20824
REMARK  7 active torsions:
REMARK  status: ('A' for Active; 'I' for Inactive)
REMARK    1  A    between atoms: N_2  and  CA_11
REMARK    2  A    between atoms: C_3  and  C_19
REMARK    3  A    between atoms: CA_10  and  C_16
REMARK    4  A    between atoms: C_16  and  O_17
REMARK    5  A    between atoms: C_19  and  C_20
REMARK    6  A    between atoms: C_19  and  C_27
REMARK    7  A    between atoms: C_27  and  O_28
REMARK                            x       y       z     vdW  Elec       q    Type
REMARK                         _______ _______ _______ _____ _____    ______ ____
ROOT
ATOM      1  O   UNL     1     -35.650  22.056  -1.292  0.00  0.00    -0.274 OA
ATOM      2  N   UNL     1     -35.452  22.410   0.993  0.00  0.00    -0.296 N 
ATOM      3  C   UNL     1     -35.511  21.615  -0.152  0.00  0.00    +0.237 C 
ATOM      4  H   UNL     1     -35.338  21.969   1.866  0.00  0.00    +0.150 HD
ENDROOT
BRANCH   2  11
ATOM      5  S   UNL     1     -36.343  23.564   3.694  0.00  0.00    -0.118 S 
ATOM      6  O   UNL     1     -33.096  24.573   0.892  0.00  0.00    -0.273 OA
ATOM      7  N   UNL     1     -34.819  25.199   2.378  0.00  0.00    -0.260 N 
ATOM      8  C   UNL     1     -36.134  24.580   2.186  0.00  0.00    +0.151 C 
ATOM      9  C   UNL     1     -35.343  24.777   4.695  0.00  0.00    +0.068 C 
ATOM     10  CA  UNL     1     -34.254  25.252   3.710  0.00  0.00    +0.184 C 
ATOM     11  CA  UNL     1     -35.550  23.875   0.954  0.00  0.00    +0.178 C 
ATOM     12  C   UNL     1     -34.236  24.603   1.298  0.00  0.00    +0.247 C 
ATOM     13  C   UNL     1     -36.291  25.882   5.179  0.00  0.00    +0.013 C 
ATOM     14  C   UNL     1     -34.733  24.048   5.893  0.00  0.00    +0.013 C 
BRANCH  10  16
ATOM     15  OXT UNL     1     -34.088  27.618   3.260  0.00  0.00    -0.248 OA
ATOM     16  C   UNL     1     -33.762  26.647   3.926  0.00  0.00    +0.333 C 
BRANCH  16  17
ATOM     17  O   UNL     1     -32.895  26.694   4.968  0.00  0.00    -0.479 OA
ATOM     18  H   UNL     1     -33.125  26.300   5.787  0.00  0.00    +0.295 HD
ENDBRANCH  16  17
ENDBRANCH  10  16
ENDBRANCH   2  11
BRANCH   3  19
ATOM     19  C   UNL     1     -35.380  20.121   0.141  0.00  0.00    +0.197 C 
BRANCH  19  20
ATOM     20  C   UNL     1     -33.916  19.739   0.294  0.00  0.00    -0.003 C 
ATOM     21  C   UNL     1     -33.598  18.575   0.965  0.00  0.00    -0.003 C 
ATOM     22  C   UNL     1     -32.950  20.566  -0.240  0.00  0.00    -0.003 C 
ATOM     23  C   UNL     1     -32.254  18.223   1.105  0.00  0.00    -0.000 C 
ATOM     24  C   UNL     1     -31.607  20.216  -0.098  0.00  0.00    -0.000 C 
ATOM     25  C   UNL     1     -31.259  19.045   0.575  0.00  0.00    -0.000 C 
ENDBRANCH  19  20
BRANCH  19  27
ATOM     26  O   UNL     1     -36.138  20.115   2.466  0.00  0.00    -0.249 OA
ATOM     27  C   UNL     1     -36.220  19.672   1.329  0.00  0.00    +0.326 C 
BRANCH  27  28
ATOM     28  O   UNL     1     -37.130  18.723   0.981  0.00  0.00    -0.480 OA
ATOM     29  H   UNL     1     -37.962  18.692   1.411  0.00  0.00    +0.295 HD
ENDBRANCH  27  28
ENDBRANCH  19  27
ENDBRANCH   3  19
TORSDOF 7
ENDMDL
MODEL 4
REMARK VINA RESULT:      -5.9      1.840      2.614
REMARK  Name = 20824
REMARK  7 active torsions:
REMARK  status: ('A' for Active; 'I' for Inactive)
REMARK    1  A    between atoms: N_2  and  CA_11
REMARK    2  A    between atoms: C_3  and  C_19
REMARK    3  A    between atoms: CA_10  and  C_16
REMARK    4  A    between atoms: C_16  and  O_17
REMARK    5  A    between atoms: C_19  and  C_20
REMARK    6  A    between atoms: C_19  and  C_27
REMARK    7  A    between atoms: C_27  and  O_28
REMARK                            x       y       z     vdW  Elec       q    Type
REMARK                         _______ _______ _______ _____ _____    ______ ____
ROOT
ATOM      1  O   UNL     1     -34.944  25.761   1.815  0.00  0.00    -0.274 OA
ATOM      2  N   UNL     1     -37.132  25.431   2.514  0.00  0.00    -0.296 N 
ATOM      3  C   UNL     1     -35.758  25.562   2.715  0.00  0.00    +0.237 C 
ATOM      4  H   UNL     1     -37.709  25.273   3.296  0.00  0.00    +0.150 HD
ENDROOT
BRANCH   2  11
ATOM      5  S   UNL     1     -40.134  24.796   2.622  0.00  0.00    -0.118 S 
ATOM      6  O   UNL     1     -37.787  28.039   0.778  0.00  0.00    -0.273 OA
ATOM      7  N   UNL     1     -39.547  26.467   0.726  0.00  0.00    -0.260 N 
ATOM      8  C   UNL     1     -39.220  25.077   1.061  0.00  0.00    +0.151 C 
ATOM      9  C   UNL     1     -41.473  25.980   2.095  0.00  0.00    +0.068 C 
ATOM     10  CA  UNL     1     -40.706  27.083   1.336  0.00  0.00    +0.184 C 
ATOM     11  CA  UNL     1     -37.756  25.519   1.187  0.00  0.00    +0.178 C 
ATOM     12  C   UNL     1     -38.266  26.928   0.825  0.00  0.00    +0.247 C 
ATOM     13  C   UNL     1     -42.481  25.200   1.240  0.00  0.00    +0.013 C 
ATOM     14  C   UNL     1     -42.162  26.536   3.342  0.00  0.00    +0.013 C 
BRANCH  10  16
ATOM     15  OXT UNL     1     -42.349  28.593   0.411  0.00  0.00    -0.248 OA
ATOM     16  C   UNL     1     -41.473  27.758   0.243  0.00  0.00    +0.333 C 
BRANCH  16  17
ATOM     17  O   UNL     1     -41.066  27.314  -0.972  0.00  0.00    -0.479 OA
ATOM     18  H   UNL     1     -40.154  27.177  -1.139  0.00  0.00    +0.295 HD
ENDBRANCH  16  17
ENDBRANCH  10  16
ENDBRANCH   2  11
BRANCH   3  19
ATOM     19  C   UNL     1     -35.347  25.440   4.182  0.00  0.00    +0.197 C 
BRANCH  19  20
ATOM     20  C   UNL     1     -35.327  23.979   4.606  0.00  0.00    -0.003 C 
ATOM     21  C   UNL     1     -35.328  23.002   3.631  0.00  0.00    -0.003 C 
ATOM     22  C   UNL     1     -35.308  23.674   5.951  0.00  0.00    -0.003 C 
ATOM     23  C   UNL     1     -35.309  21.661   4.019  0.00  0.00    -0.000 C 
ATOM     24  C   UNL     1     -35.290  22.334   6.340  0.00  0.00    -0.000 C 
ATOM     25  C   UNL     1     -35.291  21.328   5.373  0.00  0.00    -0.000 C 
ENDBRANCH  19  20
BRANCH  19  27
ATOM     26  O   UNL     1     -33.900  27.080   5.276  0.00  0.00    -0.249 OA
ATOM     27  C   UNL     1     -34.036  26.148   4.495  0.00  0.00    +0.326 C 
BRANCH  27  28
ATOM     28  O   UNL     1     -32.987  25.598   3.826  0.00  0.00    -0.480 OA
ATOM     29  H   UNL     1     -32.368  25.064   4.284  0.00  0.00    +0.295 HD
ENDBRANCH  27  28
ENDBRANCH  19  27
ENDBRANCH   3  19
TORSDOF 7
ENDMDL
MODEL 5
REMARK VINA RESULT:      -5.9      3.875      6.116
REMARK  Name = 20824
REMARK  7 active torsions:
REMARK  status: ('A' for Active; 'I' for Inactive)
REMARK    1  A    between atoms: N_2  and  CA_11
REMARK    2  A    between atoms: C_3  and  C_19
REMARK    3  A    between atoms: CA_10  and  C_16
REMARK    4  A    between atoms: C_16  and  O_17
REMARK    5  A    between atoms: C_19  and  C_20
REMARK    6  A    between atoms: C_19  and  C_27
REMARK    7  A    between atoms: C_27  and  O_28
REMARK                            x       y       z     vdW  Elec       q    Type
REMARK                         _______ _______ _______ _____ _____    ______ ____
ROOT
ATOM      1  O   UNL     1     -38.934  23.342   2.967  0.00  0.00    -0.274 OA
ATOM      2  N   UNL     1     -36.727  23.077   2.303  0.00  0.00    -0.296 N 
ATOM      3  C   UNL     1     -37.821  23.818   2.749  0.00  0.00    +0.237 C 
ATOM      4  H   UNL     1     -35.872  23.543   2.155  0.00  0.00    +0.150 HD
ENDROOT
BRANCH   2  11
ATOM      5  S   UNL     1     -35.237  22.311  -0.270  0.00  0.00    -0.118 S 
ATOM      6  O   UNL     1     -35.228  20.698   3.831  0.00  0.00    -0.273 OA
ATOM      7  N   UNL     1     -35.212  20.404   1.489  0.00  0.00    -0.260 N 
ATOM      8  C   UNL     1     -36.225  21.123   0.712  0.00  0.00    +0.151 C 
ATOM      9  C   UNL     1     -33.804  21.122  -0.334  0.00  0.00    +0.068 C 
ATOM     10  CA  UNL     1     -33.832  20.442   1.051  0.00  0.00    +0.184 C 
ATOM     11  CA  UNL     1     -36.793  21.632   2.044  0.00  0.00    +0.178 C 
ATOM     12  C   UNL     1     -35.662  20.823   2.708  0.00  0.00    +0.247 C 
ATOM     13  C   UNL     1     -34.033  20.172  -1.517  0.00  0.00    +0.013 C 
ATOM     14  C   UNL     1     -32.512  21.913  -0.541  0.00  0.00    +0.013 C 
BRANCH  10  16
ATOM     15  OXT UNL     1     -32.145  18.718   1.167  0.00  0.00    -0.248 OA
ATOM     16  C   UNL     1     -33.321  19.036   1.082  0.00  0.00    +0.333 C 
BRANCH  16  17
ATOM     17  O   UNL     1     -34.347  18.152   1.002  0.00  0.00    -0.479 OA
ATOM     18  H   UNL     1     -35.120  18.284   1.515  0.00  0.00    +0.295 HD
ENDBRANCH  16  17
ENDBRANCH  10  16
ENDBRANCH   2  11
BRANCH   3  19
ATOM     19  C   UNL     1     -37.506  25.299   2.952  0.00  0.00    +0.197 C 
BRANCH  19  20
ATOM     20  C   UNL     1     -36.224  25.463   3.754  0.00  0.00    -0.003 C 
ATOM     21  C   UNL     1     -35.049  25.736   3.083  0.00  0.00    -0.003 C 
ATOM     22  C   UNL     1     -36.273  25.333   5.127  0.00  0.00    -0.003 C 
ATOM     23  C   UNL     1     -33.872  25.886   3.819  0.00  0.00    -0.000 C 
ATOM     24  C   UNL     1     -35.096  25.481   5.862  0.00  0.00    -0.000 C 
ATOM     25  C   UNL     1     -33.896  25.758   5.207  0.00  0.00    -0.000 C 
ENDBRANCH  19  20
BRANCH  19  27
ATOM     26  O   UNL     1     -37.278  25.611   0.537  0.00  0.00    -0.249 OA
ATOM     27  C   UNL     1     -37.474  26.085   1.649  0.00  0.00    +0.326 C 
BRANCH  27  28
ATOM     28  O   UNL     1     -37.732  27.407   1.842  0.00  0.00    -0.480 OA
ATOM     29  H   UNL     1     -37.177  27.916   2.400  0.00  0.00    +0.295 HD
ENDBRANCH  27  28
ENDBRANCH  19  27
ENDBRANCH   3  19
TORSDOF 7
ENDMDL
MODEL 6
REMARK VINA RESULT:      -5.8      4.236      7.988
REMARK  Name = 20824
REMARK  7 active torsions:
REMARK  status: ('A' for Active; 'I' for Inactive)
REMARK    1  A    between atoms: N_2  and  CA_11
REMARK    2  A    between atoms: C_3  and  C_19
REMARK    3  A    between atoms: CA_10  and  C_16
REMARK    4  A    between atoms: C_16  and  O_17
REMARK    5  A    between atoms: C_19  and  C_20
REMARK    6  A    between atoms: C_19  and  C_27
REMARK    7  A    between atoms: C_27  and  O_28
REMARK                            x       y       z     vdW  Elec       q    Type
REMARK                         _______ _______ _______ _____ _____    ______ ____
ROOT
ATOM      1  O   UNL     1     -33.889  24.746   1.993  0.00  0.00    -0.274 OA
ATOM      2  N   UNL     1     -33.839  26.906   2.841  0.00  0.00    -0.296 N 
ATOM      3  C   UNL     1     -34.303  25.591   2.785  0.00  0.00    +0.237 C 
ATOM      4  H   UNL     1     -34.229  27.514   3.509  0.00  0.00    +0.150 HD
ENDROOT
BRANCH   2  11
ATOM      5  S   UNL     1     -32.990  29.756   3.605  0.00  0.00    -0.118 S 
ATOM      6  O   UNL     1     -30.753  26.074   2.680  0.00  0.00    -0.273 OA
ATOM      7  N   UNL     1     -31.057  28.409   2.520  0.00  0.00    -0.260 N 
ATOM      8  C   UNL     1     -32.380  28.891   2.112  0.00  0.00    +0.151 C 
ATOM      9  C   UNL     1     -31.255  30.238   4.081  0.00  0.00    +0.068 C 
ATOM     10  CA  UNL     1     -30.409  29.016   3.663  0.00  0.00    +0.184 C 
ATOM     11  CA  UNL     1     -32.793  27.421   1.947  0.00  0.00    +0.178 C 
ATOM     12  C   UNL     1     -31.358  27.083   2.398  0.00  0.00    +0.247 C 
ATOM     13  C   UNL     1     -30.908  31.537   3.340  0.00  0.00    +0.013 C 
ATOM     14  C   UNL     1     -31.199  30.466   5.592  0.00  0.00    +0.013 C 
BRANCH  10  16
ATOM     15  OXT UNL     1     -28.088  29.566   4.036  0.00  0.00    -0.248 OA
ATOM     16  C   UNL     1     -29.001  29.321   3.262  0.00  0.00    +0.333 C 
BRANCH  16  17
ATOM     17  O   UNL     1     -28.870  29.291   1.913  0.00  0.00    -0.479 OA
ATOM     18  H   UNL     1     -28.505  28.536   1.494  0.00  0.00    +0.295 HD
ENDBRANCH  16  17
ENDBRANCH  10  16
ENDBRANCH   2  11
BRANCH   3  19
ATOM     19  C   UNL     1     -35.387  25.288   3.818  0.00  0.00    +0.197 C 
BRANCH  19  20
ATOM     20  C   UNL     1     -35.309  23.835   4.256  0.00  0.00    -0.003 C 
ATOM     21  C   UNL     1     -35.555  22.843   3.327  0.00  0.00    -0.003 C 
ATOM     22  C   UNL     1     -34.995  23.548   5.569  0.00  0.00    -0.003 C 
ATOM     23  C   UNL     1     -35.483  21.509   3.730  0.00  0.00    -0.000 C 
ATOM     24  C   UNL     1     -34.924  22.214   5.972  0.00  0.00    -0.000 C 
ATOM     25  C   UNL     1     -35.169  21.195   5.052  0.00  0.00    -0.000 C 
ENDBRANCH  19  20
BRANCH  19  27
ATOM     26  O   UNL     1     -34.364  26.642   5.579  0.00  0.00    -0.249 OA
ATOM     27  C   UNL     1     -35.367  26.248   5.000  0.00  0.00    +0.326 C 
BRANCH  27  28
ATOM     28  O   UNL     1     -36.616  26.670   5.337  0.00  0.00    -0.480 OA
ATOM     29  H   UNL     1     -36.725  27.431   5.872  0.00  0.00    +0.295 HD
ENDBRANCH  27  28
ENDBRANCH  19  27
ENDBRANCH   3  19
TORSDOF 7
ENDMDL
MODEL 7
REMARK VINA RESULT:      -5.8      2.607      3.414
REMARK  Name = 20824
REMARK  7 active torsions:
REMARK  status: ('A' for Active; 'I' for Inactive)
REMARK    1  A    between atoms: N_2  and  CA_11
REMARK    2  A    between atoms: C_3  and  C_19
REMARK    3  A    between atoms: CA_10  and  C_16
REMARK    4  A    between atoms: C_16  and  O_17
REMARK    5  A    between atoms: C_19  and  C_20
REMARK    6  A    between atoms: C_19  and  C_27
REMARK    7  A    between atoms: C_27  and  O_28
REMARK                            x       y       z     vdW  Elec       q    Type
REMARK                         _______ _______ _______ _____ _____    ______ ____
ROOT
ATOM      1  O   UNL     1     -39.043  24.966   3.649  0.00  0.00    -0.274 OA
ATOM      2  N   UNL     1     -37.478  24.169   2.132  0.00  0.00    -0.296 N 
ATOM      3  C   UNL     1     -37.877  24.706   3.356  0.00  0.00    +0.237 C 
ATOM      4  H   UNL     1     -36.521  23.993   1.985  0.00  0.00    +0.150 HD
ENDROOT
BRANCH   2  11
ATOM      5  S   UNL     1     -36.177  22.459  -0.061  0.00  0.00    -0.118 S 
ATOM      6  O   UNL     1     -39.964  22.154   2.171  0.00  0.00    -0.273 OA
ATOM      7  N   UNL     1     -38.718  21.996   0.173  0.00  0.00    -0.260 N 
ATOM      8  C   UNL     1     -37.872  23.137  -0.188  0.00  0.00    +0.151 C 
ATOM      9  C   UNL     1     -36.776  20.767  -0.562  0.00  0.00    +0.068 C 
ATOM     10  CA  UNL     1     -38.164  20.660   0.105  0.00  0.00    +0.184 C 
ATOM     11  CA  UNL     1     -38.424  23.855   1.052  0.00  0.00    +0.178 C 
ATOM     12  C   UNL     1     -39.246  22.573   1.291  0.00  0.00    +0.247 C 
ATOM     13  C   UNL     1     -36.798  20.710  -2.095  0.00  0.00    +0.013 C 
ATOM     14  C   UNL     1     -35.810  19.715  -0.012  0.00  0.00    +0.013 C 
BRANCH  10  16
ATOM     15  OXT UNL     1     -40.058  20.226  -1.329  0.00  0.00    -0.248 OA
ATOM     16  C   UNL     1     -39.156  19.806  -0.620  0.00  0.00    +0.333 C 
BRANCH  16  17
ATOM     17  O   UNL     1     -38.921  18.492  -0.381  0.00  0.00    -0.479 OA
ATOM     18  H   UNL     1     -38.755  17.909  -1.096  0.00  0.00    +0.295 HD
ENDBRANCH  16  17
ENDBRANCH  10  16
ENDBRANCH   2  11
BRANCH   3  19
ATOM     19  C   UNL     1     -36.715  24.941   4.320  0.00  0.00    +0.197 C 
BRANCH  19  20
ATOM     20  C   UNL     1     -36.087  23.617   4.725  0.00  0.00    -0.003 C 
ATOM     21  C   UNL     1     -35.569  23.485   5.998  0.00  0.00    -0.003 C 
ATOM     22  C   UNL     1     -36.052  22.586   3.808  0.00  0.00    -0.003 C 
ATOM     23  C   UNL     1     -34.993  22.269   6.369  0.00  0.00    -0.000 C 
ATOM     24  C   UNL     1     -35.475  21.371   4.178  0.00  0.00    -0.000 C 
ATOM     25  C   UNL     1     -34.945  21.213   5.459  0.00  0.00    -0.000 C 
ENDBRANCH  19  20
BRANCH  19  27
ATOM     26  O   UNL     1     -35.062  25.803   2.737  0.00  0.00    -0.249 OA
ATOM     27  C   UNL     1     -35.686  25.926   3.783  0.00  0.00    +0.326 C 
BRANCH  27  28
ATOM     28  O   UNL     1     -35.551  27.014   4.589  0.00  0.00    -0.480 OA
ATOM     29  H   UNL     1     -34.842  27.059   5.200  0.00  0.00    +0.295 HD
ENDBRANCH  27  28
ENDBRANCH  19  27
ENDBRANCH   3  19
TORSDOF 7
ENDMDL
MODEL 8
REMARK VINA RESULT:      -5.8      2.657      3.989
REMARK  Name = 20824
REMARK  7 active torsions:
REMARK  status: ('A' for Active; 'I' for Inactive)
REMARK    1  A    between atoms: N_2  and  CA_11
REMARK    2  A    between atoms: C_3  and  C_19
REMARK    3  A    between atoms: CA_10  and  C_16
REMARK    4  A    between atoms: C_16  and  O_17
REMARK    5  A    between atoms: C_19  and  C_20
REMARK    6  A    between atoms: C_19  and  C_27
REMARK    7  A    between atoms: C_27  and  O_28
REMARK                            x       y       z     vdW  Elec       q    Type
REMARK                         _______ _______ _______ _____ _____    ______ ____
ROOT
ATOM      1  O   UNL     1     -35.626  20.515   2.904  0.00  0.00    -0.274 OA
ATOM      2  N   UNL     1     -37.124  22.270   3.157  0.00  0.00    -0.296 N 
ATOM      3  C   UNL     1     -35.937  21.586   3.422  0.00  0.00    +0.237 C 
ATOM      4  H   UNL     1     -37.289  23.122   3.620  0.00  0.00    +0.150 HD
ENDROOT
BRANCH   2  11
ATOM      5  S   UNL     1     -39.434  24.262   2.815  0.00  0.00    -0.118 S 
ATOM      6  O   UNL     1     -36.941  21.996  -0.025  0.00  0.00    -0.273 OA
ATOM      7  N   UNL     1     -39.026  22.848   0.678  0.00  0.00    -0.260 N 
ATOM      8  C   UNL     1     -39.427  22.593   2.065  0.00  0.00    +0.151 C 
ATOM      9  C   UNL     1     -39.920  25.031   1.188  0.00  0.00    +0.068 C 
ATOM     10  CA  UNL     1     -39.157  24.188   0.144  0.00  0.00    +0.184 C 
ATOM     11  CA  UNL     1     -38.138  21.772   2.218  0.00  0.00    +0.178 C 
ATOM     12  C   UNL     1     -37.863  22.138   0.746  0.00  0.00    +0.247 C 
ATOM     13  C   UNL     1     -41.448  24.960   1.072  0.00  0.00    +0.013 C 
ATOM     14  C   UNL     1     -39.460  26.490   1.171  0.00  0.00    +0.013 C 
BRANCH  10  16
ATOM     15  OXT UNL     1     -40.482  23.109  -1.561  0.00  0.00    -0.248 OA
ATOM     16  C   UNL     1     -39.823  24.068  -1.190  0.00  0.00    +0.333 C 
BRANCH  16  17
ATOM     17  O   UNL     1     -39.594  25.174  -1.940  0.00  0.00    -0.479 OA
ATOM     18  H   UNL     1     -39.623  25.120  -2.875  0.00  0.00    +0.295 HD
ENDBRANCH  16  17
ENDBRANCH  10  16
ENDBRANCH   2  11
BRANCH   3  19
ATOM     19  C   UNL     1     -35.039  22.303   4.429  0.00  0.00    +0.197 C 
BRANCH  19  20
ATOM     20  C   UNL     1     -35.175  23.810   4.280  0.00  0.00    -0.003 C 
ATOM     21  C   UNL     1     -34.416  24.458   3.326  0.00  0.00    -0.003 C 
ATOM     22  C   UNL     1     -36.052  24.487   5.103  0.00  0.00    -0.003 C 
ATOM     23  C   UNL     1     -34.541  25.841   3.189  0.00  0.00    -0.000 C 
ATOM     24  C   UNL     1     -36.176  25.870   4.967  0.00  0.00    -0.000 C 
ATOM     25  C   UNL     1     -35.420  26.547   4.010  0.00  0.00    -0.000 C 
ENDBRANCH  19  20
BRANCH  19  27
ATOM     26  O   UNL     1     -35.166  22.547   6.860  0.00  0.00    -0.249 OA
ATOM     27  C   UNL     1     -35.266  21.844   5.863  0.00  0.00    +0.326 C 
BRANCH  27  28
ATOM     28  O   UNL     1     -35.644  20.539   5.928  0.00  0.00    -0.480 OA
ATOM     29  H   UNL     1     -35.795  20.055   5.139  0.00  0.00    +0.295 HD
ENDBRANCH  27  28
ENDBRANCH  19  27
ENDBRANCH   3  19
TORSDOF 7
ENDMDL
MODEL 9
REMARK VINA RESULT:      -5.7      3.186      6.297
REMARK  Name = 20824
REMARK  7 active torsions:
REMARK  status: ('A' for Active; 'I' for Inactive)
REMARK    1  A    between atoms: N_2  and  CA_11
REMARK    2  A    between atoms: C_3  and  C_19
REMARK    3  A    between atoms: CA_10  and  C_16
REMARK    4  A    between atoms: C_16  and  O_17
REMARK    5  A    between atoms: C_19  and  C_20
REMARK    6  A    between atoms: C_19  and  C_27
REMARK    7  A    between atoms: C_27  and  O_28
REMARK                            x       y       z     vdW  Elec       q    Type
REMARK                         _______ _______ _______ _____ _____    ______ ____
ROOT
ATOM      1  O   UNL     1     -35.940  23.015   5.454  0.00  0.00    -0.274 OA
ATOM      2  N   UNL     1     -35.123  23.898   3.469  0.00  0.00    -0.296 N 
ATOM      3  C   UNL     1     -35.930  23.046   4.225  0.00  0.00    +0.237 C 
ATOM      4  H   UNL     1     -35.183  23.854   2.488  0.00  0.00    +0.150 HD
ENDROOT
BRANCH   2  11
ATOM      5  S   UNL     1     -33.983  25.845   1.388  0.00  0.00    -0.118 S 
ATOM      6  O   UNL     1     -35.765  26.382   5.382  0.00  0.00    -0.273 OA
ATOM      7  N   UNL     1     -34.145  26.909   3.748  0.00  0.00    -0.260 N 
ATOM      8  C   UNL     1     -33.423  25.793   3.129  0.00  0.00    +0.151 C 
ATOM      9  C   UNL     1     -34.182  27.696   1.467  0.00  0.00    +0.068 C 
ATOM     10  CA  UNL     1     -34.696  27.946   2.901  0.00  0.00    +0.184 C 
ATOM     11  CA  UNL     1     -34.190  24.857   4.074  0.00  0.00    +0.178 C 
ATOM     12  C   UNL     1     -34.864  26.135   4.613  0.00  0.00    +0.247 C 
ATOM     13  C   UNL     1     -32.818  28.330   1.160  0.00  0.00    +0.013 C 
ATOM     14  C   UNL     1     -35.209  28.131   0.422  0.00  0.00    +0.013 C 
BRANCH  10  16
ATOM     15  OXT UNL     1     -33.252  29.480   4.080  0.00  0.00    -0.248 OA
ATOM     16  C   UNL     1     -34.305  29.259   3.500  0.00  0.00    +0.333 C 
BRANCH  16  17
ATOM     17  O   UNL     1     -35.282  30.180   3.315  0.00  0.00    -0.479 OA
ATOM     18  H   UNL     1     -36.175  29.906   3.233  0.00  0.00    +0.295 HD
ENDBRANCH  16  17
ENDBRANCH  10  16
ENDBRANCH   2  11
BRANCH   3  19
ATOM     19  C   UNL     1     -36.821  22.144   3.372  0.00  0.00    +0.197 C 
BRANCH  19  20
ATOM     20  C   UNL     1     -37.685  22.980   2.442  0.00  0.00    -0.003 C 
ATOM     21  C   UNL     1     -38.481  23.972   2.981  0.00  0.00    -0.003 C 
ATOM     22  C   UNL     1     -37.649  22.724   1.086  0.00  0.00    -0.003 C 
ATOM     23  C   UNL     1     -39.274  24.740   2.127  0.00  0.00    -0.000 C 
ATOM     24  C   UNL     1     -38.443  23.491   0.232  0.00  0.00    -0.000 C 
ATOM     25  C   UNL     1     -39.256  24.499   0.753  0.00  0.00    -0.000 C 
ENDBRANCH  19  20
BRANCH  19  27
ATOM     26  O   UNL     1     -34.943  21.224   2.103  0.00  0.00    -0.249 OA
ATOM     27  C   UNL     1     -36.041  21.072   2.624  0.00  0.00    +0.326 C 
BRANCH  27  28
ATOM     28  O   UNL     1     -36.687  19.875   2.625  0.00  0.00    -0.480 OA
ATOM     29  H   UNL     1     -37.068  19.548   1.833  0.00  0.00    +0.295 HD
ENDBRANCH  27  28
ENDBRANCH  19  27
ENDBRANCH   3  19
TORSDOF 7
ENDMDL
