MODEL 1
REMARK VINA RESULT:      -6.8      0.000      0.000
REMARK  Name = 54683155
REMARK  8 active torsions:
REMARK  status: ('A' for Active; 'I' for Inactive)
REMARK    1  A    between atoms: C_4  and  C_13
REMARK    2  A    between atoms: C_4  and  O_26
REMARK    3  A    between atoms: C_7  and  C_28
REMARK    4  A    between atoms: C_17  and  C_22
REMARK    5  A    between atoms: C_28  and  C_29
REMARK    6  A    between atoms: C_29  and  O_31
REMARK    7  A    between atoms: C_29  and  C_34
REMARK    8  A    between atoms: C_34  and  O_35
REMARK                            x       y       z     vdW  Elec       q    Type
REMARK                         _______ _______ _______ _____ _____    ______ ____
ROOT
ATOM      1  O   UNL     1     -35.199  20.571   3.121  0.00  0.00    -0.289 OA
ATOM      2  O   UNL     1     -37.061  22.962  -0.487  0.00  0.00    -0.270 OA
ATOM      3  N   UNL     1     -37.179  23.142   1.859  0.00  0.00    -0.296 N 
ATOM      4  C   UNL     1     -35.284  20.655   0.158  0.00  0.00    +0.118 C 
ATOM      5  C   UNL     1     -35.908  21.473   1.014  0.00  0.00    +0.119 C 
ATOM      6  C   UNL     1     -35.839  21.394   2.489  0.00  0.00    +0.198 C 
ATOM      7  C   UNL     1     -36.689  22.499   3.077  0.00  0.00    +0.137 C 
ATOM      8  C   UNL     1     -36.775  22.603   0.640  0.00  0.00    +0.252 C 
ATOM      9  H   UNL     1     -37.773  23.926   1.899  0.00  0.00    +0.150 HD
ENDROOT
BRANCH   4  13
ATOM     10  C   UNL     1     -34.581  18.179  -0.200  0.00  0.00    +0.012 C 
ATOM     11  C   UNL     1     -33.685  17.095   0.486  0.00  0.00    +0.022 C 
ATOM     12  C   UNL     1     -36.023  17.588  -0.326  0.00  0.00    +0.001 C 
ATOM     13  C   UNL     1     -34.409  19.516   0.587  0.00  0.00    +0.065 C 
ATOM     14  C   UNL     1     -33.622  15.826  -0.372  0.00  0.00    +0.004 C 
ATOM     15  C   UNL     1     -35.020  15.232  -0.559  0.00  0.00    +0.000 C 
ATOM     16  C   UNL     1     -35.983  16.272  -1.138  0.00  0.00    +0.000 C 
ATOM     17  C   UNL     1     -32.915  19.983   0.573  0.00  0.00    +0.047 C 
ATOM     18  C   UNL     1     -32.302  17.571   0.838  0.00  0.00    -0.031 C 
ATOM     19  C   UNL     1     -37.053  18.503  -0.992  0.00  0.00    +0.000 C 
ATOM     20  C   UNL     1     -31.960  18.864   0.880  0.00  0.00    -0.027 C 
ATOM     21  C   UNL     1     -34.965  13.991  -1.449  0.00  0.00    +0.000 C 
BRANCH  17  22
ATOM     22  C   UNL     1     -32.498  20.640  -0.717  0.00  0.00    -0.044 C 
ATOM     23  C   UNL     1     -32.249  22.122  -0.603  0.00  0.00    +0.026 C 
ATOM     24  C   UNL     1     -32.345  20.014  -1.900  0.00  0.00    -0.034 C 
ATOM     25  C   UNL     1     -31.936  20.600  -3.212  0.00  0.00    +0.030 C 
ENDBRANCH  17  22
ENDBRANCH   4  13
BRANCH   4  26
ATOM     26  O   UNL     1     -35.428  20.836  -1.203  0.00  0.00    -0.510 OA
ATOM     27  H   UNL     1     -35.927  21.559  -1.530  0.00  0.00    +0.292 HD
ENDBRANCH   4  26
BRANCH   7  28
ATOM     28  C   UNL     1     -35.874  23.447   3.930  0.00  0.00    +0.065 C 
BRANCH  28  29
ATOM     29  C   UNL     1     -36.458  24.871   4.044  0.00  0.00    +0.179 C 
ATOM     30  C   UNL     1     -36.243  25.716   2.788  0.00  0.00    +0.041 C 
BRANCH  29  31
ATOM     31  O   UNL     1     -37.865  24.747   4.261  0.00  0.00    -0.376 OA
ATOM     32  H   UNL     1     -38.055  24.832   5.208  0.00  0.00    +0.211 HD
ENDBRANCH  29  31
BRANCH  29  34
ATOM     33  O   UNL     1     -34.899  25.227   5.883  0.00  0.00    -0.248 OA
ATOM     34  C   UNL     1     -35.906  25.578   5.279  0.00  0.00    +0.338 C 
BRANCH  34  35
ATOM     35  O   UNL     1     -36.641  26.655   5.657  0.00  0.00    -0.479 OA
ATOM     36  H   UNL     1     -37.553  26.555   5.849  0.00  0.00    +0.295 HD
ENDBRANCH  34  35
ENDBRANCH  29  34
ENDBRANCH  28  29
ENDBRANCH   7  28
TORSDOF 8
ENDMDL
MODEL 2
REMARK VINA RESULT:      -6.6      3.785      6.113
REMARK  Name = 54683155
REMARK  8 active torsions:
REMARK  status: ('A' for Active; 'I' for Inactive)
REMARK    1  A    between atoms: C_4  and  C_13
REMARK    2  A    between atoms: C_4  and  O_26
REMARK    3  A    between atoms: C_7  and  C_28
REMARK    4  A    between atoms: C_17  and  C_22
REMARK    5  A    between atoms: C_28  and  C_29
REMARK    6  A    between atoms: C_29  and  O_31
REMARK    7  A    between atoms: C_29  and  C_34
REMARK    8  A    between atoms: C_34  and  O_35
REMARK                            x       y       z     vdW  Elec       q    Type
REMARK                         _______ _______ _______ _____ _____    ______ ____
ROOT
ATOM      1  O   UNL     1     -39.697  23.956   3.479  0.00  0.00    -0.289 OA
ATOM      2  O   UNL     1     -38.411  27.228   0.341  0.00  0.00    -0.270 OA
ATOM      3  N   UNL     1     -40.428  26.669   1.421  0.00  0.00    -0.296 N 
ATOM      4  C   UNL     1     -37.359  24.945   1.946  0.00  0.00    +0.118 C 
ATOM      5  C   UNL     1     -38.610  25.421   1.920  0.00  0.00    +0.119 C 
ATOM      6  C   UNL     1     -39.749  24.895   2.701  0.00  0.00    +0.198 C 
ATOM      7  C   UNL     1     -40.981  25.712   2.378  0.00  0.00    +0.137 C 
ATOM      8  C   UNL     1     -39.076  26.557   1.108  0.00  0.00    +0.252 C 
ATOM      9  H   UNL     1     -40.992  27.365   1.013  0.00  0.00    +0.150 HD
ENDROOT
BRANCH   4  13
ATOM     10  C   UNL     1     -36.097  22.676   2.072  0.00  0.00    +0.012 C 
ATOM     11  C   UNL     1     -35.873  21.506   3.085  0.00  0.00    +0.022 C 
ATOM     12  C   UNL     1     -36.685  22.059   0.762  0.00  0.00    +0.001 C 
ATOM     13  C   UNL     1     -36.930  23.784   2.792  0.00  0.00    +0.065 C 
ATOM     14  C   UNL     1     -34.865  20.494   2.525  0.00  0.00    +0.004 C 
ATOM     15  C   UNL     1     -35.379  19.892   1.215  0.00  0.00    +0.000 C 
ATOM     16  C   UNL     1     -35.716  20.989   0.203  0.00  0.00    +0.000 C 
ATOM     17  C   UNL     1     -36.174  24.319   4.053  0.00  0.00    +0.047 C 
ATOM     18  C   UNL     1     -35.469  21.952   4.464  0.00  0.00    -0.031 C 
ATOM     19  C   UNL     1     -36.964  23.055  -0.367  0.00  0.00    +0.000 C 
ATOM     20  C   UNL     1     -35.608  23.211   4.897  0.00  0.00    -0.027 C 
ATOM     21  C   UNL     1     -34.358  18.915   0.634  0.00  0.00    +0.000 C 
BRANCH  17  22
ATOM     22  C   UNL     1     -35.074  25.297   3.731  0.00  0.00    -0.044 C 
ATOM     23  C   UNL     1     -35.310  26.688   4.258  0.00  0.00    +0.026 C 
ATOM     24  C   UNL     1     -33.956  25.014   3.036  0.00  0.00    -0.034 C 
ATOM     25  C   UNL     1     -32.829  25.929   2.681  0.00  0.00    +0.030 C 
ENDBRANCH  17  22
ENDBRANCH   4  13
BRANCH   4  26
ATOM     26  O   UNL     1     -36.380  25.528   1.166  0.00  0.00    -0.510 OA
ATOM     27  H   UNL     1     -35.735  24.993   0.746  0.00  0.00    +0.292 HD
ENDBRANCH   4  26
BRANCH   7  28
ATOM     28  C   UNL     1     -41.543  26.398   3.605  0.00  0.00    +0.065 C 
BRANCH  28  29
ATOM     29  C   UNL     1     -42.907  27.087   3.387  0.00  0.00    +0.179 C 
ATOM     30  C   UNL     1     -43.532  26.776   2.027  0.00  0.00    +0.041 C 
BRANCH  29  31
ATOM     31  O   UNL     1     -43.796  26.618   4.403  0.00  0.00    -0.376 OA
ATOM     32  H   UNL     1     -44.631  26.336   3.997  0.00  0.00    +0.211 HD
ENDBRANCH  29  31
BRANCH  29  34
ATOM     33  O   UNL     1     -43.327  29.436   2.897  0.00  0.00    -0.248 OA
ATOM     34  C   UNL     1     -42.785  28.593   3.601  0.00  0.00    +0.338 C 
BRANCH  34  35
ATOM     35  O   UNL     1     -42.011  28.925   4.666  0.00  0.00    -0.479 OA
ATOM     36  H   UNL     1     -41.969  29.816   4.954  0.00  0.00    +0.295 HD
ENDBRANCH  34  35
ENDBRANCH  29  34
ENDBRANCH  28  29
ENDBRANCH   7  28
TORSDOF 8
ENDMDL
MODEL 3
REMARK VINA RESULT:      -6.6     12.975     16.245
REMARK  Name = 54683155
REMARK  8 active torsions:
REMARK  status: ('A' for Active; 'I' for Inactive)
REMARK    1  A    between atoms: C_4  and  C_13
REMARK    2  A    between atoms: C_4  and  O_26
REMARK    3  A    between atoms: C_7  and  C_28
REMARK    4  A    between atoms: C_17  and  C_22
REMARK    5  A    between atoms: C_28  and  C_29
REMARK    6  A    between atoms: C_29  and  O_31
REMARK    7  A    between atoms: C_29  and  C_34
REMARK    8  A    between atoms: C_34  and  O_35
REMARK                            x       y       z     vdW  Elec       q    Type
REMARK                         _______ _______ _______ _____ _____    ______ ____
ROOT
ATOM      1  O   UNL     1     -43.217  33.742   3.946  0.00  0.00    -0.289 OA
ATOM      2  O   UNL     1     -45.422  31.522   0.422  0.00  0.00    -0.270 OA
ATOM      3  N   UNL     1     -43.972  33.373   0.566  0.00  0.00    -0.296 N 
ATOM      4  C   UNL     1     -45.043  31.475   3.380  0.00  0.00    +0.118 C 
ATOM      5  C   UNL     1     -44.509  32.329   2.499  0.00  0.00    +0.119 C 
ATOM      6  C   UNL     1     -43.603  33.450   2.826  0.00  0.00    +0.198 C 
ATOM      7  C   UNL     1     -43.234  34.168   1.546  0.00  0.00    +0.137 C 
ATOM      8  C   UNL     1     -44.728  32.306   1.043  0.00  0.00    +0.252 C 
ATOM      9  H   UNL     1     -43.936  33.585  -0.394  0.00  0.00    +0.150 HD
ENDROOT
BRANCH   4  13
ATOM     10  C   UNL     1     -46.050  31.487   5.776  0.00  0.00    +0.012 C 
ATOM     11  C   UNL     1     -45.580  31.702   7.252  0.00  0.00    +0.022 C 
ATOM     12  C   UNL     1     -47.199  32.510   5.494  0.00  0.00    +0.001 C 
ATOM     13  C   UNL     1     -44.789  31.538   4.856  0.00  0.00    +0.065 C 
ATOM     14  C   UNL     1     -46.730  31.429   8.229  0.00  0.00    +0.004 C 
ATOM     15  C   UNL     1     -47.899  32.380   7.964  0.00  0.00    +0.000 C 
ATOM     16  C   UNL     1     -48.352  32.298   6.504  0.00  0.00    +0.000 C 
ATOM     17  C   UNL     1     -43.767  30.420   5.250  0.00  0.00    +0.047 C 
ATOM     18  C   UNL     1     -44.359  30.910   7.632  0.00  0.00    -0.031 C 
ATOM     19  C   UNL     1     -47.806  32.446   4.090  0.00  0.00    +0.000 C 
ATOM     20  C   UNL     1     -43.546  30.340   6.735  0.00  0.00    -0.027 C 
ATOM     21  C   UNL     1     -49.062  32.082   8.909  0.00  0.00    +0.000 C 
BRANCH  17  22
ATOM     22  C   UNL     1     -44.138  29.052   4.737  0.00  0.00    -0.044 C 
ATOM     23  C   UNL     1     -43.308  28.584   3.570  0.00  0.00    +0.026 C 
ATOM     24  C   UNL     1     -45.114  28.269   5.235  0.00  0.00    -0.034 C 
ATOM     25  C   UNL     1     -45.534  26.910   4.779  0.00  0.00    +0.030 C 
ENDBRANCH  17  22
ENDBRANCH   4  13
BRANCH   4  26
ATOM     26  O   UNL     1     -45.878  30.464   2.946  0.00  0.00    -0.510 OA
ATOM     27  H   UNL     1     -45.585  29.574   2.962  0.00  0.00    +0.292 HD
ENDBRANCH   4  26
BRANCH   7  28
ATOM     28  C   UNL     1     -41.742  34.141   1.290  0.00  0.00    +0.065 C 
BRANCH  28  29
ATOM     29  C   UNL     1     -41.050  35.517   1.379  0.00  0.00    +0.179 C 
ATOM     30  C   UNL     1     -39.952  35.711   0.334  0.00  0.00    +0.041 C 
BRANCH  29  31
ATOM     31  O   UNL     1     -42.048  36.518   1.166  0.00  0.00    -0.376 OA
ATOM     32  H   UNL     1     -42.029  36.803   0.239  0.00  0.00    +0.211 HD
ENDBRANCH  29  31
BRANCH  29  34
ATOM     33  O   UNL     1     -39.344  35.594   3.117  0.00  0.00    -0.248 OA
ATOM     34  C   UNL     1     -40.513  35.756   2.787  0.00  0.00    +0.338 C 
BRANCH  34  35
ATOM     35  O   UNL     1     -41.463  36.175   3.662  0.00  0.00    -0.479 OA
ATOM     36  H   UNL     1     -41.834  37.031   3.575  0.00  0.00    +0.295 HD
ENDBRANCH  34  35
ENDBRANCH  29  34
ENDBRANCH  28  29
ENDBRANCH   7  28
TORSDOF 8
ENDMDL
MODEL 4
REMARK VINA RESULT:      -6.5      3.365      6.219
REMARK  Name = 54683155
REMARK  8 active torsions:
REMARK  status: ('A' for Active; 'I' for Inactive)
REMARK    1  A    between atoms: C_4  and  C_13
REMARK    2  A    between atoms: C_4  and  O_26
REMARK    3  A    between atoms: C_7  and  C_28
REMARK    4  A    between atoms: C_17  and  C_22
REMARK    5  A    between atoms: C_28  and  C_29
REMARK    6  A    between atoms: C_29  and  O_31
REMARK    7  A    between atoms: C_29  and  C_34
REMARK    8  A    between atoms: C_34  and  O_35
REMARK                            x       y       z     vdW  Elec       q    Type
REMARK                         _______ _______ _______ _____ _____    ______ ____
ROOT
ATOM      1  O   UNL     1     -32.664  25.681   3.019  0.00  0.00    -0.289 OA
ATOM      2  O   UNL     1     -36.313  25.715   6.000  0.00  0.00    -0.270 OA
ATOM      3  N   UNL     1     -34.141  26.624   6.028  0.00  0.00    -0.296 N 
ATOM      4  C   UNL     1     -35.445  24.701   3.333  0.00  0.00    +0.118 C 
ATOM      5  C   UNL     1     -34.738  25.436   4.200  0.00  0.00    +0.119 C 
ATOM      6  C   UNL     1     -33.349  25.902   4.004  0.00  0.00    +0.198 C 
ATOM      7  C   UNL     1     -32.925  26.696   5.220  0.00  0.00    +0.137 C 
ATOM      8  C   UNL     1     -35.218  25.914   5.507  0.00  0.00    +0.252 C 
ATOM      9  H   UNL     1     -34.194  27.062   6.908  0.00  0.00    +0.150 HD
ENDROOT
BRANCH   4  13
ATOM     10  C   UNL     1     -35.248  22.766   1.608  0.00  0.00    +0.012 C 
ATOM     11  C   UNL     1     -34.493  22.446   0.276  0.00  0.00    +0.022 C 
ATOM     12  C   UNL     1     -34.901  21.635   2.630  0.00  0.00    +0.001 C 
ATOM     13  C   UNL     1     -34.912  24.237   2.010  0.00  0.00    +0.065 C 
ATOM     14  C   UNL     1     -34.963  21.104  -0.299  0.00  0.00    +0.004 C 
ATOM     15  C   UNL     1     -34.683  19.967   0.687  0.00  0.00    +0.000 C 
ATOM     16  C   UNL     1     -35.310  20.259   2.052  0.00  0.00    +0.000 C 
ATOM     17  C   UNL     1     -35.367  25.237   0.895  0.00  0.00    +0.047 C 
ATOM     18  C   UNL     1     -34.584  23.531  -0.761  0.00  0.00    -0.031 C 
ATOM     19  C   UNL     1     -35.562  21.766   4.005  0.00  0.00    +0.000 C 
ATOM     20  C   UNL     1     -34.971  24.781  -0.482  0.00  0.00    -0.027 C 
ATOM     21  C   UNL     1     -35.188  18.636   0.133  0.00  0.00    +0.000 C 
BRANCH  17  22
ATOM     22  C   UNL     1     -36.845  25.527   0.907  0.00  0.00    -0.044 C 
ATOM     23  C   UNL     1     -37.201  26.905   1.401  0.00  0.00    +0.026 C 
ATOM     24  C   UNL     1     -37.812  24.672   0.523  0.00  0.00    -0.034 C 
ATOM     25  C   UNL     1     -39.291  24.890   0.508  0.00  0.00    +0.030 C 
ENDBRANCH  17  22
ENDBRANCH   4  13
BRANCH   4  26
ATOM     26  O   UNL     1     -36.740  24.328   3.635  0.00  0.00    -0.510 OA
ATOM     27  H   UNL     1     -37.071  23.502   3.342  0.00  0.00    +0.292 HD
ENDBRANCH   4  26
BRANCH   7  28
ATOM     28  C   UNL     1     -32.562  28.123   4.866  0.00  0.00    +0.065 C 
BRANCH  28  29
ATOM     29  C   UNL     1     -31.738  28.861   5.941  0.00  0.00    +0.179 C 
ATOM     30  C   UNL     1     -31.898  30.380   5.892  0.00  0.00    +0.041 C 
BRANCH  29  31
ATOM     31  O   UNL     1     -32.188  28.408   7.220  0.00  0.00    -0.376 OA
ATOM     32  H   UNL     1     -32.343  27.450   7.188  0.00  0.00    +0.211 HD
ENDBRANCH  29  31
BRANCH  29  34
ATOM     33  O   UNL     1     -29.468  28.948   5.059  0.00  0.00    -0.248 OA
ATOM     34  C   UNL     1     -30.267  28.464   5.852  0.00  0.00    +0.338 C 
BRANCH  34  35
ATOM     35  O   UNL     1     -29.910  27.511   6.750  0.00  0.00    -0.479 OA
ATOM     36  H   UNL     1     -30.329  26.672   6.734  0.00  0.00    +0.295 HD
ENDBRANCH  34  35
ENDBRANCH  29  34
ENDBRANCH  28  29
ENDBRANCH   7  28
TORSDOF 8
ENDMDL
MODEL 5
REMARK VINA RESULT:      -6.4      9.382     14.820
REMARK  Name = 54683155
REMARK  8 active torsions:
REMARK  status: ('A' for Active; 'I' for Inactive)
REMARK    1  A    between atoms: C_4  and  C_13
REMARK    2  A    between atoms: C_4  and  O_26
REMARK    3  A    between atoms: C_7  and  C_28
REMARK    4  A    between atoms: C_17  and  C_22
REMARK    5  A    between atoms: C_28  and  C_29
REMARK    6  A    between atoms: C_29  and  O_31
REMARK    7  A    between atoms: C_29  and  C_34
REMARK    8  A    between atoms: C_34  and  O_35
REMARK                            x       y       z     vdW  Elec       q    Type
REMARK                         _______ _______ _______ _____ _____    ______ ____
ROOT
ATOM      1  O   UNL     1     -42.283  28.832   4.628  0.00  0.00    -0.289 OA
ATOM      2  O   UNL     1     -45.313  26.836   1.622  0.00  0.00    -0.270 OA
ATOM      3  N   UNL     1     -42.968  26.856   1.844  0.00  0.00    -0.296 N 
ATOM      4  C   UNL     1     -45.178  28.576   4.040  0.00  0.00    +0.118 C 
ATOM      5  C   UNL     1     -44.159  28.030   3.366  0.00  0.00    +0.119 C 
ATOM      6  C   UNL     1     -42.726  28.186   3.693  0.00  0.00    +0.198 C 
ATOM      7  C   UNL     1     -41.908  27.413   2.682  0.00  0.00    +0.137 C 
ATOM      8  C   UNL     1     -44.282  27.173   2.175  0.00  0.00    +0.252 C 
ATOM      9  H   UNL     1     -42.759  26.279   1.074  0.00  0.00    +0.150 HD
ENDROOT
BRANCH   4  13
ATOM     10  C   UNL     1     -45.927  30.699   5.340  0.00  0.00    +0.012 C 
ATOM     11  C   UNL     1     -45.492  31.530   6.592  0.00  0.00    +0.022 C 
ATOM     12  C   UNL     1     -45.954  31.671   4.116  0.00  0.00    +0.001 C 
ATOM     13  C   UNL     1     -45.002  29.443   5.250  0.00  0.00    +0.065 C 
ATOM     14  C   UNL     1     -46.506  32.646   6.875  0.00  0.00    +0.004 C 
ATOM     15  C   UNL     1     -46.600  33.602   5.685  0.00  0.00    +0.000 C 
ATOM     16  C   UNL     1     -46.926  32.843   4.396  0.00  0.00    +0.000 C 
ATOM     17  C   UNL     1     -45.134  28.562   6.537  0.00  0.00    +0.047 C 
ATOM     18  C   UNL     1     -45.250  30.704   7.826  0.00  0.00    -0.031 C 
ATOM     19  C   UNL     1     -46.373  31.041   2.784  0.00  0.00    +0.000 C 
ATOM     20  C   UNL     1     -45.086  29.377   7.799  0.00  0.00    -0.027 C 
ATOM     21  C   UNL     1     -47.639  34.691   5.948  0.00  0.00    +0.000 C 
BRANCH  17  22
ATOM     22  C   UNL     1     -46.371  27.702   6.558  0.00  0.00    -0.044 C 
ATOM     23  C   UNL     1     -46.116  26.246   6.268  0.00  0.00    +0.026 C 
ATOM     24  C   UNL     1     -47.621  28.137   6.807  0.00  0.00    -0.034 C 
ATOM     25  C   UNL     1     -48.888  27.344   6.845  0.00  0.00    +0.030 C 
ENDBRANCH  17  22
ENDBRANCH   4  13
BRANCH   4  26
ATOM     26  O   UNL     1     -46.478  28.353   3.631  0.00  0.00    -0.510 OA
ATOM     27  H   UNL     1     -46.748  27.493   3.374  0.00  0.00    +0.292 HD
ENDBRANCH   4  26
BRANCH   7  28
ATOM     28  C   UNL     1     -41.075  26.330   3.337  0.00  0.00    +0.065 C 
BRANCH  28  29
ATOM     29  C   UNL     1     -39.996  25.711   2.424  0.00  0.00    +0.179 C 
ATOM     30  C   UNL     1     -40.433  24.400   1.772  0.00  0.00    +0.041 C 
BRANCH  29  31
ATOM     31  O   UNL     1     -39.713  26.652   1.386  0.00  0.00    -0.376 OA
ATOM     32  H   UNL     1     -40.545  27.020   1.048  0.00  0.00    +0.211 HD
ENDBRANCH  29  31
BRANCH  29  34
ATOM     33  O   UNL     1     -38.371  24.506   3.782  0.00  0.00    -0.248 OA
ATOM     34  C   UNL     1     -38.688  25.531   3.191  0.00  0.00    +0.338 C 
BRANCH  34  35
ATOM     35  O   UNL     1     -37.888  26.627   3.156  0.00  0.00    -0.479 OA
ATOM     36  H   UNL     1     -37.089  26.608   2.666  0.00  0.00    +0.295 HD
ENDBRANCH  34  35
ENDBRANCH  29  34
ENDBRANCH  28  29
ENDBRANCH   7  28
TORSDOF 8
ENDMDL
MODEL 6
REMARK VINA RESULT:      -6.3      1.936      2.902
REMARK  Name = 54683155
REMARK  8 active torsions:
REMARK  status: ('A' for Active; 'I' for Inactive)
REMARK    1  A    between atoms: C_4  and  C_13
REMARK    2  A    between atoms: C_4  and  O_26
REMARK    3  A    between atoms: C_7  and  C_28
REMARK    4  A    between atoms: C_17  and  C_22
REMARK    5  A    between atoms: C_28  and  C_29
REMARK    6  A    between atoms: C_29  and  O_31
REMARK    7  A    between atoms: C_29  and  C_34
REMARK    8  A    between atoms: C_34  and  O_35
REMARK                            x       y       z     vdW  Elec       q    Type
REMARK                         _______ _______ _______ _____ _____    ______ ____
ROOT
ATOM      1  O   UNL     1     -36.209  19.879   2.323  0.00  0.00    -0.289 OA
ATOM      2  O   UNL     1     -36.824  22.997  -1.156  0.00  0.00    -0.270 OA
ATOM      3  N   UNL     1     -36.670  23.139   1.190  0.00  0.00    -0.296 N 
ATOM      4  C   UNL     1     -36.445  20.087  -0.626  0.00  0.00    +0.118 C 
ATOM      5  C   UNL     1     -36.498  21.082   0.267  0.00  0.00    +0.119 C 
ATOM      6  C   UNL     1     -36.378  20.933   1.733  0.00  0.00    +0.198 C 
ATOM      7  C   UNL     1     -36.496  22.299   2.373  0.00  0.00    +0.137 C 
ATOM      8  C   UNL     1     -36.685  22.508  -0.050  0.00  0.00    +0.252 C 
ATOM      9  H   UNL     1     -36.772  24.115   1.268  0.00  0.00    +0.150 HD
ENDROOT
BRANCH   4  13
ATOM     10  C   UNL     1     -37.197  17.620  -0.953  0.00  0.00    +0.012 C 
ATOM     11  C   UNL     1     -36.925  16.211  -0.330  0.00  0.00    +0.022 C 
ATOM     12  C   UNL     1     -38.737  17.880  -0.877  0.00  0.00    +0.001 C 
ATOM     13  C   UNL     1     -36.251  18.647  -0.254  0.00  0.00    +0.065 C 
ATOM     14  C   UNL     1     -37.646  15.120  -1.132  0.00  0.00    +0.004 C 
ATOM     15  C   UNL     1     -39.159  15.356  -1.122  0.00  0.00    +0.000 C 
ATOM     16  C   UNL     1     -39.497  16.761  -1.628  0.00  0.00    +0.000 C 
ATOM     17  C   UNL     1     -34.751  18.259  -0.469  0.00  0.00    +0.047 C 
ATOM     18  C   UNL     1     -35.467  15.879  -0.170  0.00  0.00    -0.031 C 
ATOM     19  C   UNL     1     -39.208  19.217  -1.455  0.00  0.00    +0.000 C 
ATOM     20  C   UNL     1     -34.495  16.797  -0.229  0.00  0.00    -0.027 C 
ATOM     21  C   UNL     1     -39.876  14.294  -1.954  0.00  0.00    +0.000 C 
BRANCH  17  22
ATOM     22  C   UNL     1     -34.218  18.630  -1.829  0.00  0.00    -0.044 C 
ATOM     23  C   UNL     1     -33.226  19.764  -1.815  0.00  0.00    +0.026 C 
ATOM     24  C   UNL     1     -34.558  18.039  -2.990  0.00  0.00    -0.034 C 
ATOM     25  C   UNL     1     -34.072  18.354  -4.367  0.00  0.00    +0.030 C 
ENDBRANCH  17  22
ENDBRANCH   4  13
BRANCH   4  26
ATOM     26  O   UNL     1     -36.570  20.358  -1.974  0.00  0.00    -0.510 OA
ATOM     27  H   UNL     1     -35.921  20.051  -2.576  0.00  0.00    +0.292 HD
ENDBRANCH   4  26
BRANCH   7  28
ATOM     28  C   UNL     1     -35.252  22.668   3.154  0.00  0.00    +0.065 C 
BRANCH  28  29
ATOM     29  C   UNL     1     -35.521  23.189   4.581  0.00  0.00    +0.179 C 
ATOM     30  C   UNL     1     -34.515  24.243   5.041  0.00  0.00    +0.041 C 
BRANCH  29  31
ATOM     31  O   UNL     1     -36.822  23.781   4.589  0.00  0.00    -0.376 OA
ATOM     32  H   UNL     1     -37.022  24.110   5.479  0.00  0.00    +0.211 HD
ENDBRANCH  29  31
BRANCH  29  34
ATOM     33  O   UNL     1     -35.968  22.129   6.729  0.00  0.00    -0.248 OA
ATOM     34  C   UNL     1     -35.585  22.028   5.570  0.00  0.00    +0.338 C 
BRANCH  34  35
ATOM     35  O   UNL     1     -35.176  20.846   5.041  0.00  0.00    -0.479 OA
ATOM     36  H   UNL     1     -34.312  20.766   4.687  0.00  0.00    +0.295 HD
ENDBRANCH  34  35
ENDBRANCH  29  34
ENDBRANCH  28  29
ENDBRANCH   7  28
TORSDOF 8
ENDMDL
MODEL 7
REMARK VINA RESULT:      -6.3      5.142      9.486
REMARK  Name = 54683155
REMARK  8 active torsions:
REMARK  status: ('A' for Active; 'I' for Inactive)
REMARK    1  A    between atoms: C_4  and  C_13
REMARK    2  A    between atoms: C_4  and  O_26
REMARK    3  A    between atoms: C_7  and  C_28
REMARK    4  A    between atoms: C_17  and  C_22
REMARK    5  A    between atoms: C_28  and  C_29
REMARK    6  A    between atoms: C_29  and  O_31
REMARK    7  A    between atoms: C_29  and  C_34
REMARK    8  A    between atoms: C_34  and  O_35
REMARK                            x       y       z     vdW  Elec       q    Type
REMARK                         _______ _______ _______ _____ _____    ______ ____
ROOT
ATOM      1  O   UNL     1     -35.539  25.923   2.861  0.00  0.00    -0.289 OA
ATOM      2  O   UNL     1     -32.453  28.266   5.542  0.00  0.00    -0.270 OA
ATOM      3  N   UNL     1     -33.806  26.363   5.849  0.00  0.00    -0.296 N 
ATOM      4  C   UNL     1     -33.710  28.257   2.838  0.00  0.00    +0.118 C 
ATOM      5  C   UNL     1     -33.923  27.399   3.843  0.00  0.00    +0.119 C 
ATOM      6  C   UNL     1     -34.848  26.247   3.813  0.00  0.00    +0.198 C 
ATOM      7  C   UNL     1     -34.791  25.541   5.150  0.00  0.00    +0.137 C 
ATOM      8  C   UNL     1     -33.270  27.448   5.162  0.00  0.00    +0.252 C 
ATOM      9  H   UNL     1     -33.533  26.157   6.773  0.00  0.00    +0.150 HD
ENDROOT
BRANCH   4  13
ATOM     10  C   UNL     1     -34.940  29.507   0.919  0.00  0.00    +0.012 C 
ATOM     11  C   UNL     1     -35.733  29.173  -0.387  0.00  0.00    +0.022 C 
ATOM     12  C   UNL     1     -35.869  30.379   1.825  0.00  0.00    +0.001 C 
ATOM     13  C   UNL     1     -34.399  28.166   1.509  0.00  0.00    +0.065 C 
ATOM     14  C   UNL     1     -36.089  30.460  -1.144  0.00  0.00    +0.004 C 
ATOM     15  C   UNL     1     -36.966  31.368  -0.279  0.00  0.00    +0.000 C 
ATOM     16  C   UNL     1     -36.294  31.658   1.066  0.00  0.00    +0.000 C 
ATOM     17  C   UNL     1     -33.453  27.450   0.489  0.00  0.00    +0.047 C 
ATOM     18  C   UNL     1     -35.042  28.194  -1.296  0.00  0.00    -0.031 C 
ATOM     19  C   UNL     1     -35.260  30.822   3.158  0.00  0.00    +0.000 C 
ATOM     20  C   UNL     1     -34.024  27.421  -0.901  0.00  0.00    -0.027 C 
ATOM     21  C   UNL     1     -37.287  32.668  -1.015  0.00  0.00    +0.000 C 
BRANCH  17  22
ATOM     22  C   UNL     1     -32.066  28.034   0.435  0.00  0.00    -0.044 C 
ATOM     23  C   UNL     1     -31.000  27.151   1.028  0.00  0.00    +0.026 C 
ATOM     24  C   UNL     1     -31.743  29.235  -0.084  0.00  0.00    -0.034 C 
ATOM     25  C   UNL     1     -30.396  29.875  -0.171  0.00  0.00    +0.030 C 
ENDBRANCH  17  22
ENDBRANCH   4  13
BRANCH   4  26
ATOM     26  O   UNL     1     -32.815  29.297   2.992  0.00  0.00    -0.510 OA
ATOM     27  H   UNL     1     -31.912  29.117   3.167  0.00  0.00    +0.292 HD
ENDBRANCH   4  26
BRANCH   7  28
ATOM     28  C   UNL     1     -34.335  24.104   5.012  0.00  0.00    +0.065 C 
BRANCH  28  29
ATOM     29  C   UNL     1     -35.475  23.064   5.035  0.00  0.00    +0.179 C 
ATOM     30  C   UNL     1     -35.491  22.209   6.302  0.00  0.00    +0.041 C 
BRANCH  29  31
ATOM     31  O   UNL     1     -36.712  23.775   4.962  0.00  0.00    -0.376 OA
ATOM     32  H   UNL     1     -36.714  24.489   5.619  0.00  0.00    +0.211 HD
ENDBRANCH  29  31
BRANCH  29  34
ATOM     33  O   UNL     1     -35.265  22.615   2.649  0.00  0.00    -0.248 OA
ATOM     34  C   UNL     1     -35.423  22.188   3.786  0.00  0.00    +0.338 C 
BRANCH  34  35
ATOM     35  O   UNL     1     -35.568  20.864   4.050  0.00  0.00    -0.479 OA
ATOM     36  H   UNL     1     -35.715  20.260   3.349  0.00  0.00    +0.295 HD
ENDBRANCH  34  35
ENDBRANCH  29  34
ENDBRANCH  28  29
ENDBRANCH   7  28
TORSDOF 8
ENDMDL
MODEL 8
REMARK VINA RESULT:      -6.2      3.302      6.621
REMARK  Name = 54683155
REMARK  8 active torsions:
REMARK  status: ('A' for Active; 'I' for Inactive)
REMARK    1  A    between atoms: C_4  and  C_13
REMARK    2  A    between atoms: C_4  and  O_26
REMARK    3  A    between atoms: C_7  and  C_28
REMARK    4  A    between atoms: C_17  and  C_22
REMARK    5  A    between atoms: C_28  and  C_29
REMARK    6  A    between atoms: C_29  and  O_31
REMARK    7  A    between atoms: C_29  and  C_34
REMARK    8  A    between atoms: C_34  and  O_35
REMARK                            x       y       z     vdW  Elec       q    Type
REMARK                         _______ _______ _______ _____ _____    ______ ____
ROOT
ATOM      1  O   UNL     1     -34.123  25.768   1.859  0.00  0.00    -0.289 OA
ATOM      2  O   UNL     1     -36.073  25.603   6.146  0.00  0.00    -0.270 OA
ATOM      3  N   UNL     1     -34.157  26.625   5.234  0.00  0.00    -0.296 N 
ATOM      4  C   UNL     1     -36.429  24.642   3.345  0.00  0.00    +0.118 C 
ATOM      5  C   UNL     1     -35.446  25.411   3.828  0.00  0.00    +0.119 C 
ATOM      6  C   UNL     1     -34.311  25.950   3.051  0.00  0.00    +0.198 C 
ATOM      7  C   UNL     1     -33.430  26.763   3.974  0.00  0.00    +0.137 C 
ATOM      8  C   UNL     1     -35.319  25.860   5.225  0.00  0.00    +0.252 C 
ATOM      9  H   UNL     1     -33.836  27.058   6.058  0.00  0.00    +0.150 HD
ENDROOT
BRANCH   4  13
ATOM     10  C   UNL     1     -36.674  22.676   1.661  0.00  0.00    +0.012 C 
ATOM     11  C   UNL     1     -36.608  22.430   0.118  0.00  0.00    +0.022 C 
ATOM     12  C   UNL     1     -35.638  21.718   2.336  0.00  0.00    +0.001 C 
ATOM     13  C   UNL     1     -36.516  24.210   1.912  0.00  0.00    +0.065 C 
ATOM     14  C   UNL     1     -36.992  20.983  -0.213  0.00  0.00    +0.004 C 
ATOM     15  C   UNL     1     -36.029  20.003   0.462  0.00  0.00    +0.000 C 
ATOM     16  C   UNL     1     -35.965  20.250   1.971  0.00  0.00    +0.000 C 
ATOM     17  C   UNL     1     -37.659  25.010   1.203  0.00  0.00    +0.047 C 
ATOM     18  C   UNL     1     -37.423  23.397  -0.696  0.00  0.00    -0.031 C 
ATOM     19  C   UNL     1     -35.562  21.802   3.863  0.00  0.00    +0.000 C 
ATOM     20  C   UNL     1     -37.890  24.553  -0.210  0.00  0.00    -0.027 C 
ATOM     21  C   UNL     1     -36.435  18.559   0.168  0.00  0.00    +0.000 C 
BRANCH  17  22
ATOM     22  C   UNL     1     -38.970  24.981   1.946  0.00  0.00    -0.044 C 
ATOM     23  C   UNL     1     -39.669  23.648   1.913  0.00  0.00    +0.026 C 
ATOM     24  C   UNL     1     -39.521  26.022   2.599  0.00  0.00    -0.034 C 
ATOM     25  C   UNL     1     -40.810  26.065   3.353  0.00  0.00    +0.030 C 
ENDBRANCH  17  22
ENDBRANCH   4  13
BRANCH   4  26
ATOM     26  O   UNL     1     -37.437  24.201   4.178  0.00  0.00    -0.510 OA
ATOM     27  H   UNL     1     -37.230  23.691   4.937  0.00  0.00    +0.292 HD
ENDBRANCH   4  26
BRANCH   7  28
ATOM     28  C   UNL     1     -33.328  28.208   3.532  0.00  0.00    +0.065 C 
BRANCH  28  29
ATOM     29  C   UNL     1     -32.273  29.038   4.293  0.00  0.00    +0.179 C 
ATOM     30  C   UNL     1     -32.279  30.519   3.914  0.00  0.00    +0.041 C 
BRANCH  29  31
ATOM     31  O   UNL     1     -32.562  28.934   5.688  0.00  0.00    -0.376 OA
ATOM     32  H   UNL     1     -33.523  28.882   5.816  0.00  0.00    +0.211 HD
ENDBRANCH  29  31
BRANCH  29  34
ATOM     33  O   UNL     1     -30.319  28.315   3.028  0.00  0.00    -0.248 OA
ATOM     34  C   UNL     1     -30.883  28.434   4.109  0.00  0.00    +0.338 C 
BRANCH  34  35
ATOM     35  O   UNL     1     -30.311  28.034   5.274  0.00  0.00    -0.479 OA
ATOM     36  H   UNL     1     -29.661  27.359   5.269  0.00  0.00    +0.295 HD
ENDBRANCH  34  35
ENDBRANCH  29  34
ENDBRANCH  28  29
ENDBRANCH   7  28
TORSDOF 8
ENDMDL
MODEL 9
REMARK VINA RESULT:      -6.1      2.688      5.086
REMARK  Name = 54683155
REMARK  8 active torsions:
REMARK  status: ('A' for Active; 'I' for Inactive)
REMARK    1  A    between atoms: C_4  and  C_13
REMARK    2  A    between atoms: C_4  and  O_26
REMARK    3  A    between atoms: C_7  and  C_28
REMARK    4  A    between atoms: C_17  and  C_22
REMARK    5  A    between atoms: C_28  and  C_29
REMARK    6  A    between atoms: C_29  and  O_31
REMARK    7  A    between atoms: C_29  and  C_34
REMARK    8  A    between atoms: C_34  and  O_35
REMARK                            x       y       z     vdW  Elec       q    Type
REMARK                         _______ _______ _______ _____ _____    ______ ____
ROOT
ATOM      1  O   UNL     1     -33.945  24.875   1.842  0.00  0.00    -0.289 OA
ATOM      2  O   UNL     1     -36.168  22.763   5.420  0.00  0.00    -0.270 OA
ATOM      3  N   UNL     1     -34.627  24.535   5.240  0.00  0.00    -0.296 N 
ATOM      4  C   UNL     1     -35.877  22.709   2.452  0.00  0.00    +0.118 C 
ATOM      5  C   UNL     1     -35.271  23.528   3.320  0.00  0.00    +0.119 C 
ATOM      6  C   UNL     1     -34.310  24.596   2.972  0.00  0.00    +0.198 C 
ATOM      7  C   UNL     1     -33.860  25.281   4.244  0.00  0.00    +0.137 C 
ATOM      8  C   UNL     1     -35.454  23.513   4.781  0.00  0.00    +0.252 C 
ATOM      9  H   UNL     1     -34.562  24.748   6.199  0.00  0.00    +0.150 HD
ENDROOT
BRANCH   4  13
ATOM     10  C   UNL     1     -35.458  21.391   0.251  0.00  0.00    +0.012 C 
ATOM     11  C   UNL     1     -35.115  21.677  -1.248  0.00  0.00    +0.022 C 
ATOM     12  C   UNL     1     -34.359  20.430   0.811  0.00  0.00    +0.001 C 
ATOM     13  C   UNL     1     -35.660  22.763   0.970  0.00  0.00    +0.065 C 
ATOM     14  C   UNL     1     -35.138  20.378  -2.063  0.00  0.00    +0.004 C 
ATOM     15  C   UNL     1     -34.105  19.386  -1.523  0.00  0.00    +0.000 C 
ATOM     16  C   UNL     1     -34.318  19.131  -0.029  0.00  0.00    +0.000 C 
ATOM     17  C   UNL     1     -36.825  23.572   0.309  0.00  0.00    +0.047 C 
ATOM     18  C   UNL     1     -35.982  22.725  -1.890  0.00  0.00    -0.031 C 
ATOM     19  C   UNL     1     -34.530  20.019   2.277  0.00  0.00    +0.000 C 
ATOM     20  C   UNL     1     -36.744  23.575  -1.192  0.00  0.00    -0.027 C 
ATOM     21  C   UNL     1     -34.155  18.075  -2.307  0.00  0.00    +0.000 C 
BRANCH  17  22
ATOM     22  C   UNL     1     -38.197  23.107   0.723  0.00  0.00    -0.044 C 
ATOM     23  C   UNL     1     -38.938  24.077   1.605  0.00  0.00    +0.026 C 
ATOM     24  C   UNL     1     -38.765  21.938   0.370  0.00  0.00    -0.034 C 
ATOM     25  C   UNL     1     -40.114  21.414   0.741  0.00  0.00    +0.030 C 
ENDBRANCH  17  22
ENDBRANCH   4  13
BRANCH   4  26
ATOM     26  O   UNL     1     -36.759  21.748   2.906  0.00  0.00    -0.510 OA
ATOM     27  H   UNL     1     -37.678  21.931   2.936  0.00  0.00    +0.292 HD
ENDBRANCH   4  26
BRANCH   7  28
ATOM     28  C   UNL     1     -34.208  26.754   4.247  0.00  0.00    +0.065 C 
BRANCH  28  29
ATOM     29  C   UNL     1     -32.991  27.701   4.310  0.00  0.00    +0.179 C 
ATOM     30  C   UNL     1     -31.964  27.442   3.208  0.00  0.00    +0.041 C 
BRANCH  29  31
ATOM     31  O   UNL     1     -33.474  29.038   4.164  0.00  0.00    -0.376 OA
ATOM     32  H   UNL     1     -33.385  29.314   3.238  0.00  0.00    +0.211 HD
ENDBRANCH  29  31
BRANCH  29  34
ATOM     33  O   UNL     1     -32.949  27.439   6.733  0.00  0.00    -0.248 OA
ATOM     34  C   UNL     1     -32.339  27.641   5.689  0.00  0.00    +0.338 C 
BRANCH  34  35
ATOM     35  O   UNL     1     -30.996  27.833   5.659  0.00  0.00    -0.479 OA
ATOM     36  H   UNL     1     -30.452  27.256   5.159  0.00  0.00    +0.295 HD
ENDBRANCH  34  35
ENDBRANCH  29  34
ENDBRANCH  28  29
ENDBRANCH   7  28
TORSDOF 8
ENDMDL
