MODEL 1
REMARK VINA RESULT:      -6.3      0.000      0.000
REMARK  Name = 53825229
REMARK  12 active torsions:
REMARK  status: ('A' for Active; 'I' for Inactive)
REMARK    1  A    between atoms: CA_1  and  C_4
REMARK    2  A    between atoms: CA_1  and  N_15
REMARK    3  A    between atoms: CA_1  and  CB_27
REMARK    4  A    between atoms: N_3  and  CA_6
REMARK    5  A    between atoms: CA_6  and  CB_7
REMARK    6  A    between atoms: CA_6  and  C_11
REMARK    7  A    between atoms: C_11  and  O_12
REMARK    8  A    between atoms: C_16  and  CA_18
REMARK    9  A    between atoms: CA_18  and  N_19
REMARK   10  A    between atoms: CA_18  and  CB_23
REMARK   11  A    between atoms: CB_23  and  CG_24
REMARK   12  A    between atoms: CB_27  and  CG_28
REMARK                            x       y       z     vdW  Elec       q    Type
REMARK                         _______ _______ _______ _____ _____    ______ ____
ROOT
ATOM      1  CA  PHE A   2     -35.400  21.460   1.467  0.00  0.00    +0.153 C 
ENDROOT
BRANCH   1   4
ATOM      2  O   PHE A   2     -36.666  22.767  -0.134  0.00  0.00    -0.273 OA
ATOM      3  N   VAL A   3     -37.592  20.802   0.692  0.00  0.00    -0.295 N 
ATOM      4  C   PHE A   2     -36.610  21.778   0.595  0.00  0.00    +0.241 C 
ATOM      5  H   VAL A   3     -37.444  20.050   1.309  0.00  0.00    +0.150 HD
BRANCH   3   6
ATOM      6  CA  VAL A   3     -38.821  20.836  -0.069  0.00  0.00    +0.171 C 
BRANCH   6   7
ATOM      7  CB  VAL A   3     -39.093  19.455  -0.703  0.00  0.00    +0.029 C 
ATOM      8  CG1 VAL A   3     -39.516  19.539  -2.173  0.00  0.00    +0.002 C 
ATOM      9  CG2 VAL A   3     -37.904  18.503  -0.550  0.00  0.00    +0.002 C 
ENDBRANCH   6   7
BRANCH   6  11
ATOM     10  OXT VAL A   3     -40.803  22.172   0.361  0.00  0.00    -0.248 OA
ATOM     11  C   VAL A   3     -39.970  21.377   0.778  0.00  0.00    +0.332 C 
BRANCH  11  12
ATOM     12  O   VAL A   3     -39.972  20.947   2.065  0.00  0.00    -0.479 OA
ATOM     13  H   VAL A   3     -39.232  20.485   2.406  0.00  0.00    +0.295 HD
ENDBRANCH  11  12
ENDBRANCH   6  11
ENDBRANCH   3   6
ENDBRANCH   1   4
BRANCH   1  15
ATOM     14  O   LEU A   1     -34.747  24.062   2.530  0.00  0.00    -0.277 OA
ATOM     15  N   PHE A   2     -35.687  21.955   2.793  0.00  0.00    -0.300 N 
ATOM     16  C   LEU A   1     -35.333  23.227   3.218  0.00  0.00    +0.202 C 
ATOM     17  H   PHE A   2     -36.155  21.362   3.424  0.00  0.00    +0.150 HD
BRANCH  16  18
ATOM     18  CA  LEU A   1     -35.720  23.488   4.669  0.00  0.00    +0.013 C 
BRANCH  18  19
ATOM     19  N   LEU A   1     -36.084  22.181   5.222  0.00  0.00    +0.387 N 
ATOM     20  H1  LEU A   1     -36.505  22.305   6.142  0.00  0.00    -0.089 HD
ATOM     21  H2  LEU A   1     -35.249  21.601   5.305  0.00  0.00    -0.089 HD
ATOM     22  H3  LEU A   1     -36.753  21.723   4.601  0.00  0.00    -0.089 HD
ENDBRANCH  18  19
BRANCH  18  23
ATOM     23  CB  LEU A   1     -34.567  24.100   5.480  0.00  0.00    -0.013 C 
BRANCH  23  24
ATOM     24  CG  LEU A   1     -34.781  25.575   5.885  0.00  0.00    -0.002 C 
ATOM     25  CD1 LEU A   1     -33.667  26.490   5.376  0.00  0.00    -0.000 C 
ATOM     26  CD2 LEU A   1     -36.133  26.064   5.355  0.00  0.00    -0.000 C 
ENDBRANCH  23  24
ENDBRANCH  18  23
ENDBRANCH  16  18
ENDBRANCH   1  15
BRANCH   1  27
ATOM     27  CB  PHE A   2     -35.120  19.953   1.459  0.00  0.00    +0.055 C 
BRANCH  27  28
ATOM     28  CG  PHE A   2     -33.699  19.625   1.067  0.00  0.00    -0.020 C 
ATOM     29  CD1 PHE A   2     -33.132  18.411   1.451  0.00  0.00    -0.004 C 
ATOM     30  CD2 PHE A   2     -32.954  20.539   0.322  0.00  0.00    -0.004 C 
ATOM     31  CE1 PHE A   2     -31.819  18.109   1.090  0.00  0.00    -0.000 C 
ATOM     32  CE2 PHE A   2     -31.642  20.237  -0.041  0.00  0.00    -0.000 C 
ATOM     33  CZ  PHE A   2     -31.074  19.021   0.344  0.00  0.00    -0.000 C 
ENDBRANCH  27  28
ENDBRANCH   1  27
TORSDOF 12
ENDMDL
MODEL 2
REMARK VINA RESULT:      -6.2      4.086      5.537
REMARK  Name = 53825229
REMARK  12 active torsions:
REMARK  status: ('A' for Active; 'I' for Inactive)
REMARK    1  A    between atoms: CA_1  and  C_4
REMARK    2  A    between atoms: CA_1  and  N_15
REMARK    3  A    between atoms: CA_1  and  CB_27
REMARK    4  A    between atoms: N_3  and  CA_6
REMARK    5  A    between atoms: CA_6  and  CB_7
REMARK    6  A    between atoms: CA_6  and  C_11
REMARK    7  A    between atoms: C_11  and  O_12
REMARK    8  A    between atoms: C_16  and  CA_18
REMARK    9  A    between atoms: CA_18  and  N_19
REMARK   10  A    between atoms: CA_18  and  CB_23
REMARK   11  A    between atoms: CB_23  and  CG_24
REMARK   12  A    between atoms: CB_27  and  CG_28
REMARK                            x       y       z     vdW  Elec       q    Type
REMARK                         _______ _______ _______ _____ _____    ______ ____
ROOT
ATOM      1  CA  PHE A   2     -35.916  25.866   3.211  0.00  0.00    +0.153 C 
ENDROOT
BRANCH   1   4
ATOM      2  O   PHE A   2     -37.203  27.427   1.877  0.00  0.00    -0.273 OA
ATOM      3  N   VAL A   3     -38.216  25.464   2.594  0.00  0.00    -0.295 N 
ATOM      4  C   PHE A   2     -37.167  26.366   2.497  0.00  0.00    +0.241 C 
ATOM      5  H   VAL A   3     -38.079  24.642   3.118  0.00  0.00    +0.150 HD
BRANCH   3   6
ATOM      6  CA  VAL A   3     -39.501  25.671   1.964  0.00  0.00    +0.171 C 
BRANCH   6   7
ATOM      7  CB  VAL A   3     -39.949  24.388   1.231  0.00  0.00    +0.029 C 
ATOM      8  CG1 VAL A   3     -39.610  23.106   1.998  0.00  0.00    +0.002 C 
ATOM      9  CG2 VAL A   3     -41.437  24.414   0.875  0.00  0.00    +0.002 C 
ENDBRANCH   6   7
BRANCH   6  11
ATOM     10  OXT VAL A   3     -41.208  27.202   2.766  0.00  0.00    -0.248 OA
ATOM     11  C   VAL A   3     -40.517  26.210   2.967  0.00  0.00    +0.332 C 
BRANCH  11  12
ATOM     12  O   VAL A   3     -40.565  25.532   4.141  0.00  0.00    -0.479 OA
ATOM     13  H   VAL A   3     -41.358  25.516   4.641  0.00  0.00    +0.295 HD
ENDBRANCH  11  12
ENDBRANCH   6  11
ENDBRANCH   3   6
ENDBRANCH   1   4
BRANCH   1  15
ATOM     14  O   LEU A   1     -33.047  25.713   3.488  0.00  0.00    -0.277 OA
ATOM     15  N   PHE A   2     -34.987  26.971   3.272  0.00  0.00    -0.300 N 
ATOM     16  C   LEU A   1     -33.617  26.800   3.407  0.00  0.00    +0.202 C 
ATOM     17  H   PHE A   2     -35.343  27.886   3.216  0.00  0.00    +0.150 HD
BRANCH  16  18
ATOM     18  CA  LEU A   1     -32.867  28.125   3.480  0.00  0.00    +0.013 C 
BRANCH  18  19
ATOM     19  N   LEU A   1     -33.881  29.137   3.784  0.00  0.00    +0.387 N 
ATOM     20  H1  LEU A   1     -33.574  29.700   4.576  0.00  0.00    -0.089 HD
ATOM     21  H2  LEU A   1     -34.763  28.678   4.014  0.00  0.00    -0.089 HD
ATOM     22  H3  LEU A   1     -34.016  29.739   2.970  0.00  0.00    -0.089 HD
ENDBRANCH  18  19
BRANCH  18  23
ATOM     23  CB  LEU A   1     -31.782  28.122   4.569  0.00  0.00    -0.013 C 
BRANCH  23  24
ATOM     24  CG  LEU A   1     -32.288  28.500   5.978  0.00  0.00    -0.002 C 
ATOM     25  CD1 LEU A   1     -32.562  27.273   6.850  0.00  0.00    -0.000 C 
ATOM     26  CD2 LEU A   1     -31.264  29.405   6.669  0.00  0.00    -0.000 C 
ENDBRANCH  23  24
ENDBRANCH  18  23
ENDBRANCH  16  18
ENDBRANCH   1  15
BRANCH   1  27
ATOM     27  CB  PHE A   2     -36.274  25.333   4.603  0.00  0.00    +0.055 C 
BRANCH  27  28
ATOM     28  CG  PHE A   2     -35.857  23.896   4.803  0.00  0.00    -0.020 C 
ATOM     29  CD1 PHE A   2     -35.898  23.003   3.733  0.00  0.00    -0.004 C 
ATOM     30  CD2 PHE A   2     -35.432  23.462   6.058  0.00  0.00    -0.004 C 
ATOM     31  CE1 PHE A   2     -35.513  21.675   3.919  0.00  0.00    -0.000 C 
ATOM     32  CE2 PHE A   2     -35.046  22.136   6.244  0.00  0.00    -0.000 C 
ATOM     33  CZ  PHE A   2     -35.087  21.241   5.173  0.00  0.00    -0.000 C 
ENDBRANCH  27  28
ENDBRANCH   1  27
TORSDOF 12
ENDMDL
MODEL 3
REMARK VINA RESULT:      -6.1      2.441      3.013
REMARK  Name = 53825229
REMARK  12 active torsions:
REMARK  status: ('A' for Active; 'I' for Inactive)
REMARK    1  A    between atoms: CA_1  and  C_4
REMARK    2  A    between atoms: CA_1  and  N_15
REMARK    3  A    between atoms: CA_1  and  CB_27
REMARK    4  A    between atoms: N_3  and  CA_6
REMARK    5  A    between atoms: CA_6  and  CB_7
REMARK    6  A    between atoms: CA_6  and  C_11
REMARK    7  A    between atoms: C_11  and  O_12
REMARK    8  A    between atoms: C_16  and  CA_18
REMARK    9  A    between atoms: CA_18  and  N_19
REMARK   10  A    between atoms: CA_18  and  CB_23
REMARK   11  A    between atoms: CB_23  and  CG_24
REMARK   12  A    between atoms: CB_27  and  CG_28
REMARK                            x       y       z     vdW  Elec       q    Type
REMARK                         _______ _______ _______ _____ _____    ______ ____
ROOT
ATOM      1  CA  PHE A   2     -34.836  20.046   1.329  0.00  0.00    +0.153 C 
ENDROOT
BRANCH   1   4
ATOM      2  O   PHE A   2     -37.161  19.994   0.647  0.00  0.00    -0.273 OA
ATOM      3  N   VAL A   3     -35.795  18.193   0.111  0.00  0.00    -0.295 N 
ATOM      4  C   PHE A   2     -36.071  19.427   0.683  0.00  0.00    +0.241 C 
ATOM      5  H   VAL A   3     -34.884  17.830   0.200  0.00  0.00    +0.150 HD
BRANCH   3   6
ATOM      6  CA  VAL A   3     -36.778  17.415  -0.608  0.00  0.00    +0.171 C 
BRANCH   6   7
ATOM      7  CB  VAL A   3     -36.400  17.327  -2.102  0.00  0.00    +0.029 C 
ATOM      8  CG1 VAL A   3     -37.293  18.187  -3.002  0.00  0.00    +0.002 C 
ATOM      9  CG2 VAL A   3     -34.926  17.661  -2.347  0.00  0.00    +0.002 C 
ENDBRANCH   6   7
BRANCH   6  11
ATOM     10  OXT VAL A   3     -38.096  15.526   0.164  0.00  0.00    -0.248 OA
ATOM     11  C   VAL A   3     -37.000  16.063   0.066  0.00  0.00    +0.332 C 
BRANCH  11  12
ATOM     12  O   VAL A   3     -35.883  15.512   0.604  0.00  0.00    -0.479 OA
ATOM     13  H   VAL A   3     -35.456  15.930   1.326  0.00  0.00    +0.295 HD
ENDBRANCH  11  12
ENDBRANCH   6  11
ENDBRANCH   3   6
ENDBRANCH   1   4
BRANCH   1  15
ATOM     14  O   LEU A   1     -34.829  22.856   1.985  0.00  0.00    -0.277 OA
ATOM     15  N   PHE A   2     -35.260  20.651   2.570  0.00  0.00    -0.300 N 
ATOM     16  C   LEU A   1     -35.221  22.019   2.797  0.00  0.00    +0.202 C 
ATOM     17  H   PHE A   2     -35.592  20.065   3.288  0.00  0.00    +0.150 HD
BRANCH  16  18
ATOM     18  CA  LEU A   1     -35.690  22.393   4.198  0.00  0.00    +0.013 C 
BRANCH  18  19
ATOM     19  N   LEU A   1     -35.529  21.182   5.006  0.00  0.00    +0.387 N 
ATOM     20  H1  LEU A   1     -36.091  21.260   5.853  0.00  0.00    -0.089 HD
ATOM     21  H2  LEU A   1     -34.547  21.069   5.258  0.00  0.00    -0.089 HD
ATOM     22  H3  LEU A   1     -35.835  20.371   4.468  0.00  0.00    -0.089 HD
ENDBRANCH  18  19
BRANCH  18  23
ATOM     23  CB  LEU A   1     -34.869  23.543   4.802  0.00  0.00    -0.013 C 
BRANCH  23  24
ATOM     24  CG  LEU A   1     -35.715  24.693   5.392  0.00  0.00    -0.002 C 
ATOM     25  CD1 LEU A   1     -34.878  25.935   5.703  0.00  0.00    -0.000 C 
ATOM     26  CD2 LEU A   1     -36.838  25.059   4.418  0.00  0.00    -0.000 C 
ENDBRANCH  23  24
ENDBRANCH  18  23
ENDBRANCH  16  18
ENDBRANCH   1  15
BRANCH   1  27
ATOM     27  CB  PHE A   2     -33.756  18.980   1.543  0.00  0.00    +0.055 C 
BRANCH  27  28
ATOM     28  CG  PHE A   2     -32.476  19.289   0.804  0.00  0.00    -0.020 C 
ATOM     29  CD1 PHE A   2     -31.411  18.391   0.849  0.00  0.00    -0.004 C 
ATOM     30  CD2 PHE A   2     -32.360  20.475   0.078  0.00  0.00    -0.004 C 
ATOM     31  CE1 PHE A   2     -30.228  18.677   0.166  0.00  0.00    -0.000 C 
ATOM     32  CE2 PHE A   2     -31.178  20.761  -0.604  0.00  0.00    -0.000 C 
ATOM     33  CZ  PHE A   2     -30.111  19.862  -0.560  0.00  0.00    -0.000 C 
ENDBRANCH  27  28
ENDBRANCH   1  27
TORSDOF 12
ENDMDL
MODEL 4
REMARK VINA RESULT:      -6.0      2.782      6.019
REMARK  Name = 53825229
REMARK  12 active torsions:
REMARK  status: ('A' for Active; 'I' for Inactive)
REMARK    1  A    between atoms: CA_1  and  C_4
REMARK    2  A    between atoms: CA_1  and  N_15
REMARK    3  A    between atoms: CA_1  and  CB_27
REMARK    4  A    between atoms: N_3  and  CA_6
REMARK    5  A    between atoms: CA_6  and  CB_7
REMARK    6  A    between atoms: CA_6  and  C_11
REMARK    7  A    between atoms: C_11  and  O_12
REMARK    8  A    between atoms: C_16  and  CA_18
REMARK    9  A    between atoms: CA_18  and  N_19
REMARK   10  A    between atoms: CA_18  and  CB_23
REMARK   11  A    between atoms: CB_23  and  CG_24
REMARK   12  A    between atoms: CB_27  and  CG_28
REMARK                            x       y       z     vdW  Elec       q    Type
REMARK                         _______ _______ _______ _____ _____    ______ ____
ROOT
ATOM      1  CA  PHE A   2     -37.308  20.748   1.690  0.00  0.00    +0.153 C 
ENDROOT
BRANCH   1   4
ATOM      2  O   PHE A   2     -35.145  20.237   2.655  0.00  0.00    -0.273 OA
ATOM      3  N   VAL A   3     -36.315  22.084   3.441  0.00  0.00    -0.295 N 
ATOM      4  C   PHE A   2     -36.138  20.961   2.644  0.00  0.00    +0.241 C 
ATOM      5  H   VAL A   3     -37.152  22.594   3.351  0.00  0.00    +0.150 HD
BRANCH   3   6
ATOM      6  CA  VAL A   3     -35.332  22.540   4.398  0.00  0.00    +0.171 C 
BRANCH   6   7
ATOM      7  CB  VAL A   3     -35.356  24.080   4.494  0.00  0.00    +0.029 C 
ATOM      8  CG1 VAL A   3     -34.292  24.756   3.623  0.00  0.00    +0.002 C 
ATOM      9  CG2 VAL A   3     -36.739  24.658   4.182  0.00  0.00    +0.002 C 
ENDBRANCH   6   7
BRANCH   6  11
ATOM     10  OXT VAL A   3     -35.929  22.366   6.746  0.00  0.00    -0.248 OA
ATOM     11  C   VAL A   3     -35.501  21.823   5.735  0.00  0.00    +0.332 C 
BRANCH  11  12
ATOM     12  O   VAL A   3     -35.086  20.531   5.738  0.00  0.00    -0.479 OA
ATOM     13  H   VAL A   3     -35.493  19.907   5.170  0.00  0.00    +0.295 HD
ENDBRANCH  11  12
ENDBRANCH   6  11
ENDBRANCH   3   6
ENDBRANCH   1   4
BRANCH   1  15
ATOM     14  O   LEU A   1     -40.143  21.175   2.018  0.00  0.00    -0.277 OA
ATOM     15  N   PHE A   2     -38.016  22.003   1.594  0.00  0.00    -0.300 N 
ATOM     16  C   LEU A   1     -39.388  22.113   1.768  0.00  0.00    +0.202 C 
ATOM     17  H   PHE A   2     -37.502  22.818   1.396  0.00  0.00    +0.150 HD
BRANCH  16  18
ATOM     18  CA  LEU A   1     -39.889  23.540   1.581  0.00  0.00    +0.013 C 
BRANCH  18  19
ATOM     19  N   LEU A   1     -41.162  23.421   0.865  0.00  0.00    +0.387 N 
ATOM     20  H1  LEU A   1     -41.874  23.051   1.493  0.00  0.00    -0.089 HD
ATOM     21  H2  LEU A   1     -41.048  22.791   0.070  0.00  0.00    -0.089 HD
ATOM     22  H3  LEU A   1     -41.450  24.341   0.528  0.00  0.00    -0.089 HD
ENDBRANCH  18  19
BRANCH  18  23
ATOM     23  CB  LEU A   1     -40.103  24.265   2.920  0.00  0.00    -0.013 C 
BRANCH  23  24
ATOM     24  CG  LEU A   1     -39.939  25.799   2.851  0.00  0.00    -0.002 C 
ATOM     25  CD1 LEU A   1     -39.136  26.247   1.629  0.00  0.00    -0.000 C 
ATOM     26  CD2 LEU A   1     -41.317  26.465   2.836  0.00  0.00    -0.000 C 
ENDBRANCH  23  24
ENDBRANCH  18  23
ENDBRANCH  16  18
ENDBRANCH   1  15
BRANCH   1  27
ATOM     27  CB  PHE A   2     -36.803  20.262   0.327  0.00  0.00    +0.055 C 
BRANCH  27  28
ATOM     28  CG  PHE A   2     -37.621  19.120  -0.226  0.00  0.00    -0.020 C 
ATOM     29  CD1 PHE A   2     -37.211  17.804  -0.018  0.00  0.00    -0.004 C 
ATOM     30  CD2 PHE A   2     -38.787  19.382  -0.945  0.00  0.00    -0.004 C 
ATOM     31  CE1 PHE A   2     -37.967  16.749  -0.529  0.00  0.00    -0.000 C 
ATOM     32  CE2 PHE A   2     -39.544  18.328  -1.455  0.00  0.00    -0.000 C 
ATOM     33  CZ  PHE A   2     -39.133  17.010  -1.248  0.00  0.00    -0.000 C 
ENDBRANCH  27  28
ENDBRANCH   1  27
TORSDOF 12
ENDMDL
MODEL 5
REMARK VINA RESULT:      -6.0      4.457      8.286
REMARK  Name = 53825229
REMARK  12 active torsions:
REMARK  status: ('A' for Active; 'I' for Inactive)
REMARK    1  A    between atoms: CA_1  and  C_4
REMARK    2  A    between atoms: CA_1  and  N_15
REMARK    3  A    between atoms: CA_1  and  CB_27
REMARK    4  A    between atoms: N_3  and  CA_6
REMARK    5  A    between atoms: CA_6  and  CB_7
REMARK    6  A    between atoms: CA_6  and  C_11
REMARK    7  A    between atoms: C_11  and  O_12
REMARK    8  A    between atoms: C_16  and  CA_18
REMARK    9  A    between atoms: CA_18  and  N_19
REMARK   10  A    between atoms: CA_18  and  CB_23
REMARK   11  A    between atoms: CB_23  and  CG_24
REMARK   12  A    between atoms: CB_27  and  CG_28
REMARK                            x       y       z     vdW  Elec       q    Type
REMARK                         _______ _______ _______ _____ _____    ______ ____
ROOT
ATOM      1  CA  PHE A   2     -35.778  26.125   3.728  0.00  0.00    +0.153 C 
ENDROOT
BRANCH   1   4
ATOM      2  O   PHE A   2     -35.188  28.414   3.191  0.00  0.00    -0.273 OA
ATOM      3  N   VAL A   3     -33.685  27.125   4.406  0.00  0.00    -0.295 N 
ATOM      4  C   PHE A   2     -34.869  27.350   3.716  0.00  0.00    +0.241 C 
ATOM      5  H   VAL A   3     -33.530  26.231   4.789  0.00  0.00    +0.150 HD
BRANCH   3   6
ATOM      6  CA  VAL A   3     -32.670  28.137   4.589  0.00  0.00    +0.171 C 
BRANCH   6   7
ATOM      7  CB  VAL A   3     -32.023  27.997   5.984  0.00  0.00    +0.029 C 
ATOM      8  CG1 VAL A   3     -31.766  29.344   6.667  0.00  0.00    +0.002 C 
ATOM      9  CG2 VAL A   3     -32.831  27.081   6.907  0.00  0.00    +0.002 C 
ENDBRANCH   6   7
BRANCH   6  11
ATOM     10  OXT VAL A   3     -31.909  28.617   2.332  0.00  0.00    -0.248 OA
ATOM     11  C   VAL A   3     -31.676  28.126   3.430  0.00  0.00    +0.332 C 
BRANCH  11  12
ATOM     12  O   VAL A   3     -30.515  27.475   3.690  0.00  0.00    -0.479 OA
ATOM     13  H   VAL A   3     -30.501  26.538   3.730  0.00  0.00    +0.295 HD
ENDBRANCH  11  12
ENDBRANCH   6  11
ENDBRANCH   3   6
ENDBRANCH   1   4
BRANCH   1  15
ATOM     14  O   LEU A   1     -38.356  24.835   3.848  0.00  0.00    -0.277 OA
ATOM     15  N   PHE A   2     -36.954  26.458   2.959  0.00  0.00    -0.300 N 
ATOM     16  C   LEU A   1     -38.157  25.779   3.084  0.00  0.00    +0.202 C 
ATOM     17  H   PHE A   2     -36.899  27.201   2.316  0.00  0.00    +0.150 HD
BRANCH  16  18
ATOM     18  CA  LEU A   1     -39.228  26.305   2.136  0.00  0.00    +0.013 C 
BRANCH  18  19
ATOM     19  N   LEU A   1     -38.582  26.402   0.825  0.00  0.00    +0.387 N 
ATOM     20  H1  LEU A   1     -39.195  26.005   0.113  0.00  0.00    -0.089 HD
ATOM     21  H2  LEU A   1     -37.701  25.887   0.840  0.00  0.00    -0.089 HD
ATOM     22  H3  LEU A   1     -38.398  27.381   0.607  0.00  0.00    -0.089 HD
ENDBRANCH  18  19
BRANCH  18  23
ATOM     23  CB  LEU A   1     -40.447  25.373   2.057  0.00  0.00    -0.013 C 
BRANCH  23  24
ATOM     24  CG  LEU A   1     -41.787  26.036   2.445  0.00  0.00    -0.002 C 
ATOM     25  CD1 LEU A   1     -41.687  26.843   3.741  0.00  0.00    -0.000 C 
ATOM     26  CD2 LEU A   1     -42.262  26.945   1.307  0.00  0.00    -0.000 C 
ENDBRANCH  23  24
ENDBRANCH  18  23
ENDBRANCH  16  18
ENDBRANCH   1  15
BRANCH   1  27
ATOM     27  CB  PHE A   2     -35.039  24.909   3.158  0.00  0.00    +0.055 C 
BRANCH  27  28
ATOM     28  CG  PHE A   2     -35.134  23.697   4.053  0.00  0.00    -0.020 C 
ATOM     29  CD1 PHE A   2     -35.235  22.423   3.495  0.00  0.00    -0.004 C 
ATOM     30  CD2 PHE A   2     -35.122  23.852   5.439  0.00  0.00    -0.004 C 
ATOM     31  CE1 PHE A   2     -35.324  21.304   4.322  0.00  0.00    -0.000 C 
ATOM     32  CE2 PHE A   2     -35.209  22.733   6.267  0.00  0.00    -0.000 C 
ATOM     33  CZ  PHE A   2     -35.311  21.458   5.708  0.00  0.00    -0.000 C 
ENDBRANCH  27  28
ENDBRANCH   1  27
TORSDOF 12
ENDMDL
MODEL 6
REMARK VINA RESULT:      -6.0      2.111      4.945
REMARK  Name = 53825229
REMARK  12 active torsions:
REMARK  status: ('A' for Active; 'I' for Inactive)
REMARK    1  A    between atoms: CA_1  and  C_4
REMARK    2  A    between atoms: CA_1  and  N_15
REMARK    3  A    between atoms: CA_1  and  CB_27
REMARK    4  A    between atoms: N_3  and  CA_6
REMARK    5  A    between atoms: CA_6  and  CB_7
REMARK    6  A    between atoms: CA_6  and  C_11
REMARK    7  A    between atoms: C_11  and  O_12
REMARK    8  A    between atoms: C_16  and  CA_18
REMARK    9  A    between atoms: CA_18  and  N_19
REMARK   10  A    between atoms: CA_18  and  CB_23
REMARK   11  A    between atoms: CB_23  and  CG_24
REMARK   12  A    between atoms: CB_27  and  CG_28
REMARK                            x       y       z     vdW  Elec       q    Type
REMARK                         _______ _______ _______ _____ _____    ______ ____
ROOT
ATOM      1  CA  PHE A   2     -36.272  20.329   2.037  0.00  0.00    +0.153 C 
ENDROOT
BRANCH   1   4
ATOM      2  O   PHE A   2     -35.050  20.634   4.107  0.00  0.00    -0.273 OA
ATOM      3  N   VAL A   3     -35.678  22.510   2.889  0.00  0.00    -0.295 N 
ATOM      4  C   PHE A   2     -35.611  21.147   3.141  0.00  0.00    +0.241 C 
ATOM      5  H   VAL A   3     -36.154  22.813   2.082  0.00  0.00    +0.150 HD
BRANCH   3   6
ATOM      6  CA  VAL A   3     -35.086  23.506   3.753  0.00  0.00    +0.171 C 
BRANCH   6   7
ATOM      7  CB  VAL A   3     -34.652  24.737   2.928  0.00  0.00    +0.029 C 
ATOM      8  CG1 VAL A   3     -33.551  25.559   3.605  0.00  0.00    +0.002 C 
ATOM      9  CG2 VAL A   3     -34.231  24.361   1.505  0.00  0.00    +0.002 C 
ENDBRANCH   6   7
BRANCH   6  11
ATOM     10  OXT VAL A   3     -36.786  24.775   4.936  0.00  0.00    -0.248 OA
ATOM     11  C   VAL A   3     -36.010  23.828   4.925  0.00  0.00    +0.332 C 
BRANCH  11  12
ATOM     12  O   VAL A   3     -35.870  23.005   5.994  0.00  0.00    -0.479 OA
ATOM     13  H   VAL A   3     -35.039  22.612   6.178  0.00  0.00    +0.295 HD
ENDBRANCH  11  12
ENDBRANCH   6  11
ENDBRANCH   3   6
ENDBRANCH   1   4
BRANCH   1  15
ATOM     14  O   LEU A   1     -37.584  21.845  -0.039  0.00  0.00    -0.277 OA
ATOM     15  N   PHE A   2     -37.662  20.718   1.990  0.00  0.00    -0.300 N 
ATOM     16  C   LEU A   1     -38.207  21.451   0.946  0.00  0.00    +0.202 C 
ATOM     17  H   PHE A   2     -38.249  20.452   2.733  0.00  0.00    +0.150 HD
BRANCH  16  18
ATOM     18  CA  LEU A   1     -39.685  21.759   1.156  0.00  0.00    +0.013 C 
BRANCH  18  19
ATOM     19  N   LEU A   1     -40.049  21.108   2.417  0.00  0.00    +0.387 N 
ATOM     20  H1  LEU A   1     -41.022  20.804   2.376  0.00  0.00    -0.089 HD
ATOM     21  H2  LEU A   1     -39.930  21.766   3.187  0.00  0.00    -0.089 HD
ATOM     22  H3  LEU A   1     -39.446  20.298   2.568  0.00  0.00    -0.089 HD
ENDBRANCH  18  19
BRANCH  18  23
ATOM     23  CB  LEU A   1     -39.961  23.268   1.243  0.00  0.00    -0.013 C 
BRANCH  23  24
ATOM     24  CG  LEU A   1     -39.057  24.028   2.238  0.00  0.00    -0.002 C 
ATOM     25  CD1 LEU A   1     -38.123  25.019   1.542  0.00  0.00    -0.000 C 
ATOM     26  CD2 LEU A   1     -39.925  24.769   3.261  0.00  0.00    -0.000 C 
ENDBRANCH  23  24
ENDBRANCH  18  23
ENDBRANCH  16  18
ENDBRANCH   1  15
BRANCH   1  27
ATOM     27  CB  PHE A   2     -35.560  20.564   0.700  0.00  0.00    +0.055 C 
BRANCH  27  28
ATOM     28  CG  PHE A   2     -34.154  20.014   0.683  0.00  0.00    -0.020 C 
ATOM     29  CD1 PHE A   2     -33.892  18.754   1.220  0.00  0.00    -0.004 C 
ATOM     30  CD2 PHE A   2     -33.118  20.766   0.130  0.00  0.00    -0.004 C 
ATOM     31  CE1 PHE A   2     -32.593  18.246   1.205  0.00  0.00    -0.000 C 
ATOM     32  CE2 PHE A   2     -31.820  20.258   0.114  0.00  0.00    -0.000 C 
ATOM     33  CZ  PHE A   2     -31.557  18.997   0.652  0.00  0.00    -0.000 C 
ENDBRANCH  27  28
ENDBRANCH   1  27
TORSDOF 12
ENDMDL
MODEL 7
REMARK VINA RESULT:      -6.0      2.636      3.728
REMARK  Name = 53825229
REMARK  12 active torsions:
REMARK  status: ('A' for Active; 'I' for Inactive)
REMARK    1  A    between atoms: CA_1  and  C_4
REMARK    2  A    between atoms: CA_1  and  N_15
REMARK    3  A    between atoms: CA_1  and  CB_27
REMARK    4  A    between atoms: N_3  and  CA_6
REMARK    5  A    between atoms: CA_6  and  CB_7
REMARK    6  A    between atoms: CA_6  and  C_11
REMARK    7  A    between atoms: C_11  and  O_12
REMARK    8  A    between atoms: C_16  and  CA_18
REMARK    9  A    between atoms: CA_18  and  N_19
REMARK   10  A    between atoms: CA_18  and  CB_23
REMARK   11  A    between atoms: CB_23  and  CG_24
REMARK   12  A    between atoms: CB_27  and  CG_28
REMARK                            x       y       z     vdW  Elec       q    Type
REMARK                         _______ _______ _______ _____ _____    ______ ____
ROOT
ATOM      1  CA  PHE A   2     -34.232  19.724   0.679  0.00  0.00    +0.153 C 
ENDROOT
BRANCH   1   4
ATOM      2  O   PHE A   2     -35.811  19.514  -1.147  0.00  0.00    -0.273 OA
ATOM      3  N   VAL A   3     -35.227  17.613   0.055  0.00  0.00    -0.295 N 
ATOM      4  C   PHE A   2     -35.190  18.970  -0.236  0.00  0.00    +0.241 C 
ATOM      5  H   VAL A   3     -34.689  17.282   0.810  0.00  0.00    +0.150 HD
BRANCH   3   6
ATOM      6  CA  VAL A   3     -36.018  16.663  -0.695  0.00  0.00    +0.171 C 
BRANCH   6   7
ATOM      7  CB  VAL A   3     -35.272  15.316  -0.802  0.00  0.00    +0.029 C 
ATOM      8  CG1 VAL A   3     -35.510  14.598  -2.134  0.00  0.00    +0.002 C 
ATOM      9  CG2 VAL A   3     -33.770  15.463  -0.542  0.00  0.00    +0.002 C 
ENDBRANCH   6   7
BRANCH   6  11
ATOM     10  OXT VAL A   3     -37.898  15.524   0.339  0.00  0.00    -0.248 OA
ATOM     11  C   VAL A   3     -37.429  16.557  -0.121  0.00  0.00    +0.332 C 
BRANCH  11  12
ATOM     12  O   VAL A   3     -38.158  17.698  -0.207  0.00  0.00    -0.479 OA
ATOM     13  H   VAL A   3     -38.377  18.174   0.570  0.00  0.00    +0.295 HD
ENDBRANCH  11  12
ENDBRANCH   6  11
ENDBRANCH   3   6
ENDBRANCH   1   4
BRANCH   1  15
ATOM     14  O   LEU A   1     -34.861  22.539   0.745  0.00  0.00    -0.277 OA
ATOM     15  N   PHE A   2     -35.034  20.413   1.663  0.00  0.00    -0.300 N 
ATOM     16  C   LEU A   1     -35.284  21.777   1.613  0.00  0.00    +0.202 C 
ATOM     17  H   PHE A   2     -35.421  19.892   2.403  0.00  0.00    +0.150 HD
BRANCH  16  18
ATOM     18  CA  LEU A   1     -36.128  22.261   2.786  0.00  0.00    +0.013 C 
BRANCH  18  19
ATOM     19  N   LEU A   1     -37.481  21.756   2.535  0.00  0.00    +0.387 N 
ATOM     20  H1  LEU A   1     -37.646  21.711   1.530  0.00  0.00    -0.089 HD
ATOM     21  H2  LEU A   1     -38.163  22.382   2.964  0.00  0.00    -0.089 HD
ATOM     22  H3  LEU A   1     -37.576  20.823   2.938  0.00  0.00    -0.089 HD
ENDBRANCH  18  19
BRANCH  18  23
ATOM     23  CB  LEU A   1     -35.611  21.734   4.135  0.00  0.00    -0.013 C 
BRANCH  23  24
ATOM     24  CG  LEU A   1     -35.613  22.778   5.273  0.00  0.00    -0.002 C 
ATOM     25  CD1 LEU A   1     -35.289  22.161   6.634  0.00  0.00    -0.000 C 
ATOM     26  CD2 LEU A   1     -34.607  23.888   4.956  0.00  0.00    -0.000 C 
ENDBRANCH  23  24
ENDBRANCH  18  23
ENDBRANCH  16  18
ENDBRANCH   1  15
BRANCH   1  27
ATOM     27  CB  PHE A   2     -33.235  18.753   1.323  0.00  0.00    +0.055 C 
BRANCH  27  28
ATOM     28  CG  PHE A   2     -31.844  18.881   0.751  0.00  0.00    -0.020 C 
ATOM     29  CD1 PHE A   2     -30.900  17.881   0.981  0.00  0.00    -0.004 C 
ATOM     30  CD2 PHE A   2     -31.503  20.001  -0.008  0.00  0.00    -0.004 C 
ATOM     31  CE1 PHE A   2     -29.615  18.000   0.453  0.00  0.00    -0.000 C 
ATOM     32  CE2 PHE A   2     -30.218  20.120  -0.537  0.00  0.00    -0.000 C 
ATOM     33  CZ  PHE A   2     -29.273  19.119  -0.306  0.00  0.00    -0.000 C 
ENDBRANCH  27  28
ENDBRANCH   1  27
TORSDOF 12
ENDMDL
MODEL 8
REMARK VINA RESULT:      -5.9      1.955      5.810
REMARK  Name = 53825229
REMARK  12 active torsions:
REMARK  status: ('A' for Active; 'I' for Inactive)
REMARK    1  A    between atoms: CA_1  and  C_4
REMARK    2  A    between atoms: CA_1  and  N_15
REMARK    3  A    between atoms: CA_1  and  CB_27
REMARK    4  A    between atoms: N_3  and  CA_6
REMARK    5  A    between atoms: CA_6  and  CB_7
REMARK    6  A    between atoms: CA_6  and  C_11
REMARK    7  A    between atoms: C_11  and  O_12
REMARK    8  A    between atoms: C_16  and  CA_18
REMARK    9  A    between atoms: CA_18  and  N_19
REMARK   10  A    between atoms: CA_18  and  CB_23
REMARK   11  A    between atoms: CB_23  and  CG_24
REMARK   12  A    between atoms: CB_27  and  CG_28
REMARK                            x       y       z     vdW  Elec       q    Type
REMARK                         _______ _______ _______ _____ _____    ______ ____
ROOT
ATOM      1  CA  PHE A   2     -35.791  23.284   3.070  0.00  0.00    +0.153 C 
ENDROOT
BRANCH   1   4
ATOM      2  O   PHE A   2     -37.963  24.031   3.843  0.00  0.00    -0.273 OA
ATOM      3  N   VAL A   3     -37.840  22.763   1.900  0.00  0.00    -0.295 N 
ATOM      4  C   PHE A   2     -37.311  23.401   3.013  0.00  0.00    +0.241 C 
ATOM      5  H   VAL A   3     -37.224  22.286   1.298  0.00  0.00    +0.150 HD
BRANCH   3   6
ATOM      6  CA  VAL A   3     -39.250  22.764   1.582  0.00  0.00    +0.171 C 
BRANCH   6   7
ATOM      7  CB  VAL A   3     -39.561  23.864   0.545  0.00  0.00    +0.029 C 
ATOM      8  CG1 VAL A   3     -40.071  25.163   1.177  0.00  0.00    +0.002 C 
ATOM      9  CG2 VAL A   3     -38.368  24.154  -0.369  0.00  0.00    +0.002 C 
ENDBRANCH   6   7
BRANCH   6  11
ATOM     10  OXT VAL A   3     -40.884  21.087   0.936  0.00  0.00    -0.248 OA
ATOM     11  C   VAL A   3     -39.717  21.368   1.178  0.00  0.00    +0.332 C 
BRANCH  11  12
ATOM     12  O   VAL A   3     -38.737  20.430   1.157  0.00  0.00    -0.479 OA
ATOM     13  H   VAL A   3     -38.500  19.982   1.945  0.00  0.00    +0.295 HD
ENDBRANCH  11  12
ENDBRANCH   6  11
ENDBRANCH   3   6
ENDBRANCH   1   4
BRANCH   1  15
ATOM     14  O   LEU A   1     -35.254  20.639   4.089  0.00  0.00    -0.277 OA
ATOM     15  N   PHE A   2     -35.423  22.116   2.305  0.00  0.00    -0.300 N 
ATOM     16  C   LEU A   1     -35.183  20.878   2.884  0.00  0.00    +0.202 C 
ATOM     17  H   PHE A   2     -35.339  22.201   1.328  0.00  0.00    +0.150 HD
BRANCH  16  18
ATOM     18  CA  LEU A   1     -34.780  19.822   1.862  0.00  0.00    +0.013 C 
BRANCH  18  19
ATOM     19  N   LEU A   1     -36.022  19.419   1.198  0.00  0.00    +0.387 N 
ATOM     20  H1  LEU A   1     -36.170  19.998   0.372  0.00  0.00    -0.089 HD
ATOM     21  H2  LEU A   1     -36.806  19.538   1.841  0.00  0.00    -0.089 HD
ATOM     22  H3  LEU A   1     -35.957  18.440   0.920  0.00  0.00    -0.089 HD
ENDBRANCH  18  19
BRANCH  18  23
ATOM     23  CB  LEU A   1     -33.780  20.362   0.827  0.00  0.00    -0.013 C 
BRANCH  23  24
ATOM     24  CG  LEU A   1     -32.740  19.328   0.342  0.00  0.00    -0.002 C 
ATOM     25  CD1 LEU A   1     -31.392  19.968   0.005  0.00  0.00    -0.000 C 
ATOM     26  CD2 LEU A   1     -32.547  18.250   1.411  0.00  0.00    -0.000 C 
ENDBRANCH  23  24
ENDBRANCH  18  23
ENDBRANCH  16  18
ENDBRANCH   1  15
BRANCH   1  27
ATOM     27  CB  PHE A   2     -35.138  24.560   2.526  0.00  0.00    +0.055 C 
BRANCH  27  28
ATOM     28  CG  PHE A   2     -34.504  25.398   3.611  0.00  0.00    -0.020 C 
ATOM     29  CD1 PHE A   2     -34.744  25.101   4.952  0.00  0.00    -0.004 C 
ATOM     30  CD2 PHE A   2     -33.679  26.470   3.271  0.00  0.00    -0.004 C 
ATOM     31  CE1 PHE A   2     -34.159  25.876   5.953  0.00  0.00    -0.000 C 
ATOM     32  CE2 PHE A   2     -33.093  27.244   4.271  0.00  0.00    -0.000 C 
ATOM     33  CZ  PHE A   2     -33.334  26.947   5.614  0.00  0.00    -0.000 C 
ENDBRANCH  27  28
ENDBRANCH   1  27
TORSDOF 12
ENDMDL
MODEL 9
REMARK VINA RESULT:      -5.9      5.421     11.056
REMARK  Name = 53825229
REMARK  12 active torsions:
REMARK  status: ('A' for Active; 'I' for Inactive)
REMARK    1  A    between atoms: CA_1  and  C_4
REMARK    2  A    between atoms: CA_1  and  N_15
REMARK    3  A    between atoms: CA_1  and  CB_27
REMARK    4  A    between atoms: N_3  and  CA_6
REMARK    5  A    between atoms: CA_6  and  CB_7
REMARK    6  A    between atoms: CA_6  and  C_11
REMARK    7  A    between atoms: C_11  and  O_12
REMARK    8  A    between atoms: C_16  and  CA_18
REMARK    9  A    between atoms: CA_18  and  N_19
REMARK   10  A    between atoms: CA_18  and  CB_23
REMARK   11  A    between atoms: CB_23  and  CG_24
REMARK   12  A    between atoms: CB_27  and  CG_28
REMARK                            x       y       z     vdW  Elec       q    Type
REMARK                         _______ _______ _______ _____ _____    ______ ____
ROOT
ATOM      1  CA  PHE A   2     -32.581  28.738   4.064  0.00  0.00    +0.153 C 
ENDROOT
BRANCH   1   4
ATOM      2  O   PHE A   2     -30.554  27.507   3.565  0.00  0.00    -0.273 OA
ATOM      3  N   VAL A   3     -30.480  29.187   5.169  0.00  0.00    -0.295 N 
ATOM      4  C   PHE A   2     -31.108  28.381   4.229  0.00  0.00    +0.241 C 
ATOM      5  H   VAL A   3     -31.021  29.857   5.646  0.00  0.00    +0.150 HD
BRANCH   3   6
ATOM      6  CA  VAL A   3     -29.072  29.090   5.482  0.00  0.00    +0.171 C 
BRANCH   6   7
ATOM      7  CB  VAL A   3     -28.440  30.497   5.533  0.00  0.00    +0.029 C 
ATOM      8  CG1 VAL A   3     -27.046  30.557   4.900  0.00  0.00    +0.002 C 
ATOM      9  CG2 VAL A   3     -29.348  31.563   4.914  0.00  0.00    +0.002 C 
ENDBRANCH   6   7
BRANCH   6  11
ATOM     10  OXT VAL A   3     -28.749  27.033   6.732  0.00  0.00    -0.248 OA
ATOM     11  C   VAL A   3     -28.851  28.254   6.739  0.00  0.00    +0.332 C 
BRANCH  11  12
ATOM     12  O   VAL A   3     -28.826  28.967   7.893  0.00  0.00    -0.479 OA
ATOM     13  H   VAL A   3     -28.059  28.962   8.431  0.00  0.00    +0.295 HD
ENDBRANCH  11  12
ENDBRANCH   6  11
ENDBRANCH   3   6
ENDBRANCH   1   4
BRANCH   1  15
ATOM     14  O   LEU A   1     -34.372  26.667   3.153  0.00  0.00    -0.277 OA
ATOM     15  N   PHE A   2     -33.338  27.821   4.883  0.00  0.00    -0.300 N 
ATOM     16  C   LEU A   1     -34.179  26.852   4.354  0.00  0.00    +0.202 C 
ATOM     17  H   PHE A   2     -33.254  27.885   5.861  0.00  0.00    +0.150 HD
BRANCH  16  18
ATOM     18  CA  LEU A   1     -34.885  26.038   5.432  0.00  0.00    +0.013 C 
BRANCH  18  19
ATOM     19  N   LEU A   1     -36.317  26.156   5.141  0.00  0.00    +0.387 N 
ATOM     20  H1  LEU A   1     -36.584  27.140   5.136  0.00  0.00    -0.089 HD
ATOM     21  H2  LEU A   1     -36.851  25.662   5.857  0.00  0.00    -0.089 HD
ATOM     22  H3  LEU A   1     -36.513  25.745   4.228  0.00  0.00    -0.089 HD
ENDBRANCH  18  19
BRANCH  18  23
ATOM     23  CB  LEU A   1     -34.464  24.560   5.418  0.00  0.00    -0.013 C 
BRANCH  23  24
ATOM     24  CG  LEU A   1     -35.630  23.564   5.234  0.00  0.00    -0.002 C 
ATOM     25  CD1 LEU A   1     -35.714  23.018   3.808  0.00  0.00    -0.000 C 
ATOM     26  CD2 LEU A   1     -35.478  22.404   6.222  0.00  0.00    -0.000 C 
ENDBRANCH  23  24
ENDBRANCH  18  23
ENDBRANCH  16  18
ENDBRANCH   1  15
BRANCH   1  27
ATOM     27  CB  PHE A   2     -32.822  30.200   4.458  0.00  0.00    +0.055 C 
BRANCH  27  28
ATOM     28  CG  PHE A   2     -33.651  30.949   3.443  0.00  0.00    -0.020 C 
ATOM     29  CD1 PHE A   2     -34.978  30.583   3.219  0.00  0.00    -0.004 C 
ATOM     30  CD2 PHE A   2     -33.088  32.005   2.727  0.00  0.00    -0.004 C 
ATOM     31  CE1 PHE A   2     -35.743  31.275   2.280  0.00  0.00    -0.000 C 
ATOM     32  CE2 PHE A   2     -33.853  32.698   1.789  0.00  0.00    -0.000 C 
ATOM     33  CZ  PHE A   2     -35.182  32.332   1.565  0.00  0.00    -0.000 C 
ENDBRANCH  27  28
ENDBRANCH   1  27
TORSDOF 12
ENDMDL
