MODEL 1
REMARK VINA RESULT:      -6.8      0.000      0.000
REMARK  Name = 194155
REMARK  9 active torsions:
REMARK  status: ('A' for Active; 'I' for Inactive)
REMARK    1  A    between atoms: C_9  and  C_22
REMARK    2  A    between atoms: C_10  and  C_28
REMARK    3  A    between atoms: C_13  and  C_32
REMARK    4  A    between atoms: C_22  and  C_23
REMARK    5  A    between atoms: C_23  and  C_24
REMARK    6  A    between atoms: C_24  and  C_25
REMARK    7  A    between atoms: C_25  and  C_26
REMARK    8  A    between atoms: C_28  and  C_29
REMARK    9  A    between atoms: C_32  and  C_33
REMARK                            x       y       z     vdW  Elec       q    Type
REMARK                         _______ _______ _______ _____ _____    ______ ____
ROOT
ATOM      1  O   UNL     1     -36.294  24.721   3.303  0.00  0.00    -0.451 OA
ATOM      2  O   UNL     1     -38.511  24.382   3.819  0.00  0.00    -0.248 OA
ATOM      3  O   UNL     1     -34.782  26.358   5.823  0.00  0.00    -0.275 OA
ATOM      4  O   UNL     1     -37.657  28.561   0.896  0.00  0.00    -0.273 OA
ATOM      5  O   UNL     1     -34.560  29.670   3.353  0.00  0.00    -0.273 OA
ATOM      6  N   UNL     1     -36.708  26.578   1.623  0.00  0.00    -0.295 N 
ATOM      7  N   UNL     1     -33.350  26.429   3.992  0.00  0.00    -0.298 N 
ATOM      8  N   UNL     1     -34.340  27.895   1.878  0.00  0.00    -0.297 N 
ATOM      9  C   UNL     1     -35.824  23.948   4.428  0.00  0.00    +0.178 C 
ATOM     10  C   UNL     1     -37.931  25.904   2.033  0.00  0.00    +0.171 C 
ATOM     11  C   UNL     1     -34.349  24.314   4.627  0.00  0.00    +0.129 C 
ATOM     12  C   UNL     1     -37.632  24.926   3.161  0.00  0.00    +0.335 C 
ATOM     13  C   UNL     1     -33.110  27.866   3.995  0.00  0.00    +0.153 C 
ATOM     14  C   UNL     1     -34.193  25.803   4.897  0.00  0.00    +0.226 C 
ATOM     15  C   UNL     1     -35.259  28.388   0.858  0.00  0.00    +0.149 C 
ATOM     16  C   UNL     1     -36.666  27.883   1.166  0.00  0.00    +0.241 C 
ATOM     17  C   UNL     1     -34.114  28.555   3.076  0.00  0.00    +0.241 C 
ATOM     18  C   UNL     1     -34.825  27.931  -0.526  0.00  0.00    +0.031 C 
ATOM     19  H   UNL     1     -35.862  26.077   1.674  0.00  0.00    +0.150 HD
ATOM     20  H   UNL     1     -32.892  25.878   3.317  0.00  0.00    +0.150 HD
ATOM     21  H   UNL     1     -33.857  27.056   1.707  0.00  0.00    +0.150 HD
ENDROOT
BRANCH   9  22
ATOM     22  C   UNL     1     -35.967  22.460   4.127  0.00  0.00    +0.044 C 
BRANCH  22  23
ATOM     23  C   UNL     1     -35.430  22.120   2.738  0.00  0.00    +0.004 C 
BRANCH  23  24
ATOM     24  C   UNL     1     -35.336  20.606   2.538  0.00  0.00    +0.000 C 
BRANCH  24  25
ATOM     25  C   UNL     1     -34.535  20.263   1.279  0.00  0.00    +0.000 C 
BRANCH  25  26
ATOM     26  C   UNL     1     -33.552  19.109   1.483  0.00  0.00    +0.000 C 
ATOM     27  C   UNL     1     -32.250  19.278   0.716  0.00  0.00    +0.000 C 
ENDBRANCH  25  26
ENDBRANCH  24  25
ENDBRANCH  23  24
ENDBRANCH  22  23
ENDBRANCH   9  22
BRANCH  10  28
ATOM     28  C   UNL     1     -38.564  25.172   0.860  0.00  0.00    +0.031 C 
BRANCH  28  29
ATOM     29  C   UNL     1     -37.636  24.131   0.210  0.00  0.00    +0.002 C 
ATOM     30  C   UNL     1     -38.216  22.717   0.268  0.00  0.00    +0.000 C 
ATOM     31  C   UNL     1     -37.358  24.517  -1.245  0.00  0.00    +0.000 C 
ENDBRANCH  28  29
ENDBRANCH  10  28
BRANCH  13  32
ATOM     32  C   UNL     1     -31.688  28.177   3.548  0.00  0.00    +0.055 C 
BRANCH  32  33
ATOM     33  C   UNL     1     -30.825  28.624   4.699  0.00  0.00    -0.020 C 
ATOM     34  C   UNL     1     -31.416  29.114   5.864  0.00  0.00    -0.004 C 
ATOM     35  C   UNL     1     -29.436  28.546   4.601  0.00  0.00    -0.004 C 
ATOM     36  C   UNL     1     -30.618  29.528   6.930  0.00  0.00    -0.000 C 
ATOM     37  C   UNL     1     -28.637  28.959   5.668  0.00  0.00    -0.000 C 
ATOM     38  C   UNL     1     -29.229  29.449   6.832  0.00  0.00    -0.000 C 
ENDBRANCH  32  33
ENDBRANCH  13  32
TORSDOF 9
ENDMDL
MODEL 2
REMARK VINA RESULT:      -6.5      3.201      7.035
REMARK  Name = 194155
REMARK  9 active torsions:
REMARK  status: ('A' for Active; 'I' for Inactive)
REMARK    1  A    between atoms: C_9  and  C_22
REMARK    2  A    between atoms: C_10  and  C_28
REMARK    3  A    between atoms: C_13  and  C_32
REMARK    4  A    between atoms: C_22  and  C_23
REMARK    5  A    between atoms: C_23  and  C_24
REMARK    6  A    between atoms: C_24  and  C_25
REMARK    7  A    between atoms: C_25  and  C_26
REMARK    8  A    between atoms: C_28  and  C_29
REMARK    9  A    between atoms: C_32  and  C_33
REMARK                            x       y       z     vdW  Elec       q    Type
REMARK                         _______ _______ _______ _____ _____    ______ ____
ROOT
ATOM      1  O   UNL     1     -36.587  25.577   1.944  0.00  0.00    -0.451 OA
ATOM      2  O   UNL     1     -37.246  27.544   0.949  0.00  0.00    -0.248 OA
ATOM      3  O   UNL     1     -34.091  24.188   0.167  0.00  0.00    -0.275 OA
ATOM      4  O   UNL     1     -40.141  23.464  -0.360  0.00  0.00    -0.273 OA
ATOM      5  O   UNL     1     -36.749  21.240  -1.000  0.00  0.00    -0.273 OA
ATOM      6  N   UNL     1     -38.601  24.228   1.193  0.00  0.00    -0.295 N 
ATOM      7  N   UNL     1     -34.864  22.576   1.653  0.00  0.00    -0.298 N 
ATOM      8  N   UNL     1     -37.449  21.763   1.147  0.00  0.00    -0.297 N 
ATOM      9  C   UNL     1     -35.243  26.046   2.183  0.00  0.00    +0.178 C 
ATOM     10  C   UNL     1     -38.753  25.655   0.946  0.00  0.00    +0.171 C 
ATOM     11  C   UNL     1     -34.390  24.806   2.474  0.00  0.00    +0.129 C 
ATOM     12  C   UNL     1     -37.450  26.376   1.259  0.00  0.00    +0.335 C 
ATOM     13  C   UNL     1     -35.058  21.504   0.686  0.00  0.00    +0.153 C 
ATOM     14  C   UNL     1     -34.420  23.841   1.299  0.00  0.00    +0.226 C 
ATOM     15  C   UNL     1     -38.879  21.825   0.866  0.00  0.00    +0.149 C 
ATOM     16  C   UNL     1     -39.248  23.249   0.460  0.00  0.00    +0.241 C 
ATOM     17  C   UNL     1     -36.494  21.534   0.169  0.00  0.00    +0.241 C 
ATOM     18  C   UNL     1     -39.688  21.395   2.079  0.00  0.00    +0.031 C 
ATOM     19  H   UNL     1     -38.005  23.944   1.922  0.00  0.00    +0.150 HD
ATOM     20  H   UNL     1     -35.056  22.393   2.601  0.00  0.00    +0.150 HD
ATOM     21  H   UNL     1     -37.149  21.888   2.075  0.00  0.00    +0.150 HD
ENDROOT
BRANCH   9  22
ATOM     22  C   UNL     1     -35.231  26.993   3.377  0.00  0.00    +0.044 C 
BRANCH  22  23
ATOM     23  C   UNL     1     -34.353  26.454   4.505  0.00  0.00    +0.004 C 
BRANCH  23  24
ATOM     24  C   UNL     1     -35.200  25.818   5.609  0.00  0.00    +0.000 C 
BRANCH  24  25
ATOM     25  C   UNL     1     -34.671  24.431   5.983  0.00  0.00    +0.000 C 
BRANCH  25  26
ATOM     26  C   UNL     1     -35.582  23.291   5.525  0.00  0.00    +0.000 C 
ATOM     27  C   UNL     1     -35.440  22.027   6.360  0.00  0.00    +0.000 C 
ENDBRANCH  25  26
ENDBRANCH  24  25
ENDBRANCH  23  24
ENDBRANCH  22  23
ENDBRANCH   9  22
BRANCH  10  28
ATOM     28  C   UNL     1     -39.884  26.230   1.783  0.00  0.00    +0.031 C 
BRANCH  28  29
ATOM     29  C   UNL     1     -41.072  26.739   0.947  0.00  0.00    +0.002 C 
ATOM     30  C   UNL     1     -40.715  26.911  -0.530  0.00  0.00    +0.000 C 
ATOM     31  C   UNL     1     -42.255  25.778   1.084  0.00  0.00    +0.000 C 
ENDBRANCH  28  29
ENDBRANCH  10  28
BRANCH  13  32
ATOM     32  C   UNL     1     -34.752  20.150   1.310  0.00  0.00    +0.055 C 
BRANCH  32  33
ATOM     33  C   UNL     1     -33.367  19.672   0.960  0.00  0.00    -0.020 C 
ATOM     34  C   UNL     1     -32.534  20.468   0.173  0.00  0.00    -0.004 C 
ATOM     35  C   UNL     1     -32.918  18.435   1.421  0.00  0.00    -0.004 C 
ATOM     36  C   UNL     1     -31.252  20.027  -0.152  0.00  0.00    -0.000 C 
ATOM     37  C   UNL     1     -31.635  17.994   1.096  0.00  0.00    -0.000 C 
ATOM     38  C   UNL     1     -30.802  18.790   0.310  0.00  0.00    -0.000 C 
ENDBRANCH  32  33
ENDBRANCH  13  32
TORSDOF 9
ENDMDL
MODEL 3
REMARK VINA RESULT:      -6.5      2.506      7.337
REMARK  Name = 194155
REMARK  9 active torsions:
REMARK  status: ('A' for Active; 'I' for Inactive)
REMARK    1  A    between atoms: C_9  and  C_22
REMARK    2  A    between atoms: C_10  and  C_28
REMARK    3  A    between atoms: C_13  and  C_32
REMARK    4  A    between atoms: C_22  and  C_23
REMARK    5  A    between atoms: C_23  and  C_24
REMARK    6  A    between atoms: C_24  and  C_25
REMARK    7  A    between atoms: C_25  and  C_26
REMARK    8  A    between atoms: C_28  and  C_29
REMARK    9  A    between atoms: C_32  and  C_33
REMARK                            x       y       z     vdW  Elec       q    Type
REMARK                         _______ _______ _______ _____ _____    ______ ____
ROOT
ATOM      1  O   UNL     1     -36.621  25.439   2.594  0.00  0.00    -0.451 OA
ATOM      2  O   UNL     1     -37.215  27.527   1.831  0.00  0.00    -0.248 OA
ATOM      3  O   UNL     1     -34.059  24.251   0.765  0.00  0.00    -0.275 OA
ATOM      4  O   UNL     1     -40.084  23.690  -0.116  0.00  0.00    -0.273 OA
ATOM      5  O   UNL     1     -36.688  21.516  -0.885  0.00  0.00    -0.273 OA
ATOM      6  N   UNL     1     -38.611  24.227   1.588  0.00  0.00    -0.295 N 
ATOM      7  N   UNL     1     -34.913  22.474   1.997  0.00  0.00    -0.298 N 
ATOM      8  N   UNL     1     -37.480  21.771   1.278  0.00  0.00    -0.297 N 
ATOM      9  C   UNL     1     -35.284  25.854   2.949  0.00  0.00    +0.178 C 
ATOM     10  C   UNL     1     -38.738  25.676   1.519  0.00  0.00    +0.171 C 
ATOM     11  C   UNL     1     -34.457  24.575   3.117  0.00  0.00    +0.129 C 
ATOM     12  C   UNL     1     -37.444  26.332   1.980  0.00  0.00    +0.335 C 
ATOM     13  C   UNL     1     -35.073  21.537   0.893  0.00  0.00    +0.153 C 
ATOM     14  C   UNL     1     -34.442  23.768   1.828  0.00  0.00    +0.226 C 
ATOM     15  C   UNL     1     -38.895  21.889   0.944  0.00  0.00    +0.149 C 
ATOM     16  C   UNL     1     -39.232  23.359   0.708  0.00  0.00    +0.241 C 
ATOM     17  C   UNL     1     -36.483  21.655   0.322  0.00  0.00    +0.241 C 
ATOM     18  C   UNL     1     -39.762  21.320   2.056  0.00  0.00    +0.031 C 
ATOM     19  H   UNL     1     -38.051  23.843   2.301  0.00  0.00    +0.150 HD
ATOM     20  H   UNL     1     -35.150  22.175   2.904  0.00  0.00    +0.150 HD
ATOM     21  H   UNL     1     -37.221  21.772   2.227  0.00  0.00    +0.150 HD
ENDROOT
BRANCH   9  22
ATOM     22  C   UNL     1     -35.318  26.640   4.255  0.00  0.00    +0.044 C 
BRANCH  22  23
ATOM     23  C   UNL     1     -35.008  25.744   5.452  0.00  0.00    +0.004 C 
BRANCH  23  24
ATOM     24  C   UNL     1     -33.836  26.296   6.267  0.00  0.00    +0.000 C 
BRANCH  24  25
ATOM     25  C   UNL     1     -32.999  27.274   5.438  0.00  0.00    +0.000 C 
BRANCH  25  26
ATOM     26  C   UNL     1     -31.994  28.069   6.275  0.00  0.00    +0.000 C 
ATOM     27  C   UNL     1     -31.921  29.541   5.897  0.00  0.00    +0.000 C 
ENDBRANCH  25  26
ENDBRANCH  24  25
ENDBRANCH  23  24
ENDBRANCH  22  23
ENDBRANCH   9  22
BRANCH  10  28
ATOM     28  C   UNL     1     -39.901  26.156   2.372  0.00  0.00    +0.031 C 
BRANCH  28  29
ATOM     29  C   UNL     1     -41.058  26.758   1.555  0.00  0.00    +0.002 C 
ATOM     30  C   UNL     1     -40.645  27.094   0.122  0.00  0.00    +0.000 C 
ATOM     31  C   UNL     1     -42.242  25.789   1.540  0.00  0.00    +0.000 C 
ENDBRANCH  28  29
ENDBRANCH  10  28
BRANCH  13  32
ATOM     32  C   UNL     1     -34.808  20.111   1.352  0.00  0.00    +0.055 C 
BRANCH  32  33
ATOM     33  C   UNL     1     -33.419  19.654   0.987  0.00  0.00    -0.020 C 
ATOM     34  C   UNL     1     -32.608  20.461   0.189  0.00  0.00    -0.004 C 
ATOM     35  C   UNL     1     -32.945  18.427   1.449  0.00  0.00    -0.004 C 
ATOM     36  C   UNL     1     -31.323  20.040  -0.149  0.00  0.00    -0.000 C 
ATOM     37  C   UNL     1     -31.658  18.005   1.111  0.00  0.00    -0.000 C 
ATOM     38  C   UNL     1     -30.847  18.812   0.312  0.00  0.00    -0.000 C 
ENDBRANCH  32  33
ENDBRANCH  13  32
TORSDOF 9
ENDMDL
MODEL 4
REMARK VINA RESULT:      -6.3      3.193      6.958
REMARK  Name = 194155
REMARK  9 active torsions:
REMARK  status: ('A' for Active; 'I' for Inactive)
REMARK    1  A    between atoms: C_9  and  C_22
REMARK    2  A    between atoms: C_10  and  C_28
REMARK    3  A    between atoms: C_13  and  C_32
REMARK    4  A    between atoms: C_22  and  C_23
REMARK    5  A    between atoms: C_23  and  C_24
REMARK    6  A    between atoms: C_24  and  C_25
REMARK    7  A    between atoms: C_25  and  C_26
REMARK    8  A    between atoms: C_28  and  C_29
REMARK    9  A    between atoms: C_32  and  C_33
REMARK                            x       y       z     vdW  Elec       q    Type
REMARK                         _______ _______ _______ _____ _____    ______ ____
ROOT
ATOM      1  O   UNL     1     -36.340  29.236   1.710  0.00  0.00    -0.451 OA
ATOM      2  O   UNL     1     -37.055  28.529  -0.360  0.00  0.00    -0.248 OA
ATOM      3  O   UNL     1     -33.124  30.206   1.526  0.00  0.00    -0.275 OA
ATOM      4  O   UNL     1     -35.483  24.695   2.734  0.00  0.00    -0.273 OA
ATOM      5  O   UNL     1     -32.129  26.847   3.725  0.00  0.00    -0.273 OA
ATOM      6  N   UNL     1     -36.147  26.914   2.716  0.00  0.00    -0.295 N 
ATOM      7  N   UNL     1     -33.661  30.012   3.780  0.00  0.00    -0.298 N 
ATOM      8  N   UNL     1     -34.212  27.426   4.560  0.00  0.00    -0.297 N 
ATOM      9  C   UNL     1     -36.061  30.577   1.252  0.00  0.00    +0.178 C 
ATOM     10  C   UNL     1     -36.818  26.916   1.425  0.00  0.00    +0.171 C 
ATOM     11  C   UNL     1     -35.160  31.224   2.310  0.00  0.00    +0.129 C 
ATOM     12  C   UNL     1     -36.747  28.304   0.805  0.00  0.00    +0.335 C 
ATOM     13  C   UNL     1     -32.538  29.171   4.171  0.00  0.00    +0.153 C 
ATOM     14  C   UNL     1     -33.870  30.436   2.476  0.00  0.00    +0.226 C 
ATOM     15  C   UNL     1     -34.788  26.087   4.568  0.00  0.00    +0.149 C 
ATOM     16  C   UNL     1     -35.463  25.824   3.225  0.00  0.00    +0.241 C 
ATOM     17  C   UNL     1     -32.942  27.702   4.078  0.00  0.00    +0.241 C 
ATOM     18  C   UNL     1     -35.791  25.936   5.701  0.00  0.00    +0.031 C 
ATOM     19  H   UNL     1     -36.181  27.734   3.259  0.00  0.00    +0.150 HD
ATOM     20  H   UNL     1     -34.301  30.294   4.473  0.00  0.00    +0.150 HD
ATOM     21  H   UNL     1     -34.750  28.169   4.915  0.00  0.00    +0.150 HD
ENDROOT
BRANCH   9  22
ATOM     22  C   UNL     1     -37.365  31.356   1.115  0.00  0.00    +0.044 C 
BRANCH  22  23
ATOM     23  C   UNL     1     -37.409  32.539   2.080  0.00  0.00    +0.004 C 
BRANCH  23  24
ATOM     24  C   UNL     1     -38.573  33.476   1.752  0.00  0.00    +0.000 C 
BRANCH  24  25
ATOM     25  C   UNL     1     -38.075  34.776   1.117  0.00  0.00    +0.000 C 
BRANCH  25  26
ATOM     26  C   UNL     1     -38.494  36.028   1.891  0.00  0.00    +0.000 C 
ATOM     27  C   UNL     1     -39.536  35.756   2.966  0.00  0.00    +0.000 C 
ENDBRANCH  25  26
ENDBRANCH  24  25
ENDBRANCH  23  24
ENDBRANCH  22  23
ENDBRANCH   9  22
BRANCH  10  28
ATOM     28  C   UNL     1     -38.268  26.482   1.570  0.00  0.00    +0.031 C 
BRANCH  28  29
ATOM     29  C   UNL     1     -38.643  25.276   0.690  0.00  0.00    +0.002 C 
ATOM     30  C   UNL     1     -37.472  24.796  -0.169  0.00  0.00    +0.000 C 
ATOM     31  C   UNL     1     -39.145  24.127   1.568  0.00  0.00    +0.000 C 
ENDBRANCH  28  29
ENDBRANCH  10  28
BRANCH  13  32
ATOM     32  C   UNL     1     -32.081  29.503   5.584  0.00  0.00    +0.055 C 
BRANCH  32  33
ATOM     33  C   UNL     1     -30.707  30.120   5.597  0.00  0.00    -0.020 C 
ATOM     34  C   UNL     1     -29.705  29.572   6.399  0.00  0.00    -0.004 C 
ATOM     35  C   UNL     1     -30.435  31.236   4.807  0.00  0.00    -0.004 C 
ATOM     36  C   UNL     1     -28.432  30.142   6.412  0.00  0.00    -0.000 C 
ATOM     37  C   UNL     1     -29.162  31.807   4.819  0.00  0.00    -0.000 C 
ATOM     38  C   UNL     1     -28.160  31.260   5.621  0.00  0.00    -0.000 C 
ENDBRANCH  32  33
ENDBRANCH  13  32
TORSDOF 9
ENDMDL
MODEL 5
REMARK VINA RESULT:      -5.9      4.681      8.987
REMARK  Name = 194155
REMARK  9 active torsions:
REMARK  status: ('A' for Active; 'I' for Inactive)
REMARK    1  A    between atoms: C_9  and  C_22
REMARK    2  A    between atoms: C_10  and  C_28
REMARK    3  A    between atoms: C_13  and  C_32
REMARK    4  A    between atoms: C_22  and  C_23
REMARK    5  A    between atoms: C_23  and  C_24
REMARK    6  A    between atoms: C_24  and  C_25
REMARK    7  A    between atoms: C_25  and  C_26
REMARK    8  A    between atoms: C_28  and  C_29
REMARK    9  A    between atoms: C_32  and  C_33
REMARK                            x       y       z     vdW  Elec       q    Type
REMARK                         _______ _______ _______ _____ _____    ______ ____
ROOT
ATOM      1  O   UNL     1     -36.871  21.147   1.566  0.00  0.00    -0.451 OA
ATOM      2  O   UNL     1     -37.846  23.121   0.895  0.00  0.00    -0.248 OA
ATOM      3  O   UNL     1     -33.712  20.998   0.419  0.00  0.00    -0.275 OA
ATOM      4  O   UNL     1     -38.911  19.105  -2.185  0.00  0.00    -0.273 OA
ATOM      5  O   UNL     1     -34.947  18.036  -2.192  0.00  0.00    -0.273 OA
ATOM      6  N   UNL     1     -38.116  19.677  -0.086  0.00  0.00    -0.295 N 
ATOM      7  N   UNL     1     -34.281  18.869   1.160  0.00  0.00    -0.298 N 
ATOM      8  N   UNL     1     -36.277  17.684  -0.326  0.00  0.00    -0.297 N 
ATOM      9  C   UNL     1     -35.841  21.814   2.327  0.00  0.00    +0.178 C 
ATOM     10  C   UNL     1     -38.639  21.034  -0.031  0.00  0.00    +0.171 C 
ATOM     11  C   UNL     1     -34.742  20.776   2.583  0.00  0.00    +0.129 C 
ATOM     12  C   UNL     1     -37.745  21.900   0.844  0.00  0.00    +0.335 C 
ATOM     13  C   UNL     1     -33.888  18.140  -0.038  0.00  0.00    +0.153 C 
ATOM     14  C   UNL     1     -34.182  20.248   1.272  0.00  0.00    +0.226 C 
ATOM     15  C   UNL     1     -37.540  17.501  -1.032  0.00  0.00    +0.149 C 
ATOM     16  C   UNL     1     -38.225  18.855  -1.194  0.00  0.00    +0.241 C 
ATOM     17  C   UNL     1     -35.090  18.000  -0.968  0.00  0.00    +0.241 C 
ATOM     18  C   UNL     1     -38.445  16.538  -0.278  0.00  0.00    +0.031 C 
ATOM     19  H   UNL     1     -37.658  19.323   0.710  0.00  0.00    +0.150 HD
ATOM     20  H   UNL     1     -34.632  18.360   1.926  0.00  0.00    +0.150 HD
ATOM     21  H   UNL     1     -36.267  17.578   0.652  0.00  0.00    +0.150 HD
ENDROOT
BRANCH   9  22
ATOM     22  C   UNL     1     -36.417  22.315   3.647  0.00  0.00    +0.044 C 
BRANCH  22  23
ATOM     23  C   UNL     1     -35.561  21.871   4.831  0.00  0.00    +0.004 C 
BRANCH  23  24
ATOM     24  C   UNL     1     -35.239  23.050   5.753  0.00  0.00    +0.000 C 
BRANCH  24  25
ATOM     25  C   UNL     1     -34.355  24.079   5.045  0.00  0.00    +0.000 C 
BRANCH  25  26
ATOM     26  C   UNL     1     -34.584  25.511   5.534  0.00  0.00    +0.000 C 
ATOM     27  C   UNL     1     -36.041  25.947   5.476  0.00  0.00    +0.000 C 
ENDBRANCH  25  26
ENDBRANCH  24  25
ENDBRANCH  23  24
ENDBRANCH  22  23
ENDBRANCH   9  22
BRANCH  10  28
ATOM     28  C   UNL     1     -40.062  21.042   0.505  0.00  0.00    +0.031 C 
BRANCH  28  29
ATOM     29  C   UNL     1     -41.095  21.593  -0.494  0.00  0.00    +0.002 C 
ATOM     30  C   UNL     1     -40.437  22.285  -1.689  0.00  0.00    +0.000 C 
ATOM     31  C   UNL     1     -42.000  20.461  -0.985  0.00  0.00    +0.000 C 
ENDBRANCH  28  29
ENDBRANCH  10  28
BRANCH  13  32
ATOM     32  C   UNL     1     -33.337  16.767   0.321  0.00  0.00    +0.055 C 
BRANCH  32  33
ATOM     33  C   UNL     1     -31.831  16.747   0.307  0.00  0.00    -0.020 C 
ATOM     34  C   UNL     1     -31.154  15.673  -0.270  0.00  0.00    -0.004 C 
ATOM     35  C   UNL     1     -31.114  17.803   0.870  0.00  0.00    -0.004 C 
ATOM     36  C   UNL     1     -29.760  15.654  -0.284  0.00  0.00    -0.000 C 
ATOM     37  C   UNL     1     -29.719  17.784   0.856  0.00  0.00    -0.000 C 
ATOM     38  C   UNL     1     -29.042  16.709   0.278  0.00  0.00    -0.000 C 
ENDBRANCH  32  33
ENDBRANCH  13  32
TORSDOF 9
ENDMDL
MODEL 6
REMARK VINA RESULT:      -5.9      4.172      7.017
REMARK  Name = 194155
REMARK  9 active torsions:
REMARK  status: ('A' for Active; 'I' for Inactive)
REMARK    1  A    between atoms: C_9  and  C_22
REMARK    2  A    between atoms: C_10  and  C_28
REMARK    3  A    between atoms: C_13  and  C_32
REMARK    4  A    between atoms: C_22  and  C_23
REMARK    5  A    between atoms: C_23  and  C_24
REMARK    6  A    between atoms: C_24  and  C_25
REMARK    7  A    between atoms: C_25  and  C_26
REMARK    8  A    between atoms: C_28  and  C_29
REMARK    9  A    between atoms: C_32  and  C_33
REMARK                            x       y       z     vdW  Elec       q    Type
REMARK                         _______ _______ _______ _____ _____    ______ ____
ROOT
ATOM      1  O   UNL     1     -36.359  19.243  -0.059  0.00  0.00    -0.451 OA
ATOM      2  O   UNL     1     -36.761  16.978  -0.141  0.00  0.00    -0.248 OA
ATOM      3  O   UNL     1     -36.326  20.272   3.144  0.00  0.00    -0.275 OA
ATOM      4  O   UNL     1     -40.993  19.879  -0.788  0.00  0.00    -0.273 OA
ATOM      5  O   UNL     1     -39.908  22.208   2.414  0.00  0.00    -0.273 OA
ATOM      6  N   UNL     1     -38.678  19.937  -0.825  0.00  0.00    -0.295 N 
ATOM      7  N   UNL     1     -36.443  22.171   1.807  0.00  0.00    -0.298 N 
ATOM      8  N   UNL     1     -38.797  22.371   0.386  0.00  0.00    -0.297 N 
ATOM      9  C   UNL     1     -35.135  19.087   0.690  0.00  0.00    +0.178 C 
ATOM     10  C   UNL     1     -38.440  18.508  -0.968  0.00  0.00    +0.171 C 
ATOM     11  C   UNL     1     -34.807  20.461   1.286  0.00  0.00    +0.129 C 
ATOM     12  C   UNL     1     -37.106  18.138  -0.335  0.00  0.00    +0.335 C 
ATOM     13  C   UNL     1     -37.580  22.798   2.468  0.00  0.00    +0.153 C 
ATOM     14  C   UNL     1     -35.931  20.940   2.191  0.00  0.00    +0.226 C 
ATOM     15  C   UNL     1     -39.920  22.008  -0.470  0.00  0.00    +0.149 C 
ATOM     16  C   UNL     1     -39.934  20.494  -0.663  0.00  0.00    +0.241 C 
ATOM     17  C   UNL     1     -38.872  22.381   1.771  0.00  0.00    +0.241 C 
ATOM     18  C   UNL     1     -39.825  22.711  -1.814  0.00  0.00    +0.031 C 
ATOM     19  H   UNL     1     -37.901  20.541  -0.844  0.00  0.00    +0.150 HD
ATOM     20  H   UNL     1     -36.019  22.642   1.055  0.00  0.00    +0.150 HD
ATOM     21  H   UNL     1     -37.946  22.622  -0.039  0.00  0.00    +0.150 HD
ENDROOT
BRANCH   9  22
ATOM     22  C   UNL     1     -34.017  18.629  -0.239  0.00  0.00    +0.044 C 
BRANCH  22  23
ATOM     23  C   UNL     1     -33.212  17.488   0.382  0.00  0.00    +0.004 C 
BRANCH  23  24
ATOM     24  C   UNL     1     -32.011  18.023   1.166  0.00  0.00    +0.000 C 
BRANCH  24  25
ATOM     25  C   UNL     1     -31.320  19.161   0.411  0.00  0.00    +0.000 C 
BRANCH  25  26
ATOM     26  C   UNL     1     -29.863  18.856   0.058  0.00  0.00    +0.000 C 
ATOM     27  C   UNL     1     -29.286  17.678   0.829  0.00  0.00    +0.000 C 
ENDBRANCH  25  26
ENDBRANCH  24  25
ENDBRANCH  23  24
ENDBRANCH  22  23
ENDBRANCH   9  22
BRANCH  10  28
ATOM     28  C   UNL     1     -38.454  18.102  -2.433  0.00  0.00    +0.031 C 
BRANCH  28  29
ATOM     29  C   UNL     1     -39.604  17.147  -2.798  0.00  0.00    +0.002 C 
ATOM     30  C   UNL     1     -39.178  16.084  -3.812  0.00  0.00    +0.000 C 
ATOM     31  C   UNL     1     -40.139  16.471  -1.534  0.00  0.00    +0.000 C 
ENDBRANCH  28  29
ENDBRANCH  10  28
BRANCH  13  32
ATOM     32  C   UNL     1     -37.442  24.314   2.458  0.00  0.00    +0.055 C 
BRANCH  32  33
ATOM     33  C   UNL     1     -36.483  24.795   3.515  0.00  0.00    -0.020 C 
ATOM     34  C   UNL     1     -35.878  26.046   3.389  0.00  0.00    -0.004 C 
ATOM     35  C   UNL     1     -36.200  23.992   4.619  0.00  0.00    -0.004 C 
ATOM     36  C   UNL     1     -34.990  26.493   4.367  0.00  0.00    -0.000 C 
ATOM     37  C   UNL     1     -35.312  24.439   5.598  0.00  0.00    -0.000 C 
ATOM     38  C   UNL     1     -34.707  25.690   5.472  0.00  0.00    -0.000 C 
ENDBRANCH  32  33
ENDBRANCH  13  32
TORSDOF 9
ENDMDL
MODEL 7
REMARK VINA RESULT:      -5.9      2.867      7.933
REMARK  Name = 194155
REMARK  9 active torsions:
REMARK  status: ('A' for Active; 'I' for Inactive)
REMARK    1  A    between atoms: C_9  and  C_22
REMARK    2  A    between atoms: C_10  and  C_28
REMARK    3  A    between atoms: C_13  and  C_32
REMARK    4  A    between atoms: C_22  and  C_23
REMARK    5  A    between atoms: C_23  and  C_24
REMARK    6  A    between atoms: C_24  and  C_25
REMARK    7  A    between atoms: C_25  and  C_26
REMARK    8  A    between atoms: C_28  and  C_29
REMARK    9  A    between atoms: C_32  and  C_33
REMARK                            x       y       z     vdW  Elec       q    Type
REMARK                         _______ _______ _______ _____ _____    ______ ____
ROOT
ATOM      1  O   UNL     1     -31.712  30.435   3.338  0.00  0.00    -0.451 OA
ATOM      2  O   UNL     1     -29.941  31.193   2.080  0.00  0.00    -0.248 OA
ATOM      3  O   UNL     1     -31.435  27.113   3.798  0.00  0.00    -0.275 OA
ATOM      4  O   UNL     1     -34.207  30.223  -0.678  0.00  0.00    -0.273 OA
ATOM      5  O   UNL     1     -34.665  26.632   1.258  0.00  0.00    -0.273 OA
ATOM      6  N   UNL     1     -33.427  30.580   1.473  0.00  0.00    -0.295 N 
ATOM      7  N   UNL     1     -33.589  27.722   4.425  0.00  0.00    -0.298 N 
ATOM      8  N   UNL     1     -35.128  28.635   2.328  0.00  0.00    -0.297 N 
ATOM      9  C   UNL     1     -30.864  29.967   4.409  0.00  0.00    +0.178 C 
ATOM     10  C   UNL     1     -32.164  31.216   1.130  0.00  0.00    +0.171 C 
ATOM     11  C   UNL     1     -31.711  29.009   5.255  0.00  0.00    +0.129 C 
ATOM     12  C   UNL     1     -31.134  30.944   2.216  0.00  0.00    +0.335 C 
ATOM     13  C   UNL     1     -34.304  26.732   3.631  0.00  0.00    +0.153 C 
ATOM     14  C   UNL     1     -32.207  27.842   4.416  0.00  0.00    +0.226 C 
ATOM     15  C   UNL     1     -35.532  29.387   1.146  0.00  0.00    +0.149 C 
ATOM     16  C   UNL     1     -34.306  30.062   0.538  0.00  0.00    +0.241 C 
ATOM     17  C   UNL     1     -34.667  27.329   2.274  0.00  0.00    +0.241 C 
ATOM     18  C   UNL     1     -36.585  30.426   1.500  0.00  0.00    +0.031 C 
ATOM     19  H   UNL     1     -33.671  30.515   2.424  0.00  0.00    +0.150 HD
ATOM     20  H   UNL     1     -34.110  28.333   4.995  0.00  0.00    +0.150 HD
ATOM     21  H   UNL     1     -35.187  29.075   3.206  0.00  0.00    +0.150 HD
ENDROOT
BRANCH   9  22
ATOM     22  C   UNL     1     -30.396  31.149   5.250  0.00  0.00    +0.044 C 
BRANCH  22  23
ATOM     23  C   UNL     1     -28.884  31.117   5.460  0.00  0.00    +0.004 C 
BRANCH  23  24
ATOM     24  C   UNL     1     -28.275  29.828   4.902  0.00  0.00    +0.000 C 
BRANCH  24  25
ATOM     25  C   UNL     1     -27.705  28.956   6.023  0.00  0.00    +0.000 C 
BRANCH  25  26
ATOM     26  C   UNL     1     -28.241  27.523   6.006  0.00  0.00    +0.000 C 
ATOM     27  C   UNL     1     -27.686  26.654   7.124  0.00  0.00    +0.000 C 
ENDBRANCH  25  26
ENDBRANCH  24  25
ENDBRANCH  23  24
ENDBRANCH  22  23
ENDBRANCH   9  22
BRANCH  10  28
ATOM     28  C   UNL     1     -32.347  32.715   0.947  0.00  0.00    +0.031 C 
BRANCH  28  29
ATOM     29  C   UNL     1     -33.152  33.381   2.076  0.00  0.00    +0.002 C 
ATOM     30  C   UNL     1     -32.328  34.410   2.851  0.00  0.00    +0.000 C 
ATOM     31  C   UNL     1     -34.403  34.048   1.500  0.00  0.00    +0.000 C 
ENDBRANCH  28  29
ENDBRANCH  10  28
BRANCH  13  32
ATOM     32  C   UNL     1     -35.561  26.265   4.353  0.00  0.00    +0.055 C 
BRANCH  32  33
ATOM     33  C   UNL     1     -35.562  24.774   4.567  0.00  0.00    -0.020 C 
ATOM     34  C   UNL     1     -35.936  23.922   3.528  0.00  0.00    -0.004 C 
ATOM     35  C   UNL     1     -35.187  24.246   5.802  0.00  0.00    -0.004 C 
ATOM     36  C   UNL     1     -35.937  22.541   3.725  0.00  0.00    -0.000 C 
ATOM     37  C   UNL     1     -35.187  22.865   6.000  0.00  0.00    -0.000 C 
ATOM     38  C   UNL     1     -35.562  22.013   4.961  0.00  0.00    -0.000 C 
ENDBRANCH  32  33
ENDBRANCH  13  32
TORSDOF 9
ENDMDL
MODEL 8
REMARK VINA RESULT:      -5.8      3.211      5.317
REMARK  Name = 194155
REMARK  9 active torsions:
REMARK  status: ('A' for Active; 'I' for Inactive)
REMARK    1  A    between atoms: C_9  and  C_22
REMARK    2  A    between atoms: C_10  and  C_28
REMARK    3  A    between atoms: C_13  and  C_32
REMARK    4  A    between atoms: C_22  and  C_23
REMARK    5  A    between atoms: C_23  and  C_24
REMARK    6  A    between atoms: C_24  and  C_25
REMARK    7  A    between atoms: C_25  and  C_26
REMARK    8  A    between atoms: C_28  and  C_29
REMARK    9  A    between atoms: C_32  and  C_33
REMARK                            x       y       z     vdW  Elec       q    Type
REMARK                         _______ _______ _______ _____ _____    ______ ____
ROOT
ATOM      1  O   UNL     1     -36.562  20.891   0.509  0.00  0.00    -0.451 OA
ATOM      2  O   UNL     1     -37.172  18.677   0.358  0.00  0.00    -0.248 OA
ATOM      3  O   UNL     1     -36.205  21.747   3.743  0.00  0.00    -0.275 OA
ATOM      4  O   UNL     1     -41.159  21.966   0.164  0.00  0.00    -0.273 OA
ATOM      5  O   UNL     1     -39.639  24.024   3.375  0.00  0.00    -0.273 OA
ATOM      6  N   UNL     1     -38.856  21.823  -0.046  0.00  0.00    -0.295 N 
ATOM      7  N   UNL     1     -36.245  23.715   2.505  0.00  0.00    -0.298 N 
ATOM      8  N   UNL     1     -38.667  24.193   1.278  0.00  0.00    -0.297 N 
ATOM      9  C   UNL     1     -35.306  20.590   1.156  0.00  0.00    +0.178 C 
ATOM     10  C   UNL     1     -38.760  20.388  -0.270  0.00  0.00    +0.171 C 
ATOM     11  C   UNL     1     -34.812  21.897   1.786  0.00  0.00    +0.129 C 
ATOM     12  C   UNL     1     -37.423  19.871   0.242  0.00  0.00    +0.335 C 
ATOM     13  C   UNL     1     -37.270  24.404   3.278  0.00  0.00    +0.153 C 
ATOM     14  C   UNL     1     -35.821  22.426   2.794  0.00  0.00    +0.226 C 
ATOM     15  C   UNL     1     -39.877  23.973   0.495  0.00  0.00    +0.149 C 
ATOM     16  C   UNL     1     -40.042  22.479   0.235  0.00  0.00    +0.241 C 
ATOM     17  C   UNL     1     -38.640  24.138   2.663  0.00  0.00    +0.241 C 
ATOM     18  C   UNL     1     -39.815  24.734  -0.821  0.00  0.00    +0.031 C 
ATOM     19  H   UNL     1     -38.032  22.357  -0.098  0.00  0.00    +0.150 HD
ATOM     20  H   UNL     1     -35.835  24.185   1.745  0.00  0.00    +0.150 HD
ATOM     21  H   UNL     1     -37.829  24.390   0.801  0.00  0.00    +0.150 HD
ENDROOT
BRANCH   9  22
ATOM     22  C   UNL     1     -34.304  20.084   0.125  0.00  0.00    +0.044 C 
BRANCH  22  23
ATOM     23  C   UNL     1     -32.923  19.881   0.746  0.00  0.00    +0.004 C 
BRANCH  23  24
ATOM     24  C   UNL     1     -32.820  18.516   1.429  0.00  0.00    +0.000 C 
BRANCH  24  25
ATOM     25  C   UNL     1     -31.755  17.642   0.762  0.00  0.00    +0.000 C 
BRANCH  25  26
ATOM     26  C   UNL     1     -30.404  18.346   0.610  0.00  0.00    +0.000 C 
ATOM     27  C   UNL     1     -29.220  17.478   1.008  0.00  0.00    +0.000 C 
ENDBRANCH  25  26
ENDBRANCH  24  25
ENDBRANCH  23  24
ENDBRANCH  22  23
ENDBRANCH   9  22
BRANCH  10  28
ATOM     28  C   UNL     1     -38.916  20.061  -1.747  0.00  0.00    +0.031 C 
BRANCH  28  29
ATOM     29  C   UNL     1     -38.193  21.050  -2.678  0.00  0.00    +0.002 C 
ATOM     30  C   UNL     1     -37.030  20.400  -3.428  0.00  0.00    +0.000 C 
ATOM     31  C   UNL     1     -39.186  21.645  -3.678  0.00  0.00    +0.000 C 
ENDBRANCH  28  29
ENDBRANCH  10  28
BRANCH  13  32
ATOM     32  C   UNL     1     -36.995  25.901   3.326  0.00  0.00    +0.055 C 
BRANCH  32  33
ATOM     33  C   UNL     1     -35.707  26.211   4.041  0.00  0.00    -0.020 C 
ATOM     34  C   UNL     1     -35.497  25.736   5.336  0.00  0.00    -0.004 C 
ATOM     35  C   UNL     1     -34.723  26.972   3.409  0.00  0.00    -0.004 C 
ATOM     36  C   UNL     1     -34.304  26.022   5.999  0.00  0.00    -0.000 C 
ATOM     37  C   UNL     1     -33.530  27.258   4.072  0.00  0.00    -0.000 C 
ATOM     38  C   UNL     1     -33.320  26.783   5.367  0.00  0.00    -0.000 C 
ENDBRANCH  32  33
ENDBRANCH  13  32
TORSDOF 9
ENDMDL
MODEL 9
REMARK VINA RESULT:      -5.7      4.415      8.996
REMARK  Name = 194155
REMARK  9 active torsions:
REMARK  status: ('A' for Active; 'I' for Inactive)
REMARK    1  A    between atoms: C_9  and  C_22
REMARK    2  A    between atoms: C_10  and  C_28
REMARK    3  A    between atoms: C_13  and  C_32
REMARK    4  A    between atoms: C_22  and  C_23
REMARK    5  A    between atoms: C_23  and  C_24
REMARK    6  A    between atoms: C_24  and  C_25
REMARK    7  A    between atoms: C_25  and  C_26
REMARK    8  A    between atoms: C_28  and  C_29
REMARK    9  A    between atoms: C_32  and  C_33
REMARK                            x       y       z     vdW  Elec       q    Type
REMARK                         _______ _______ _______ _____ _____    ______ ____
ROOT
ATOM      1  O   UNL     1     -36.310  21.783   1.499  0.00  0.00    -0.451 OA
ATOM      2  O   UNL     1     -35.235  20.329   2.922  0.00  0.00    -0.248 OA
ATOM      3  O   UNL     1     -39.127  22.913   2.951  0.00  0.00    -0.275 OA
ATOM      4  O   UNL     1     -38.247  17.993  -0.574  0.00  0.00    -0.273 OA
ATOM      5  O   UNL     1     -41.272  20.651   0.231  0.00  0.00    -0.273 OA
ATOM      6  N   UNL     1     -37.192  19.993  -0.070  0.00  0.00    -0.295 N 
ATOM      7  N   UNL     1     -39.233  23.479   0.698  0.00  0.00    -0.298 N 
ATOM      8  N   UNL     1     -39.402  21.297  -0.977  0.00  0.00    -0.297 N 
ATOM      9  C   UNL     1     -36.203  22.895   2.413  0.00  0.00    +0.178 C 
ATOM     10  C   UNL     1     -36.224  19.478   0.887  0.00  0.00    +0.171 C 
ATOM     11  C   UNL     1     -37.206  23.952   1.939  0.00  0.00    +0.129 C 
ATOM     12  C   UNL     1     -35.869  20.559   1.898  0.00  0.00    +0.335 C 
ATOM     13  C   UNL     1     -40.558  22.936   0.429  0.00  0.00    +0.153 C 
ATOM     14  C   UNL     1     -38.620  23.394   1.940  0.00  0.00    +0.226 C 
ATOM     15  C   UNL     1     -39.112  20.000  -1.578  0.00  0.00    +0.149 C 
ATOM     16  C   UNL     1     -38.178  19.219  -0.658  0.00  0.00    +0.241 C 
ATOM     17  C   UNL     1     -40.430  21.499  -0.069  0.00  0.00    +0.241 C 
ATOM     18  C   UNL     1     -38.482  20.168  -2.951  0.00  0.00    +0.031 C 
ATOM     19  H   UNL     1     -37.144  20.945  -0.314  0.00  0.00    +0.150 HD
ATOM     20  H   UNL     1     -38.752  23.928  -0.033  0.00  0.00    +0.150 HD
ATOM     21  H   UNL     1     -38.843  22.065  -1.230  0.00  0.00    +0.150 HD
ENDROOT
BRANCH   9  22
ATOM     22  C   UNL     1     -34.785  23.454   2.380  0.00  0.00    +0.044 C 
BRANCH  22  23
ATOM     23  C   UNL     1     -34.666  24.718   3.229  0.00  0.00    +0.004 C 
BRANCH  23  24
ATOM     24  C   UNL     1     -34.284  24.382   4.672  0.00  0.00    +0.000 C 
BRANCH  24  25
ATOM     25  C   UNL     1     -35.518  24.014   5.499  0.00  0.00    +0.000 C 
BRANCH  25  26
ATOM     26  C   UNL     1     -35.272  22.856   6.469  0.00  0.00    +0.000 C 
ATOM     27  C   UNL     1     -35.147  21.505   5.782  0.00  0.00    +0.000 C 
ENDBRANCH  25  26
ENDBRANCH  24  25
ENDBRANCH  23  24
ENDBRANCH  22  23
ENDBRANCH   9  22
BRANCH  10  28
ATOM     28  C   UNL     1     -34.969  18.994   0.177  0.00  0.00    +0.031 C 
BRANCH  28  29
ATOM     29  C   UNL     1     -33.665  19.382   0.896  0.00  0.00    +0.002 C 
ATOM     30  C   UNL     1     -32.842  18.161   1.309  0.00  0.00    +0.000 C 
ATOM     31  C   UNL     1     -32.826  20.292  -0.004  0.00  0.00    +0.000 C 
ENDBRANCH  28  29
ENDBRANCH  10  28
BRANCH  13  32
ATOM     32  C   UNL     1     -41.291  23.785  -0.599  0.00  0.00    +0.055 C 
BRANCH  32  33
ATOM     33  C   UNL     1     -42.315  24.683   0.045  0.00  0.00    -0.020 C 
ATOM     34  C   UNL     1     -43.636  24.253   0.173  0.00  0.00    -0.004 C 
ATOM     35  C   UNL     1     -41.943  25.942   0.513  0.00  0.00    -0.004 C 
ATOM     36  C   UNL     1     -44.585  25.083   0.769  0.00  0.00    -0.000 C 
ATOM     37  C   UNL     1     -42.891  26.773   1.110  0.00  0.00    -0.000 C 
ATOM     38  C   UNL     1     -44.212  26.343   1.239  0.00  0.00    -0.000 C 
ENDBRANCH  32  33
ENDBRANCH  13  32
TORSDOF 9
ENDMDL
