MODEL 1
REMARK VINA RESULT:      -6.9      0.000      0.000
REMARK  Name = 507806
REMARK  5 active torsions:
REMARK  status: ('A' for Active; 'I' for Inactive)
REMARK    1  A    between atoms: C_9  and  C_18
REMARK    2  A    between atoms: C_10  and  C_11
REMARK    3  A    between atoms: C_18  and  C_21
REMARK    4  A    between atoms: C_25  and  O_29
REMARK    5  A    between atoms: C_26  and  O_31
REMARK                            x       y       z     vdW  Elec       q    Type
REMARK                         _______ _______ _______ _____ _____    ______ ____
ROOT
ATOM      1  O   UNL     1     -39.377  24.566   0.858  0.00  0.00    -0.266 OA
ATOM      2  O   UNL     1     -35.715  19.442  -1.892  0.00  0.00    -0.270 OA
ATOM      3  N   UNL     1     -37.476  23.186   0.768  0.00  0.00    -0.270 N 
ATOM      4  N   UNL     1     -36.342  20.731  -0.047  0.00  0.00    -0.273 N 
ATOM      5  C   UNL     1     -36.224  22.729   1.385  0.00  0.00    +0.115 C 
ATOM      6  C   UNL     1     -37.725  22.687  -0.585  0.00  0.00    +0.115 C 
ATOM      7  C   UNL     1     -36.117  21.207   1.326  0.00  0.00    +0.115 C 
ATOM      8  C   UNL     1     -37.610  21.166  -0.637  0.00  0.00    +0.115 C 
ATOM      9  C   UNL     1     -38.358  24.090   1.341  0.00  0.00    +0.288 C 
ATOM     10  C   UNL     1     -35.499  19.882  -0.764  0.00  0.00    +0.249 C 
ENDROOT
BRANCH  10  11
ATOM     11  C   UNL     1     -34.231  19.480  -0.143  0.00  0.00    +0.054 C 
ATOM     12  C   UNL     1     -34.142  18.258   0.519  0.00  0.00    +0.005 C 
ATOM     13  C   UNL     1     -33.124  20.321  -0.217  0.00  0.00    +0.005 C 
ATOM     14  C   UNL     1     -32.937  17.875   1.110  0.00  0.00    +0.000 C 
ATOM     15  C   UNL     1     -31.920  19.938   0.374  0.00  0.00    +0.000 C 
ATOM     16  C   UNL     1     -31.826  18.715   1.038  0.00  0.00    +0.000 C 
ENDBRANCH  10  11
BRANCH   9  18
ATOM     17  O   UNL     1     -38.711  24.036   3.596  0.00  0.00    -0.282 OA
ATOM     18  C   UNL     1     -38.027  24.546   2.711  0.00  0.00    +0.250 C 
BRANCH  18  21
ATOM     19  N   UNL     1     -35.757  27.343   2.779  0.00  0.00    -0.308 N 
ATOM     20  N   UNL     1     -33.687  25.937   5.492  0.00  0.00    -0.206 NA
ATOM     21  C   UNL     1     -36.968  25.520   2.966  0.00  0.00    +0.062 C 
ATOM     22  C   UNL     1     -35.930  25.429   3.913  0.00  0.00    +0.058 C 
ATOM     23  C   UNL     1     -35.177  26.596   3.777  0.00  0.00    +0.105 C 
ATOM     24  C   UNL     1     -36.853  26.691   2.281  0.00  0.00    +0.065 C 
ATOM     25  C   UNL     1     -35.542  24.487   4.877  0.00  0.00    +0.159 C 
ATOM     26  C   UNL     1     -34.060  26.848   4.563  0.00  0.00    +0.239 C 
ATOM     27  C   UNL     1     -34.417  24.805   5.626  0.00  0.00    +0.139 C 
ATOM     28  H   UNL     1     -35.434  28.220   2.471  0.00  0.00    +0.152 HD
BRANCH  25  29
ATOM     29  O   UNL     1     -36.215  23.318   5.086  0.00  0.00    -0.470 OA
ATOM     30  C   UNL     1     -35.558  22.326   5.868  0.00  0.00    +0.253 C 
ENDBRANCH  25  29
BRANCH  26  31
ATOM     31  O   UNL     1     -33.312  27.992   4.440  0.00  0.00    -0.455 OA
ATOM     32  C   UNL     1     -32.202  28.126   5.318  0.00  0.00    +0.254 C 
ENDBRANCH  26  31
ENDBRANCH  18  21
ENDBRANCH   9  18
TORSDOF 5
ENDMDL
MODEL 2
REMARK VINA RESULT:      -6.4      1.885      2.929
REMARK  Name = 507806
REMARK  5 active torsions:
REMARK  status: ('A' for Active; 'I' for Inactive)
REMARK    1  A    between atoms: C_9  and  C_18
REMARK    2  A    between atoms: C_10  and  C_11
REMARK    3  A    between atoms: C_18  and  C_21
REMARK    4  A    between atoms: C_25  and  O_29
REMARK    5  A    between atoms: C_26  and  O_31
REMARK                            x       y       z     vdW  Elec       q    Type
REMARK                         _______ _______ _______ _____ _____    ______ ____
ROOT
ATOM      1  O   UNL     1     -38.997  24.213   3.343  0.00  0.00    -0.266 OA
ATOM      2  O   UNL     1     -35.101  19.130   0.852  0.00  0.00    -0.270 OA
ATOM      3  N   UNL     1     -37.124  23.417   2.169  0.00  0.00    -0.270 N 
ATOM      4  N   UNL     1     -35.318  21.294   1.708  0.00  0.00    -0.273 N 
ATOM      5  C   UNL     1     -35.834  23.693   1.521  0.00  0.00    +0.115 C 
ATOM      6  C   UNL     1     -37.635  22.057   1.989  0.00  0.00    +0.115 C 
ATOM      7  C   UNL     1     -34.794  22.650   1.923  0.00  0.00    +0.115 C 
ATOM      8  C   UNL     1     -36.586  21.021   2.386  0.00  0.00    +0.115 C 
ATOM      9  C   UNL     1     -37.888  24.356   2.844  0.00  0.00    +0.288 C 
ATOM     10  C   UNL     1     -34.686  20.280   0.986  0.00  0.00    +0.249 C 
ENDROOT
BRANCH  10  11
ATOM     11  C   UNL     1     -33.423  20.597   0.309  0.00  0.00    +0.054 C 
ATOM     12  C   UNL     1     -32.308  19.787   0.508  0.00  0.00    +0.005 C 
ATOM     13  C   UNL     1     -33.345  21.707  -0.529  0.00  0.00    +0.005 C 
ATOM     14  C   UNL     1     -31.107  20.088  -0.136  0.00  0.00    +0.000 C 
ATOM     15  C   UNL     1     -32.144  22.009  -1.171  0.00  0.00    +0.000 C 
ATOM     16  C   UNL     1     -31.025  21.199  -0.975  0.00  0.00    +0.000 C 
ENDBRANCH  10  11
BRANCH   9  18
ATOM     17  O   UNL     1     -37.801  26.557   2.246  0.00  0.00    -0.282 OA
ATOM     18  C   UNL     1     -37.297  25.707   2.976  0.00  0.00    +0.250 C 
BRANCH  18  21
ATOM     19  N   UNL     1     -35.095  26.105   5.800  0.00  0.00    -0.308 N 
ATOM     20  N   UNL     1     -32.363  27.574   3.800  0.00  0.00    -0.206 NA
ATOM     21  C   UNL     1     -36.207  25.985   3.910  0.00  0.00    +0.062 C 
ATOM     22  C   UNL     1     -34.952  26.550   3.618  0.00  0.00    +0.058 C 
ATOM     23  C   UNL     1     -34.264  26.615   4.831  0.00  0.00    +0.105 C 
ATOM     24  C   UNL     1     -36.285  25.717   5.243  0.00  0.00    +0.065 C 
ATOM     25  C   UNL     1     -34.314  27.015   2.458  0.00  0.00    +0.159 C 
ATOM     26  C   UNL     1     -32.975  27.125   4.921  0.00  0.00    +0.239 C 
ATOM     27  C   UNL     1     -33.028  27.511   2.624  0.00  0.00    +0.139 C 
ATOM     28  H   UNL     1     -34.868  26.027   6.755  0.00  0.00    +0.152 HD
BRANCH  25  29
ATOM     29  O   UNL     1     -34.903  26.991   1.228  0.00  0.00    -0.470 OA
ATOM     30  C   UNL     1     -34.933  28.217   0.502  0.00  0.00    +0.253 C 
ENDBRANCH  25  29
BRANCH  26  31
ATOM     31  O   UNL     1     -32.288  27.194   6.107  0.00  0.00    -0.455 OA
ATOM     32  C   UNL     1     -31.750  28.461   6.460  0.00  0.00    +0.254 C 
ENDBRANCH  26  31
ENDBRANCH  18  21
ENDBRANCH   9  18
TORSDOF 5
ENDMDL
MODEL 3
REMARK VINA RESULT:      -6.3      6.037      9.653
REMARK  Name = 507806
REMARK  5 active torsions:
REMARK  status: ('A' for Active; 'I' for Inactive)
REMARK    1  A    between atoms: C_9  and  C_18
REMARK    2  A    between atoms: C_10  and  C_11
REMARK    3  A    between atoms: C_18  and  C_21
REMARK    4  A    between atoms: C_25  and  O_29
REMARK    5  A    between atoms: C_26  and  O_31
REMARK                            x       y       z     vdW  Elec       q    Type
REMARK                         _______ _______ _______ _____ _____    ______ ____
ROOT
ATOM      1  O   UNL     1     -33.251  33.027   2.389  0.00  0.00    -0.266 OA
ATOM      2  O   UNL     1     -32.384  27.042   5.654  0.00  0.00    -0.270 OA
ATOM      3  N   UNL     1     -33.954  30.865   2.985  0.00  0.00    -0.270 N 
ATOM      4  N   UNL     1     -33.239  28.277   3.864  0.00  0.00    -0.273 N 
ATOM      5  C   UNL     1     -34.897  29.754   2.802  0.00  0.00    +0.115 C 
ATOM      6  C   UNL     1     -33.016  30.711   4.099  0.00  0.00    +0.115 C 
ATOM      7  C   UNL     1     -34.153  28.422   2.722  0.00  0.00    +0.115 C 
ATOM      8  C   UNL     1     -32.283  29.375   4.015  0.00  0.00    +0.115 C 
ATOM      9  C   UNL     1     -33.957  32.037   2.245  0.00  0.00    +0.288 C 
ATOM     10  C   UNL     1     -33.185  27.186   4.732  0.00  0.00    +0.249 C 
ENDROOT
BRANCH  10  11
ATOM     11  C   UNL     1     -34.171  26.112   4.555  0.00  0.00    +0.054 C 
ATOM     12  C   UNL     1     -35.353  26.129   5.291  0.00  0.00    +0.005 C 
ATOM     13  C   UNL     1     -33.919  25.081   3.653  0.00  0.00    +0.005 C 
ATOM     14  C   UNL     1     -36.290  25.109   5.123  0.00  0.00    +0.000 C 
ATOM     15  C   UNL     1     -34.855  24.061   3.486  0.00  0.00    +0.000 C 
ATOM     16  C   UNL     1     -36.041  24.074   4.220  0.00  0.00    +0.000 C 
ENDBRANCH  10  11
BRANCH   9  18
ATOM     17  O   UNL     1     -34.576  31.568   0.098  0.00  0.00    -0.282 OA
ATOM     18  C   UNL     1     -34.940  32.110   1.140  0.00  0.00    +0.250 C 
BRANCH  18  21
ATOM     19  N   UNL     1     -38.369  33.038   1.742  0.00  0.00    -0.308 N 
ATOM     20  N   UNL     1     -37.846  36.579   0.841  0.00  0.00    -0.206 NA
ATOM     21  C   UNL     1     -36.234  32.770   1.300  0.00  0.00    +0.062 C 
ATOM     22  C   UNL     1     -36.539  34.125   1.072  0.00  0.00    +0.058 C 
ATOM     23  C   UNL     1     -37.897  34.272   1.360  0.00  0.00    +0.105 C 
ATOM     24  C   UNL     1     -37.357  32.116   1.708  0.00  0.00    +0.065 C 
ATOM     25  C   UNL     1     -35.815  35.252   0.655  0.00  0.00    +0.159 C 
ATOM     26  C   UNL     1     -38.547  35.493   1.244  0.00  0.00    +0.239 C 
ATOM     27  C   UNL     1     -36.530  36.439   0.562  0.00  0.00    +0.139 C 
ATOM     28  H   UNL     1     -39.298  32.846   2.004  0.00  0.00    +0.152 HD
BRANCH  25  29
ATOM     29  O   UNL     1     -34.485  35.209   0.353  0.00  0.00    -0.470 OA
ATOM     30  C   UNL     1     -33.657  36.210   0.939  0.00  0.00    +0.253 C 
ENDBRANCH  25  29
BRANCH  26  31
ATOM     31  O   UNL     1     -39.881  35.650   1.525  0.00  0.00    -0.455 OA
ATOM     32  C   UNL     1     -40.231  35.804   2.894  0.00  0.00    +0.254 C 
ENDBRANCH  26  31
ENDBRANCH  18  21
ENDBRANCH   9  18
TORSDOF 5
ENDMDL
MODEL 4
REMARK VINA RESULT:      -6.3      2.466      3.411
REMARK  Name = 507806
REMARK  5 active torsions:
REMARK  status: ('A' for Active; 'I' for Inactive)
REMARK    1  A    between atoms: C_9  and  C_18
REMARK    2  A    between atoms: C_10  and  C_11
REMARK    3  A    between atoms: C_18  and  C_21
REMARK    4  A    between atoms: C_25  and  O_29
REMARK    5  A    between atoms: C_26  and  O_31
REMARK                            x       y       z     vdW  Elec       q    Type
REMARK                         _______ _______ _______ _____ _____    ______ ____
ROOT
ATOM      1  O   UNL     1     -41.127  20.866   0.056  0.00  0.00    -0.266 OA
ATOM      2  O   UNL     1     -35.523  17.261  -1.627  0.00  0.00    -0.270 OA
ATOM      3  N   UNL     1     -38.802  20.526   0.046  0.00  0.00    -0.270 N 
ATOM      4  N   UNL     1     -36.655  18.704  -0.177  0.00  0.00    -0.273 N 
ATOM      5  C   UNL     1     -37.472  20.913   0.535  0.00  0.00    +0.115 C 
ATOM      6  C   UNL     1     -38.808  19.526  -1.023  0.00  0.00    +0.115 C 
ATOM      7  C   UNL     1     -36.659  19.680   0.922  0.00  0.00    +0.115 C 
ATOM      8  C   UNL     1     -37.987  18.301  -0.631  0.00  0.00    +0.115 C 
ATOM      9  C   UNL     1     -39.996  21.090   0.468  0.00  0.00    +0.288 C 
ATOM     10  C   UNL     1     -35.522  18.118  -0.744  0.00  0.00    +0.249 C 
ENDROOT
BRANCH  10  11
ATOM     11  C   UNL     1     -34.205  18.560  -0.270  0.00  0.00    +0.054 C 
ATOM     12  C   UNL     1     -33.627  19.709  -0.802  0.00  0.00    +0.005 C 
ATOM     13  C   UNL     1     -33.538  17.826   0.708  0.00  0.00    +0.005 C 
ATOM     14  C   UNL     1     -32.375  20.130  -0.352  0.00  0.00    +0.000 C 
ATOM     15  C   UNL     1     -32.286  18.246   1.158  0.00  0.00    +0.000 C 
ATOM     16  C   UNL     1     -31.704  19.398   0.628  0.00  0.00    +0.000 C 
ENDBRANCH  10  11
BRANCH   9  18
ATOM     17  O   UNL     1     -40.086  21.646   2.680  0.00  0.00    -0.282 OA
ATOM     18  C   UNL     1     -39.898  22.095   1.551  0.00  0.00    +0.250 C 
BRANCH  18  21
ATOM     19  N   UNL     1     -39.737  25.499   0.383  0.00  0.00    -0.308 N 
ATOM     20  N   UNL     1     -36.880  26.385   2.546  0.00  0.00    -0.206 NA
ATOM     21  C   UNL     1     -39.595  23.498   1.278  0.00  0.00    +0.062 C 
ATOM     22  C   UNL     1     -38.584  24.286   1.859  0.00  0.00    +0.058 C 
ATOM     23  C   UNL     1     -38.694  25.550   1.278  0.00  0.00    +0.105 C 
ATOM     24  C   UNL     1     -40.292  24.247   0.379  0.00  0.00    +0.065 C 
ATOM     25  C   UNL     1     -37.584  24.072   2.819  0.00  0.00    +0.159 C 
ATOM     26  C   UNL     1     -37.845  26.594   1.620  0.00  0.00    +0.239 C 
ATOM     27  C   UNL     1     -36.773  25.160   3.111  0.00  0.00    +0.139 C 
ATOM     28  H   UNL     1     -40.041  26.253  -0.172  0.00  0.00    +0.152 HD
BRANCH  25  29
ATOM     29  O   UNL     1     -37.399  22.873   3.444  0.00  0.00    -0.470 OA
ATOM     30  C   UNL     1     -36.082  22.580   3.902  0.00  0.00    +0.253 C 
ENDBRANCH  25  29
BRANCH  26  31
ATOM     31  O   UNL     1     -37.943  27.842   1.056  0.00  0.00    -0.455 OA
ATOM     32  C   UNL     1     -36.722  28.512   0.772  0.00  0.00    +0.254 C 
ENDBRANCH  26  31
ENDBRANCH  18  21
ENDBRANCH   9  18
TORSDOF 5
ENDMDL
MODEL 5
REMARK VINA RESULT:      -6.3      5.181     10.128
REMARK  Name = 507806
REMARK  5 active torsions:
REMARK  status: ('A' for Active; 'I' for Inactive)
REMARK    1  A    between atoms: C_9  and  C_18
REMARK    2  A    between atoms: C_10  and  C_11
REMARK    3  A    between atoms: C_18  and  C_21
REMARK    4  A    between atoms: C_25  and  O_29
REMARK    5  A    between atoms: C_26  and  O_31
REMARK                            x       y       z     vdW  Elec       q    Type
REMARK                         _______ _______ _______ _____ _____    ______ ____
ROOT
ATOM      1  O   UNL     1     -33.336  28.853   0.737  0.00  0.00    -0.266 OA
ATOM      2  O   UNL     1     -36.626  34.612  -1.065  0.00  0.00    -0.270 OA
ATOM      3  N   UNL     1     -35.090  30.401   0.963  0.00  0.00    -0.270 N 
ATOM      4  N   UNL     1     -36.020  33.036   0.551  0.00  0.00    -0.273 N 
ATOM      5  C   UNL     1     -36.251  30.885   1.723  0.00  0.00    +0.115 C 
ATOM      6  C   UNL     1     -34.876  31.051  -0.331  0.00  0.00    +0.115 C 
ATOM      7  C   UNL     1     -36.207  32.404   1.865  0.00  0.00    +0.115 C 
ATOM      8  C   UNL     1     -34.841  32.569  -0.181  0.00  0.00    +0.115 C 
ATOM      9  C   UNL     1     -34.271  29.352   1.351  0.00  0.00    +0.288 C 
ATOM     10  C   UNL     1     -36.816  34.046   0.011  0.00  0.00    +0.249 C 
ENDROOT
BRANCH  10  11
ATOM     11  C   UNL     1     -37.996  34.477   0.770  0.00  0.00    +0.054 C 
ATOM     12  C   UNL     1     -37.918  35.595   1.597  0.00  0.00    +0.005 C 
ATOM     13  C   UNL     1     -39.189  33.766   0.660  0.00  0.00    +0.005 C 
ATOM     14  C   UNL     1     -39.039  36.005   2.318  0.00  0.00    +0.000 C 
ATOM     15  C   UNL     1     -40.310  34.176   1.383  0.00  0.00    +0.000 C 
ATOM     16  C   UNL     1     -40.235  35.295   2.211  0.00  0.00    +0.000 C 
ENDBRANCH  10  11
BRANCH   9  18
ATOM     17  O   UNL     1     -34.094  29.368   3.627  0.00  0.00    -0.282 OA
ATOM     18  C   UNL     1     -34.561  28.750   2.672  0.00  0.00    +0.250 C 
BRANCH  18  21
ATOM     19  N   UNL     1     -36.860  25.991   2.381  0.00  0.00    -0.308 N 
ATOM     20  N   UNL     1     -35.535  24.229   5.341  0.00  0.00    -0.206 NA
ATOM     21  C   UNL     1     -35.346  27.524   2.807  0.00  0.00    +0.062 C 
ATOM     22  C   UNL     1     -35.214  26.526   3.790  0.00  0.00    +0.058 C 
ATOM     23  C   UNL     1     -36.183  25.564   3.499  0.00  0.00    +0.105 C 
ATOM     24  C   UNL     1     -36.352  27.189   1.953  0.00  0.00    +0.065 C 
ATOM     25  C   UNL     1     -34.379  26.324   4.898  0.00  0.00    +0.159 C 
ATOM     26  C   UNL     1     -36.342  24.421   4.272  0.00  0.00    +0.239 C 
ATOM     27  C   UNL     1     -34.595  25.160   5.624  0.00  0.00    +0.139 C 
ATOM     28  H   UNL     1     -37.600  25.505   1.950  0.00  0.00    +0.152 HD
BRANCH  25  29
ATOM     29  O   UNL     1     -33.403  27.205   5.262  0.00  0.00    -0.470 OA
ATOM     30  C   UNL     1     -32.869  27.073   6.576  0.00  0.00    +0.253 C 
ENDBRANCH  25  29
BRANCH  26  31
ATOM     31  O   UNL     1     -37.290  23.467   3.995  0.00  0.00    -0.455 OA
ATOM     32  C   UNL     1     -36.949  22.494   3.016  0.00  0.00    +0.254 C 
ENDBRANCH  26  31
ENDBRANCH  18  21
ENDBRANCH   9  18
TORSDOF 5
ENDMDL
MODEL 6
REMARK VINA RESULT:      -6.2      4.782      7.246
REMARK  Name = 507806
REMARK  5 active torsions:
REMARK  status: ('A' for Active; 'I' for Inactive)
REMARK    1  A    between atoms: C_9  and  C_18
REMARK    2  A    between atoms: C_10  and  C_11
REMARK    3  A    between atoms: C_18  and  C_21
REMARK    4  A    between atoms: C_25  and  O_29
REMARK    5  A    between atoms: C_26  and  O_31
REMARK                            x       y       z     vdW  Elec       q    Type
REMARK                         _______ _______ _______ _____ _____    ______ ____
ROOT
ATOM      1  O   UNL     1     -40.625  26.064  -0.575  0.00  0.00    -0.266 OA
ATOM      2  O   UNL     1     -34.614  23.483   1.533  0.00  0.00    -0.270 OA
ATOM      3  N   UNL     1     -39.185  25.250   1.094  0.00  0.00    -0.270 N 
ATOM      4  N   UNL     1     -36.934  23.673   1.748  0.00  0.00    -0.273 N 
ATOM      5  C   UNL     1     -38.991  24.808   2.482  0.00  0.00    +0.115 C 
ATOM      6  C   UNL     1     -37.962  25.368   0.299  0.00  0.00    +0.115 C 
ATOM      7  C   UNL     1     -38.170  23.521   2.529  0.00  0.00    +0.115 C 
ATOM      8  C   UNL     1     -37.144  24.081   0.357  0.00  0.00    +0.115 C 
ATOM      9  C   UNL     1     -40.402  25.622   0.544  0.00  0.00    +0.288 C 
ATOM     10  C   UNL     1     -35.643  23.407   2.205  0.00  0.00    +0.249 C 
ENDROOT
BRANCH  10  11
ATOM     11  C   UNL     1     -35.473  23.014   3.609  0.00  0.00    +0.054 C 
ATOM     12  C   UNL     1     -35.419  21.665   3.948  0.00  0.00    +0.005 C 
ATOM     13  C   UNL     1     -35.367  23.992   4.595  0.00  0.00    +0.005 C 
ATOM     14  C   UNL     1     -35.258  21.291   5.283  0.00  0.00    +0.000 C 
ATOM     15  C   UNL     1     -35.207  23.618   5.929  0.00  0.00    +0.000 C 
ATOM     16  C   UNL     1     -35.152  22.267   6.273  0.00  0.00    +0.000 C 
ENDBRANCH  10  11
BRANCH   9  18
ATOM     17  O   UNL     1     -42.133  24.374   1.354  0.00  0.00    -0.282 OA
ATOM     18  C   UNL     1     -41.588  25.473   1.420  0.00  0.00    +0.250 C 
BRANCH  18  21
ATOM     19  N   UNL     1     -42.259  27.815   4.074  0.00  0.00    -0.308 N 
ATOM     20  N   UNL     1     -44.627  29.814   2.070  0.00  0.00    -0.206 NA
ATOM     21  C   UNL     1     -42.049  26.556   2.287  0.00  0.00    +0.062 C 
ATOM     22  C   UNL     1     -42.963  27.577   1.970  0.00  0.00    +0.058 C 
ATOM     23  C   UNL     1     -43.080  28.364   3.117  0.00  0.00    +0.105 C 
ATOM     24  C   UNL     1     -41.625  26.710   3.572  0.00  0.00    +0.065 C 
ATOM     25  C   UNL     1     -43.708  27.929   0.835  0.00  0.00    +0.159 C 
ATOM     26  C   UNL     1     -43.909  29.477   3.166  0.00  0.00    +0.239 C 
ATOM     27  C   UNL     1     -44.515  29.053   0.956  0.00  0.00    +0.139 C 
ATOM     28  H   UNL     1     -42.142  28.167   4.986  0.00  0.00    +0.152 HD
BRANCH  25  29
ATOM     29  O   UNL     1     -43.660  27.225  -0.333  0.00  0.00    -0.470 OA
ATOM     30  C   UNL     1     -44.622  26.188  -0.502  0.00  0.00    +0.253 C 
ENDBRANCH  25  29
BRANCH  26  31
ATOM     31  O   UNL     1     -44.032  30.258   4.287  0.00  0.00    -0.455 OA
ATOM     32  C   UNL     1     -45.054  29.897   5.208  0.00  0.00    +0.254 C 
ENDBRANCH  26  31
ENDBRANCH  18  21
ENDBRANCH   9  18
TORSDOF 5
ENDMDL
MODEL 7
REMARK VINA RESULT:      -6.2      2.700      8.767
REMARK  Name = 507806
REMARK  5 active torsions:
REMARK  status: ('A' for Active; 'I' for Inactive)
REMARK    1  A    between atoms: C_9  and  C_18
REMARK    2  A    between atoms: C_10  and  C_11
REMARK    3  A    between atoms: C_18  and  C_21
REMARK    4  A    between atoms: C_25  and  O_29
REMARK    5  A    between atoms: C_26  and  O_31
REMARK                            x       y       z     vdW  Elec       q    Type
REMARK                         _______ _______ _______ _____ _____    ______ ____
ROOT
ATOM      1  O   UNL     1     -36.827  19.022  -0.003  0.00  0.00    -0.266 OA
ATOM      2  O   UNL     1     -38.192  24.422   4.023  0.00  0.00    -0.270 OA
ATOM      3  N   UNL     1     -36.162  20.831   1.342  0.00  0.00    -0.270 N 
ATOM      4  N   UNL     1     -36.818  23.333   2.477  0.00  0.00    -0.273 N 
ATOM      5  C   UNL     1     -35.089  21.705   1.834  0.00  0.00    +0.115 C 
ATOM      6  C   UNL     1     -37.463  21.015   1.988  0.00  0.00    +0.115 C 
ATOM      7  C   UNL     1     -35.525  23.168   1.798  0.00  0.00    +0.115 C 
ATOM      8  C   UNL     1     -37.888  22.480   1.955  0.00  0.00    +0.115 C 
ATOM      9  C   UNL     1     -35.998  19.829   0.398  0.00  0.00    +0.288 C 
ATOM     10  C   UNL     1     -37.095  24.248   3.493  0.00  0.00    +0.249 C 
ENDROOT
BRANCH  10  11
ATOM     11  C   UNL     1     -35.992  25.075   3.998  0.00  0.00    +0.054 C 
ATOM     12  C   UNL     1     -35.638  26.242   3.326  0.00  0.00    +0.005 C 
ATOM     13  C   UNL     1     -35.305  24.689   5.146  0.00  0.00    +0.005 C 
ATOM     14  C   UNL     1     -34.590  27.029   3.806  0.00  0.00    +0.000 C 
ATOM     15  C   UNL     1     -34.257  25.475   5.625  0.00  0.00    +0.000 C 
ATOM     16  C   UNL     1     -33.900  26.646   4.955  0.00  0.00    +0.000 C 
ENDBRANCH  10  11
BRANCH   9  18
ATOM     17  O   UNL     1     -34.361  20.611  -0.988  0.00  0.00    -0.282 OA
ATOM     18  C   UNL     1     -34.649  19.711  -0.202  0.00  0.00    +0.250 C 
BRANCH  18  21
ATOM     19  N   UNL     1     -32.219  17.451   1.202  0.00  0.00    -0.308 N 
ATOM     20  N   UNL     1     -32.785  14.840  -1.344  0.00  0.00    -0.206 NA
ATOM     21  C   UNL     1     -33.749  18.609   0.132  0.00  0.00    +0.062 C 
ATOM     22  C   UNL     1     -33.600  17.387  -0.550  0.00  0.00    +0.058 C 
ATOM     23  C   UNL     1     -32.627  16.669   0.146  0.00  0.00    +0.105 C 
ATOM     24  C   UNL     1     -32.903  18.638   1.199  0.00  0.00    +0.065 C 
ATOM     25  C   UNL     1     -34.183  16.802  -1.684  0.00  0.00    +0.159 C 
ATOM     26  C   UNL     1     -32.221  15.402  -0.250  0.00  0.00    +0.239 C 
ATOM     27  C   UNL     1     -33.729  15.534  -2.021  0.00  0.00    +0.139 C 
ATOM     28  H   UNL     1     -31.538  17.195   1.864  0.00  0.00    +0.152 HD
BRANCH  25  29
ATOM     29  O   UNL     1     -35.143  17.423  -2.428  0.00  0.00    -0.470 OA
ATOM     30  C   UNL     1     -34.710  18.104  -3.602  0.00  0.00    +0.253 C 
ENDBRANCH  25  29
BRANCH  26  31
ATOM     31  O   UNL     1     -31.265  14.686   0.427  0.00  0.00    -0.455 OA
ATOM     32  C   UNL     1     -29.931  14.791  -0.052  0.00  0.00    +0.254 C 
ENDBRANCH  26  31
ENDBRANCH  18  21
ENDBRANCH   9  18
TORSDOF 5
ENDMDL
MODEL 8
REMARK VINA RESULT:      -6.2      1.631      2.020
REMARK  Name = 507806
REMARK  5 active torsions:
REMARK  status: ('A' for Active; 'I' for Inactive)
REMARK    1  A    between atoms: C_9  and  C_18
REMARK    2  A    between atoms: C_10  and  C_11
REMARK    3  A    between atoms: C_18  and  C_21
REMARK    4  A    between atoms: C_25  and  O_29
REMARK    5  A    between atoms: C_26  and  O_31
REMARK                            x       y       z     vdW  Elec       q    Type
REMARK                         _______ _______ _______ _____ _____    ______ ____
ROOT
ATOM      1  O   UNL     1     -39.220  23.317   2.405  0.00  0.00    -0.266 OA
ATOM      2  O   UNL     1     -35.635  18.161  -0.387  0.00  0.00    -0.270 OA
ATOM      3  N   UNL     1     -37.202  22.302   1.760  0.00  0.00    -0.270 N 
ATOM      4  N   UNL     1     -35.816  19.919   1.143  0.00  0.00    -0.273 N 
ATOM      5  C   UNL     1     -35.733  22.292   1.789  0.00  0.00    +0.115 C 
ATOM      6  C   UNL     1     -37.815  21.317   0.868  0.00  0.00    +0.115 C 
ATOM      7  C   UNL     1     -35.208  20.885   2.069  0.00  0.00    +0.115 C 
ATOM      8  C   UNL     1     -37.280  19.915   1.149  0.00  0.00    +0.115 C 
ATOM      9  C   UNL     1     -38.001  23.207   2.439  0.00  0.00    +0.288 C 
ATOM     10  C   UNL     1     -35.124  19.006   0.346  0.00  0.00    +0.249 C 
ENDROOT
BRANCH  10  11
ATOM     11  C   UNL     1     -33.656  19.050   0.359  0.00  0.00    +0.054 C 
ATOM     12  C   UNL     1     -32.941  18.106   1.090  0.00  0.00    +0.005 C 
ATOM     13  C   UNL     1     -32.986  20.037  -0.360  0.00  0.00    +0.005 C 
ATOM     14  C   UNL     1     -31.547  18.148   1.103  0.00  0.00    +0.000 C 
ATOM     15  C   UNL     1     -31.592  20.079  -0.347  0.00  0.00    +0.000 C 
ATOM     16  C   UNL     1     -30.872  19.134   0.384  0.00  0.00    +0.000 C 
ENDBRANCH  10  11
BRANCH   9  18
ATOM     17  O   UNL     1     -37.077  23.757   4.453  0.00  0.00    -0.282 OA
ATOM     18  C   UNL     1     -37.298  24.171   3.317  0.00  0.00    +0.250 C 
BRANCH  18  21
ATOM     19  N   UNL     1     -37.048  27.480   1.913  0.00  0.00    -0.308 N 
ATOM     20  N   UNL     1     -33.498  27.890   2.835  0.00  0.00    -0.206 NA
ATOM     21  C   UNL     1     -36.901  25.497   2.847  0.00  0.00    +0.062 C 
ATOM     22  C   UNL     1     -35.639  26.107   2.966  0.00  0.00    +0.058 C 
ATOM     23  C   UNL     1     -35.756  27.362   2.369  0.00  0.00    +0.105 C 
ATOM     24  C   UNL     1     -37.753  26.342   2.204  0.00  0.00    +0.065 C 
ATOM     25  C   UNL     1     -34.403  25.737   3.517  0.00  0.00    +0.159 C 
ATOM     26  C   UNL     1     -34.689  28.250   2.303  0.00  0.00    +0.239 C 
ATOM     27  C   UNL     1     -33.383  26.673   3.416  0.00  0.00    +0.139 C 
ATOM     28  H   UNL     1     -37.413  28.267   1.448  0.00  0.00    +0.152 HD
BRANCH  25  29
ATOM     29  O   UNL     1     -34.191  24.533   4.124  0.00  0.00    -0.470 OA
ATOM     30  C   UNL     1     -34.070  24.537   5.543  0.00  0.00    +0.253 C 
ENDBRANCH  25  29
BRANCH  26  31
ATOM     31  O   UNL     1     -34.792  29.487   1.719  0.00  0.00    -0.455 OA
ATOM     32  C   UNL     1     -35.121  30.572   2.577  0.00  0.00    +0.254 C 
ENDBRANCH  26  31
ENDBRANCH  18  21
ENDBRANCH   9  18
TORSDOF 5
ENDMDL
MODEL 9
REMARK VINA RESULT:      -6.1      3.939      8.800
REMARK  Name = 507806
REMARK  5 active torsions:
REMARK  status: ('A' for Active; 'I' for Inactive)
REMARK    1  A    between atoms: C_9  and  C_18
REMARK    2  A    between atoms: C_10  and  C_11
REMARK    3  A    between atoms: C_18  and  C_21
REMARK    4  A    between atoms: C_25  and  O_29
REMARK    5  A    between atoms: C_26  and  O_31
REMARK                            x       y       z     vdW  Elec       q    Type
REMARK                         _______ _______ _______ _____ _____    ______ ____
ROOT
ATOM      1  O   UNL     1     -33.449  27.492   1.161  0.00  0.00    -0.266 OA
ATOM      2  O   UNL     1     -26.991  28.735   3.158  0.00  0.00    -0.270 OA
ATOM      3  N   UNL     1     -31.871  28.312   2.698  0.00  0.00    -0.270 N 
ATOM      4  N   UNL     1     -29.219  28.242   3.667  0.00  0.00    -0.273 N 
ATOM      5  C   UNL     1     -31.577  28.842   4.036  0.00  0.00    +0.115 C 
ATOM      6  C   UNL     1     -30.754  28.344   1.753  0.00  0.00    +0.115 C 
ATOM      7  C   UNL     1     -30.335  28.172   4.620  0.00  0.00    +0.115 C 
ATOM      8  C   UNL     1     -29.515  27.680   2.348  0.00  0.00    +0.115 C 
ATOM      9  C   UNL     1     -33.118  27.877   2.275  0.00  0.00    +0.288 C 
ATOM     10  C   UNL     1     -27.940  28.727   3.942  0.00  0.00    +0.249 C 
ENDROOT
BRANCH  10  11
ATOM     11  C   UNL     1     -27.687  29.295   5.271  0.00  0.00    +0.054 C 
ATOM     12  C   UNL     1     -27.341  28.456   6.328  0.00  0.00    +0.005 C 
ATOM     13  C   UNL     1     -27.794  30.669   5.471  0.00  0.00    +0.005 C 
ATOM     14  C   UNL     1     -27.100  28.995   7.592  0.00  0.00    +0.000 C 
ATOM     15  C   UNL     1     -27.554  31.208   6.736  0.00  0.00    +0.000 C 
ATOM     16  C   UNL     1     -27.207  30.371   7.796  0.00  0.00    +0.000 C 
ENDBRANCH  10  11
BRANCH   9  18
ATOM     17  O   UNL     1     -34.814  28.938   3.375  0.00  0.00    -0.282 OA
ATOM     18  C   UNL     1     -34.192  27.880   3.295  0.00  0.00    +0.250 C 
BRANCH  18  21
ATOM     19  N   UNL     1     -34.409  25.329   5.830  0.00  0.00    -0.308 N 
ATOM     20  N   UNL     1     -36.767  23.243   3.904  0.00  0.00    -0.206 NA
ATOM     21  C   UNL     1     -34.476  26.710   4.122  0.00  0.00    +0.062 C 
ATOM     22  C   UNL     1     -35.321  25.627   3.815  0.00  0.00    +0.058 C 
ATOM     23  C   UNL     1     -35.264  24.766   4.912  0.00  0.00    +0.105 C 
ATOM     24  C   UNL     1     -33.925  26.518   5.353  0.00  0.00    +0.065 C 
ATOM     25  C   UNL     1     -36.134  25.277   2.727  0.00  0.00    +0.159 C 
ATOM     26  C   UNL     1     -35.984  23.579   4.955  0.00  0.00    +0.239 C 
ATOM     27  C   UNL     1     -36.824  24.078   2.840  0.00  0.00    +0.139 C 
ATOM     28  H   UNL     1     -34.181  24.937   6.703  0.00  0.00    +0.152 HD
BRANCH  25  29
ATOM     29  O   UNL     1     -36.257  26.054   1.612  0.00  0.00    -0.470 OA
ATOM     30  C   UNL     1     -37.349  26.968   1.579  0.00  0.00    +0.253 C 
ENDBRANCH  25  29
BRANCH  26  31
ATOM     31  O   UNL     1     -35.937  22.724   6.028  0.00  0.00    -0.455 OA
ATOM     32  C   UNL     1     -34.929  21.722   6.001  0.00  0.00    +0.254 C 
ENDBRANCH  26  31
ENDBRANCH  18  21
ENDBRANCH   9  18
TORSDOF 5
ENDMDL
