MODEL 1
REMARK VINA RESULT:      -6.3      0.000      0.000
REMARK  Name = 60712
REMARK  3 active torsions:
REMARK  status: ('A' for Active; 'I' for Inactive)
REMARK    1  A    between atoms: C_7  and  C_19
REMARK    2  A    between atoms: C_8  and  O_16
REMARK    3  A    between atoms: C_19  and  C_21
REMARK                            x       y       z     vdW  Elec       q    Type
REMARK                         _______ _______ _______ _____ _____    ______ ____
ROOT
ATOM      1 CL   UNL     1     -33.851  26.162  -0.834  0.00  0.00    -0.082 Cl
ATOM      2  O   UNL     1     -35.599  24.353   5.618  0.00  0.00    -0.249 OA
ATOM      3  N   UNL     1     -35.381  22.914   3.850  0.00  0.00    -0.234 N 
ATOM      4  N   UNL     1     -35.979  22.097   5.951  0.00  0.00    -0.311 N 
ATOM      5  C   UNL     1     -34.835  23.178   1.661  0.00  0.00    +0.025 A 
ATOM      6  C   UNL     1     -35.026  23.858   2.871  0.00  0.00    +0.071 A 
ATOM      7  C   UNL     1     -35.075  21.808   1.906  0.00  0.00    +0.093 A 
ATOM      8  C   UNL     1     -35.404  21.673   3.232  0.00  0.00    +0.213 A 
ATOM      9  C   UNL     1     -34.468  23.899   0.505  0.00  0.00    +0.013 C 
ATOM     10  C   UNL     1     -34.856  25.256   2.937  0.00  0.00    +0.019 C 
ATOM     11  C   UNL     1     -34.300  25.282   0.576  0.00  0.00    +0.058 C 
ATOM     12  C   UNL     1     -34.493  25.950   1.778  0.00  0.00    +0.013 C 
ATOM     13  C   UNL     1     -35.657  23.203   5.205  0.00  0.00    +0.319 C 
ATOM     14  H   UNL     1     -36.189  22.192   6.908  0.00  0.00    +0.147 HD
ATOM     15  H   UNL     1     -35.999  21.207   5.529  0.00  0.00    +0.147 HD
ENDROOT
BRANCH   8  16
ATOM     16  O   UNL     1     -35.705  20.556   3.886  0.00  0.00    -0.493 OA
ATOM     17  H   UNL     1     -35.249  19.762   3.692  0.00  0.00    +0.294 HD
ENDBRANCH   8  16
BRANCH   7  19
ATOM     18  O   UNL     1     -35.971  20.400   0.260  0.00  0.00    -0.286 OA
ATOM     19  C   UNL     1     -35.001  20.719   0.971  0.00  0.00    +0.206 C 
BRANCH  19  21
ATOM     20  S   UNL     1     -32.509  20.644  -0.092  0.00  0.00    -0.083 S 
ATOM     21  C   UNL     1     -33.725  19.977   0.870  0.00  0.00    +0.069 C 
ATOM     22  C   UNL     1     -33.415  18.812   1.466  0.00  0.00    +0.010 C 
ATOM     23  C   UNL     1     -32.089  18.419   1.122  0.00  0.00    +0.008 C 
ATOM     24  C   UNL     1     -31.482  19.325   0.280  0.00  0.00    +0.036 C 
ENDBRANCH  19  21
ENDBRANCH   7  19
TORSDOF 3
ENDMDL
MODEL 2
REMARK VINA RESULT:      -6.2      3.443      5.758
REMARK  Name = 60712
REMARK  3 active torsions:
REMARK  status: ('A' for Active; 'I' for Inactive)
REMARK    1  A    between atoms: C_7  and  C_19
REMARK    2  A    between atoms: C_8  and  O_16
REMARK    3  A    between atoms: C_19  and  C_21
REMARK                            x       y       z     vdW  Elec       q    Type
REMARK                         _______ _______ _______ _____ _____    ______ ____
ROOT
ATOM      1 CL   UNL     1     -33.416  18.928   1.503  0.00  0.00    -0.082 Cl
ATOM      2  O   UNL     1     -39.724  21.497   0.253  0.00  0.00    -0.249 OA
ATOM      3  N   UNL     1     -38.289  22.233   1.879  0.00  0.00    -0.234 N 
ATOM      4  N   UNL     1     -40.377  23.241   1.623  0.00  0.00    -0.311 N 
ATOM      5  C   UNL     1     -36.202  21.623   2.536  0.00  0.00    +0.025 A 
ATOM      6  C   UNL     1     -37.231  21.344   1.625  0.00  0.00    +0.071 A 
ATOM      7  C   UNL     1     -36.639  22.690   3.350  0.00  0.00    +0.093 A 
ATOM      8  C   UNL     1     -37.900  23.041   2.937  0.00  0.00    +0.213 A 
ATOM      9  C   UNL     1     -35.011  20.867   2.496  0.00  0.00    +0.013 C 
ATOM     10  C   UNL     1     -37.082  20.315   0.675  0.00  0.00    +0.019 C 
ATOM     11  C   UNL     1     -34.869  19.849   1.552  0.00  0.00    +0.058 C 
ATOM     12  C   UNL     1     -35.892  19.578   0.654  0.00  0.00    +0.013 C 
ATOM     13  C   UNL     1     -39.512  22.275   1.173  0.00  0.00    +0.319 C 
ATOM     14  H   UNL     1     -41.257  23.351   1.196  0.00  0.00    +0.147 HD
ATOM     15  H   UNL     1     -40.117  23.824   2.373  0.00  0.00    +0.147 HD
ENDROOT
BRANCH   8  16
ATOM     16  O   UNL     1     -38.681  23.997   3.429  0.00  0.00    -0.493 OA
ATOM     17  H   UNL     1     -39.380  23.777   4.013  0.00  0.00    +0.294 HD
ENDBRANCH   8  16
BRANCH   7  19
ATOM     18  O   UNL     1     -35.998  22.903   5.594  0.00  0.00    -0.286 OA
ATOM     19  C   UNL     1     -35.930  23.325   4.426  0.00  0.00    +0.206 C 
BRANCH  19  21
ATOM     20  S   UNL     1     -34.950  25.698   5.296  0.00  0.00    -0.083 S 
ATOM     21  C   UNL     1     -35.101  24.509   4.108  0.00  0.00    +0.069 C 
ATOM     22  C   UNL     1     -34.440  24.752   2.962  0.00  0.00    +0.010 C 
ATOM     23  C   UNL     1     -33.754  25.999   3.042  0.00  0.00    +0.008 C 
ATOM     24  C   UNL     1     -33.947  26.618   4.257  0.00  0.00    +0.036 C 
ENDBRANCH  19  21
ENDBRANCH   7  19
TORSDOF 3
ENDMDL
MODEL 3
REMARK VINA RESULT:      -6.0      4.875      5.736
REMARK  Name = 60712
REMARK  3 active torsions:
REMARK  status: ('A' for Active; 'I' for Inactive)
REMARK    1  A    between atoms: C_7  and  C_19
REMARK    2  A    between atoms: C_8  and  O_16
REMARK    3  A    between atoms: C_19  and  C_21
REMARK                            x       y       z     vdW  Elec       q    Type
REMARK                         _______ _______ _______ _____ _____    ______ ____
ROOT
ATOM      1 CL   UNL     1     -34.819  21.592   6.179  0.00  0.00    -0.082 Cl
ATOM      2  O   UNL     1     -34.117  27.865   3.332  0.00  0.00    -0.249 OA
ATOM      3  N   UNL     1     -35.978  26.540   3.180  0.00  0.00    -0.234 N 
ATOM      4  N   UNL     1     -35.947  28.630   2.144  0.00  0.00    -0.311 N 
ATOM      5  C   UNL     1     -36.519  24.483   3.977  0.00  0.00    +0.025 A 
ATOM      6  C   UNL     1     -35.506  25.452   3.933  0.00  0.00    +0.071 A 
ATOM      7  C   UNL     1     -37.614  24.987   3.243  0.00  0.00    +0.093 A 
ATOM      8  C   UNL     1     -37.266  26.228   2.771  0.00  0.00    +0.213 A 
ATOM      9  C   UNL     1     -36.302  23.278   4.679  0.00  0.00    +0.013 C 
ATOM     10  C   UNL     1     -34.277  25.227   4.584  0.00  0.00    +0.019 C 
ATOM     11  C   UNL     1     -35.083  23.062   5.322  0.00  0.00    +0.058 C 
ATOM     12  C   UNL     1     -34.085  24.025   5.274  0.00  0.00    +0.013 C 
ATOM     13  C   UNL     1     -35.254  27.722   2.904  0.00  0.00    +0.319 C 
ATOM     14  H   UNL     1     -35.529  29.487   1.897  0.00  0.00    +0.147 HD
ATOM     15  H   UNL     1     -36.863  28.425   1.845  0.00  0.00    +0.147 HD
ENDROOT
BRANCH   8  16
ATOM     16  O   UNL     1     -38.000  27.054   2.034  0.00  0.00    -0.493 OA
ATOM     17  H   UNL     1     -38.631  27.613   2.444  0.00  0.00    +0.294 HD
ENDBRANCH   8  16
BRANCH   7  19
ATOM     18  O   UNL     1     -39.907  24.688   3.628  0.00  0.00    -0.286 OA
ATOM     19  C   UNL     1     -38.882  24.354   3.007  0.00  0.00    +0.206 C 
BRANCH  19  21
ATOM     20  S   UNL     1     -38.156  23.551   0.522  0.00  0.00    -0.083 S 
ATOM     21  C   UNL     1     -38.944  23.280   1.990  0.00  0.00    +0.069 C 
ATOM     22  C   UNL     1     -39.564  22.092   2.101  0.00  0.00    +0.010 C 
ATOM     23  C   UNL     1     -39.394  21.333   0.907  0.00  0.00    +0.008 C 
ATOM     24  C   UNL     1     -38.649  22.008  -0.034  0.00  0.00    +0.036 C 
ENDBRANCH  19  21
ENDBRANCH   7  19
TORSDOF 3
ENDMDL
MODEL 4
REMARK VINA RESULT:      -6.0      3.738      5.660
REMARK  Name = 60712
REMARK  3 active torsions:
REMARK  status: ('A' for Active; 'I' for Inactive)
REMARK    1  A    between atoms: C_7  and  C_19
REMARK    2  A    between atoms: C_8  and  O_16
REMARK    3  A    between atoms: C_19  and  C_21
REMARK                            x       y       z     vdW  Elec       q    Type
REMARK                         _______ _______ _______ _____ _____    ______ ____
ROOT
ATOM      1 CL   UNL     1     -40.641  26.250   2.820  0.00  0.00    -0.082 Cl
ATOM      2  O   UNL     1     -38.263  20.247   0.318  0.00  0.00    -0.249 OA
ATOM      3  N   UNL     1     -37.308  21.447   2.018  0.00  0.00    -0.234 N 
ATOM      4  N   UNL     1     -36.346  19.439   1.324  0.00  0.00    -0.311 N 
ATOM      5  C   UNL     1     -37.824  23.403   3.051  0.00  0.00    +0.025 A 
ATOM      6  C   UNL     1     -38.224  22.512   2.046  0.00  0.00    +0.071 A 
ATOM      7  C   UNL     1     -36.654  22.875   3.639  0.00  0.00    +0.093 A 
ATOM      8  C   UNL     1     -36.361  21.696   3.000  0.00  0.00    +0.213 A 
ATOM      9  C   UNL     1     -38.580  24.570   3.291  0.00  0.00    +0.013 C 
ATOM     10  C   UNL     1     -39.374  22.778   1.276  0.00  0.00    +0.019 C 
ATOM     11  C   UNL     1     -39.718  24.827   2.526  0.00  0.00    +0.058 C 
ATOM     12  C   UNL     1     -40.108  23.941   1.532  0.00  0.00    +0.013 C 
ATOM     13  C   UNL     1     -37.365  20.340   1.142  0.00  0.00    +0.319 C 
ATOM     14  H   UNL     1     -36.295  18.632   0.762  0.00  0.00    +0.147 HD
ATOM     15  H   UNL     1     -35.664  19.599   2.017  0.00  0.00    +0.147 HD
ENDROOT
BRANCH   8  16
ATOM     16  O   UNL     1     -35.346  20.872   3.237  0.00  0.00    -0.493 OA
ATOM     17  H   UNL     1     -35.497  20.052   3.664  0.00  0.00    +0.294 HD
ENDBRANCH   8  16
BRANCH   7  19
ATOM     18  O   UNL     1     -35.937  22.979   5.868  0.00  0.00    -0.286 OA
ATOM     19  C   UNL     1     -35.878  23.433   4.712  0.00  0.00    +0.206 C 
BRANCH  19  21
ATOM     20  S   UNL     1     -34.730  25.713   5.625  0.00  0.00    -0.083 S 
ATOM     21  C   UNL     1     -34.990  24.576   4.405  0.00  0.00    +0.069 C 
ATOM     22  C   UNL     1     -34.352  24.820   3.245  0.00  0.00    +0.010 C 
ATOM     23  C   UNL     1     -33.590  26.020   3.343  0.00  0.00    +0.008 C 
ATOM     24  C   UNL     1     -33.707  26.608   4.584  0.00  0.00    +0.036 C 
ENDBRANCH  19  21
ENDBRANCH   7  19
TORSDOF 3
ENDMDL
MODEL 5
REMARK VINA RESULT:      -5.8      2.978      5.103
REMARK  Name = 60712
REMARK  3 active torsions:
REMARK  status: ('A' for Active; 'I' for Inactive)
REMARK    1  A    between atoms: C_7  and  C_19
REMARK    2  A    between atoms: C_8  and  O_16
REMARK    3  A    between atoms: C_19  and  C_21
REMARK                            x       y       z     vdW  Elec       q    Type
REMARK                         _______ _______ _______ _____ _____    ______ ____
ROOT
ATOM      1 CL   UNL     1     -32.372  25.350   0.276  0.00  0.00    -0.082 Cl
ATOM      2  O   UNL     1     -34.938  18.955  -0.405  0.00  0.00    -0.249 OA
ATOM      3  N   UNL     1     -35.789  20.588   0.957  0.00  0.00    -0.234 N 
ATOM      4  N   UNL     1     -36.809  18.492   0.872  0.00  0.00    -0.311 N 
ATOM      5  C   UNL     1     -35.200  22.736   1.400  0.00  0.00    +0.025 A 
ATOM      6  C   UNL     1     -34.861  21.598   0.654  0.00  0.00    +0.071 A 
ATOM      7  C   UNL     1     -36.344  22.413   2.163  0.00  0.00    +0.093 A 
ATOM      8  C   UNL     1     -36.680  21.113   1.880  0.00  0.00    +0.213 A 
ATOM      9  C   UNL     1     -34.421  23.907   1.281  0.00  0.00    +0.013 C 
ATOM     10  C   UNL     1     -33.749  21.619  -0.211  0.00  0.00    +0.019 C 
ATOM     11  C   UNL     1     -33.321  23.921   0.423  0.00  0.00    +0.058 C 
ATOM     12  C   UNL     1     -32.991  22.791  -0.312  0.00  0.00    +0.013 C 
ATOM     13  C   UNL     1     -35.791  19.286   0.407  0.00  0.00    +0.319 C 
ATOM     14  H   UNL     1     -36.898  17.566   0.550  0.00  0.00    +0.147 HD
ATOM     15  H   UNL     1     -37.452  18.848   1.528  0.00  0.00    +0.147 HD
ENDROOT
BRANCH   8  16
ATOM     16  O   UNL     1     -37.691  20.408   2.377  0.00  0.00    -0.493 OA
ATOM     17  H   UNL     1     -38.017  19.664   1.910  0.00  0.00    +0.294 HD
ENDBRANCH   8  16
BRANCH   7  19
ATOM     18  O   UNL     1     -38.298  23.357   3.048  0.00  0.00    -0.286 OA
ATOM     19  C   UNL     1     -37.058  23.257   3.080  0.00  0.00    +0.206 C 
BRANCH  19  21
ATOM     20  S   UNL     1     -36.519  25.683   4.163  0.00  0.00    -0.083 S 
ATOM     21  C   UNL     1     -36.275  24.015   4.081  0.00  0.00    +0.069 C 
ATOM     22  C   UNL     1     -35.375  23.521   4.950  0.00  0.00    +0.010 C 
ATOM     23  C   UNL     1     -34.834  24.569   5.750  0.00  0.00    +0.008 C 
ATOM     24  C   UNL     1     -35.369  25.796   5.427  0.00  0.00    +0.036 C 
ENDBRANCH  19  21
ENDBRANCH   7  19
TORSDOF 3
ENDMDL
MODEL 6
REMARK VINA RESULT:      -5.8      1.707      1.753
REMARK  Name = 60712
REMARK  3 active torsions:
REMARK  status: ('A' for Active; 'I' for Inactive)
REMARK    1  A    between atoms: C_7  and  C_19
REMARK    2  A    between atoms: C_8  and  O_16
REMARK    3  A    between atoms: C_19  and  C_21
REMARK                            x       y       z     vdW  Elec       q    Type
REMARK                         _______ _______ _______ _____ _____    ______ ____
ROOT
ATOM      1 CL   UNL     1     -37.324  24.504  -2.138  0.00  0.00    -0.082 Cl
ATOM      2  O   UNL     1     -36.722  24.438   4.760  0.00  0.00    -0.249 OA
ATOM      3  N   UNL     1     -36.220  22.691   3.368  0.00  0.00    -0.234 N 
ATOM      4  N   UNL     1     -35.944  22.462   5.673  0.00  0.00    -0.311 N 
ATOM      5  C   UNL     1     -36.303  22.393   1.118  0.00  0.00    +0.025 A 
ATOM      6  C   UNL     1     -36.543  23.312   2.150  0.00  0.00    +0.071 A 
ATOM      7  C   UNL     1     -35.830  21.204   1.715  0.00  0.00    +0.093 A 
ATOM      8  C   UNL     1     -35.789  21.406   3.072  0.00  0.00    +0.213 A 
ATOM      9  C   UNL     1     -36.547  22.768  -0.221  0.00  0.00    +0.013 C 
ATOM     10  C   UNL     1     -37.028  24.602   1.856  0.00  0.00    +0.019 C 
ATOM     11  C   UNL     1     -37.027  24.047  -0.505  0.00  0.00    +0.058 C 
ATOM     12  C   UNL     1     -37.263  24.950   0.521  0.00  0.00    +0.013 C 
ATOM     13  C   UNL     1     -36.324  23.287   4.645  0.00  0.00    +0.319 C 
ATOM     14  H   UNL     1     -35.980  22.784   6.602  0.00  0.00    +0.147 HD
ATOM     15  H   UNL     1     -35.635  21.546   5.481  0.00  0.00    +0.147 HD
ENDROOT
BRANCH   8  16
ATOM     16  O   UNL     1     -35.405  20.549   4.011  0.00  0.00    -0.493 OA
ATOM     17  H   UNL     1     -35.311  19.639   3.805  0.00  0.00    +0.294 HD
ENDBRANCH   8  16
BRANCH   7  19
ATOM     18  O   UNL     1     -36.295  19.162   0.663  0.00  0.00    -0.286 OA
ATOM     19  C   UNL     1     -35.449  19.982   1.063  0.00  0.00    +0.206 C 
BRANCH  19  21
ATOM     20  S   UNL     1     -33.117  20.848  -0.012  0.00  0.00    -0.083 S 
ATOM     21  C   UNL     1     -34.006  19.718   0.871  0.00  0.00    +0.069 C 
ATOM     22  C   UNL     1     -33.307  18.664   1.327  0.00  0.00    +0.010 C 
ATOM     23  C   UNL     1     -31.940  18.770   0.936  0.00  0.00    +0.008 C 
ATOM     24  C   UNL     1     -31.700  19.911   0.202  0.00  0.00    +0.036 C 
ENDBRANCH  19  21
ENDBRANCH   7  19
TORSDOF 3
ENDMDL
MODEL 7
REMARK VINA RESULT:      -5.7      2.838      3.868
REMARK  Name = 60712
REMARK  3 active torsions:
REMARK  status: ('A' for Active; 'I' for Inactive)
REMARK    1  A    between atoms: C_7  and  C_19
REMARK    2  A    between atoms: C_8  and  O_16
REMARK    3  A    between atoms: C_19  and  C_21
REMARK                            x       y       z     vdW  Elec       q    Type
REMARK                         _______ _______ _______ _____ _____    ______ ____
ROOT
ATOM      1 CL   UNL     1     -35.556  21.828   6.564  0.00  0.00    -0.082 Cl
ATOM      2  O   UNL     1     -34.165  27.367   2.647  0.00  0.00    -0.249 OA
ATOM      3  N   UNL     1     -34.588  25.258   1.861  0.00  0.00    -0.234 N 
ATOM      4  N   UNL     1     -34.141  26.992   0.366  0.00  0.00    -0.311 N 
ATOM      5  C   UNL     1     -35.068  23.272   2.853  0.00  0.00    +0.025 A 
ATOM      6  C   UNL     1     -34.783  24.623   3.099  0.00  0.00    +0.071 A 
ATOM      7  C   UNL     1     -35.044  23.085   1.454  0.00  0.00    +0.093 A 
ATOM      8  C   UNL     1     -34.752  24.296   0.876  0.00  0.00    +0.213 A 
ATOM      9  C   UNL     1     -35.309  22.401   3.937  0.00  0.00    +0.013 C 
ATOM     10  C   UNL     1     -34.736  25.111   4.420  0.00  0.00    +0.019 C 
ATOM     11  C   UNL     1     -35.261  22.891   5.242  0.00  0.00    +0.058 C 
ATOM     12  C   UNL     1     -34.978  24.229   5.478  0.00  0.00    +0.013 C 
ATOM     13  C   UNL     1     -34.282  26.626   1.681  0.00  0.00    +0.319 C 
ATOM     14  H   UNL     1     -33.927  27.925   0.135  0.00  0.00    +0.147 HD
ATOM     15  H   UNL     1     -34.255  26.322  -0.347  0.00  0.00    +0.147 HD
ENDROOT
BRANCH   8  16
ATOM     16  O   UNL     1     -34.632  24.572  -0.418  0.00  0.00    -0.493 OA
ATOM     17  H   UNL     1     -34.732  23.891  -1.054  0.00  0.00    +0.294 HD
ENDBRANCH   8  16
BRANCH   7  19
ATOM     18  O   UNL     1     -36.296  21.710   0.028  0.00  0.00    -0.286 OA
ATOM     19  C   UNL     1     -35.277  21.870   0.723  0.00  0.00    +0.206 C 
BRANCH  19  21
ATOM     20  S   UNL     1     -32.860  20.972  -0.112  0.00  0.00    -0.083 S 
ATOM     21  C   UNL     1     -34.260  20.799   0.814  0.00  0.00    +0.069 C 
ATOM     22  C   UNL     1     -34.321  19.684   1.563  0.00  0.00    +0.010 C 
ATOM     23  C   UNL     1     -33.145  18.900   1.380  0.00  0.00    +0.008 C 
ATOM     24  C   UNL     1     -32.267  19.484   0.494  0.00  0.00    +0.036 C 
ENDBRANCH  19  21
ENDBRANCH   7  19
TORSDOF 3
ENDMDL
MODEL 8
REMARK VINA RESULT:      -5.7      2.629      3.351
REMARK  Name = 60712
REMARK  3 active torsions:
REMARK  status: ('A' for Active; 'I' for Inactive)
REMARK    1  A    between atoms: C_7  and  C_19
REMARK    2  A    between atoms: C_8  and  O_16
REMARK    3  A    between atoms: C_19  and  C_21
REMARK                            x       y       z     vdW  Elec       q    Type
REMARK                         _______ _______ _______ _____ _____    ______ ____
ROOT
ATOM      1 CL   UNL     1     -32.777  23.734  -1.460  0.00  0.00    -0.082 Cl
ATOM      2  O   UNL     1     -35.112  27.452   3.896  0.00  0.00    -0.249 OA
ATOM      3  N   UNL     1     -35.371  25.191   3.637  0.00  0.00    -0.234 N 
ATOM      4  N   UNL     1     -36.235  26.255   5.524  0.00  0.00    -0.311 N 
ATOM      5  C   UNL     1     -34.741  23.705   2.038  0.00  0.00    +0.025 A 
ATOM      6  C   UNL     1     -34.707  25.058   2.406  0.00  0.00    +0.071 A 
ATOM      7  C   UNL     1     -35.433  23.011   3.055  0.00  0.00    +0.093 A 
ATOM      8  C   UNL     1     -35.804  23.927   4.008  0.00  0.00    +0.213 A 
ATOM      9  C   UNL     1     -34.138  23.294   0.831  0.00  0.00    +0.013 C 
ATOM     10  C   UNL     1     -34.075  26.005   1.575  0.00  0.00    +0.019 C 
ATOM     11  C   UNL     1     -33.514  24.236   0.013  0.00  0.00    +0.058 C 
ATOM     12  C   UNL     1     -33.485  25.574   0.382  0.00  0.00    +0.013 C 
ATOM     13  C   UNL     1     -35.550  26.401   4.344  0.00  0.00    +0.319 C 
ATOM     14  H   UNL     1     -36.413  27.040   6.091  0.00  0.00    +0.147 HD
ATOM     15  H   UNL     1     -36.550  25.365   5.803  0.00  0.00    +0.147 HD
ENDROOT
BRANCH   8  16
ATOM     16  O   UNL     1     -36.473  23.705   5.134  0.00  0.00    -0.493 OA
ATOM     17  H   UNL     1     -36.009  23.605   5.942  0.00  0.00    +0.294 HD
ENDBRANCH   8  16
BRANCH   7  19
ATOM     18  O   UNL     1     -35.332  20.903   4.075  0.00  0.00    -0.286 OA
ATOM     19  C   UNL     1     -35.720  21.605   3.124  0.00  0.00    +0.206 C 
BRANCH  19  21
ATOM     20  S   UNL     1     -38.030  21.645   1.707  0.00  0.00    -0.083 S 
ATOM     21  C   UNL     1     -36.502  21.001   2.023  0.00  0.00    +0.069 C 
ATOM     22  C   UNL     1     -36.131  19.981   1.228  0.00  0.00    +0.010 C 
ATOM     23  C   UNL     1     -37.160  19.690   0.285  0.00  0.00    +0.008 C 
ATOM     24  C   UNL     1     -38.249  20.520   0.435  0.00  0.00    +0.036 C 
ENDBRANCH  19  21
ENDBRANCH   7  19
TORSDOF 3
ENDMDL
MODEL 9
REMARK VINA RESULT:      -5.7      2.741      5.100
REMARK  Name = 60712
REMARK  3 active torsions:
REMARK  status: ('A' for Active; 'I' for Inactive)
REMARK    1  A    between atoms: C_7  and  C_19
REMARK    2  A    between atoms: C_8  and  O_16
REMARK    3  A    between atoms: C_19  and  C_21
REMARK                            x       y       z     vdW  Elec       q    Type
REMARK                         _______ _______ _______ _____ _____    ______ ____
ROOT
ATOM      1 CL   UNL     1     -31.588  25.004  -0.908  0.00  0.00    -0.082 Cl
ATOM      2  O   UNL     1     -35.298  19.494   1.049  0.00  0.00    -0.249 OA
ATOM      3  N   UNL     1     -35.600  21.634   1.807  0.00  0.00    -0.234 N 
ATOM      4  N   UNL     1     -36.964  19.914   2.595  0.00  0.00    -0.311 N 
ATOM      5  C   UNL     1     -34.580  23.618   1.377  0.00  0.00    +0.025 A 
ATOM      6  C   UNL     1     -34.580  22.251   1.063  0.00  0.00    +0.071 A 
ATOM      7  C   UNL     1     -35.608  23.832   2.320  0.00  0.00    +0.093 A 
ATOM      8  C   UNL     1     -36.209  22.622   2.565  0.00  0.00    +0.213 A 
ATOM      9  C   UNL     1     -33.644  24.475   0.761  0.00  0.00    +0.013 C 
ATOM     10  C   UNL     1     -33.651  21.733   0.138  0.00  0.00    +0.019 C 
ATOM     11  C   UNL     1     -32.728  23.957  -0.155  0.00  0.00    +0.058 C 
ATOM     12  C   UNL     1     -32.733  22.603  -0.460  0.00  0.00    +0.013 C 
ATOM     13  C   UNL     1     -35.923  20.259   1.770  0.00  0.00    +0.319 C 
ATOM     14  H   UNL     1     -37.267  18.979   2.641  0.00  0.00    +0.147 HD
ATOM     15  H   UNL     1     -37.409  20.603   3.140  0.00  0.00    +0.147 HD
ENDROOT
BRANCH   8  16
ATOM     16  O   UNL     1     -37.222  22.368   3.387  0.00  0.00    -0.493 OA
ATOM     17  H   UNL     1     -37.165  22.610   4.290  0.00  0.00    +0.294 HD
ENDBRANCH   8  16
BRANCH   7  19
ATOM     18  O   UNL     1     -37.017  25.685   2.592  0.00  0.00    -0.286 OA
ATOM     19  C   UNL     1     -35.993  25.070   2.939  0.00  0.00    +0.206 C 
BRANCH  19  21
ATOM     20  S   UNL     1     -34.069  26.856   3.617  0.00  0.00    -0.083 S 
ATOM     21  C   UNL     1     -35.130  25.606   4.016  0.00  0.00    +0.069 C 
ATOM     22  C   UNL     1     -35.093  25.206   5.299  0.00  0.00    +0.010 C 
ATOM     23  C   UNL     1     -34.132  25.967   6.026  0.00  0.00    +0.008 C 
ATOM     24  C   UNL     1     -33.502  26.899   5.232  0.00  0.00    +0.036 C 
ENDBRANCH  19  21
ENDBRANCH   7  19
TORSDOF 3
ENDMDL
