MODEL 1
REMARK VINA RESULT:      -6.0      0.000      0.000
REMARK  Name = 192682
REMARK  6 active torsions:
REMARK  status: ('A' for Active; 'I' for Inactive)
REMARK    1  A    between atoms: C_5  and  C_22
REMARK    2  A    between atoms: C_9  and  N_14
REMARK    3  A    between atoms: C_15  and  C_17
REMARK    4  A    between atoms: C_17  and  N_18
REMARK    5  A    between atoms: C_22  and  C_24
REMARK    6  A    between atoms: C_24  and  O_25
REMARK                            x       y       z     vdW  Elec       q    Type
REMARK                         _______ _______ _______ _____ _____    ______ ____
ROOT
ATOM      1  O   UNL     1     -34.866  24.546   5.834  0.00  0.00    -0.421 OA
ATOM      2  O   UNL     1     -36.153  22.677   5.894  0.00  0.00    -0.245 OA
ATOM      3  C   UNL     1     -34.393  25.641   3.713  0.00  0.00    +0.031 A 
ATOM      4  C   UNL     1     -35.210  24.621   3.024  0.00  0.00    -0.016 A 
ATOM      5  C   UNL     1     -35.768  23.623   3.742  0.00  0.00    +0.061 A 
ATOM      6  C   UNL     1     -34.251  25.569   5.096  0.00  0.00    +0.150 A 
ATOM      7  C   UNL     1     -33.731  26.691   3.057  0.00  0.00    +0.004 C 
ATOM      8  C   UNL     1     -33.497  26.492   5.825  0.00  0.00    +0.052 C 
ATOM      9  C   UNL     1     -32.854  27.526   5.154  0.00  0.00    +0.053 C 
ATOM     10  C   UNL     1     -35.623  23.559   5.224  0.00  0.00    +0.342 A 
ATOM     11  C   UNL     1     -35.380  24.776   1.533  0.00  0.00    +0.031 C 
ATOM     12  C   UNL     1     -32.970  27.625   3.770  0.00  0.00    +0.015 C 
ENDROOT
BRANCH   9  14
ATOM     13  O   UNL     1     -29.892  27.676   5.615  0.00  0.00    -0.277 OA
ATOM     14  N   UNL     1     -32.096  28.458   5.864  0.00  0.00    -0.286 N 
ATOM     15  C   UNL     1     -30.703  28.487   6.050  0.00  0.00    +0.204 C 
ATOM     16  H   UNL     1     -32.601  29.188   6.288  0.00  0.00    +0.155 HD
BRANCH  15  17
ATOM     17  C   UNL     1     -30.293  29.683   6.893  0.00  0.00    +0.001 C 
BRANCH  17  18
ATOM     18  N   UNL     1     -29.321  29.262   7.891  0.00  0.00    +0.386 N 
ATOM     19  H   UNL     1     -29.807  28.828   8.676  0.00  0.00    -0.089 HD
ATOM     20  H   UNL     1     -28.800  30.074   8.221  0.00  0.00    -0.089 HD
ATOM     21  H   UNL     1     -28.677  28.590   7.476  0.00  0.00    -0.089 HD
ENDBRANCH  17  18
ENDBRANCH  15  17
ENDBRANCH   9  14
BRANCH   5  22
ATOM     22  C   UNL     1     -36.568  22.486   3.159  0.00  0.00    +0.142 C 
BRANCH  22  24
ATOM     23  O   UNL     1     -35.050  21.241   1.701  0.00  0.00    -0.250 OA
ATOM     24  C   UNL     1     -35.648  21.369   2.759  0.00  0.00    +0.318 C 
BRANCH  24  25
ATOM     25  O   UNL     1     -35.570  20.473   3.778  0.00  0.00    -0.480 OA
ATOM     26  H   UNL     1     -35.249  19.607   3.616  0.00  0.00    +0.295 HD
ENDBRANCH  24  25
ENDBRANCH  22  24
ENDBRANCH   5  22
TORSDOF 6
ENDMDL
MODEL 2
REMARK VINA RESULT:      -6.0      5.132      8.164
REMARK  Name = 192682
REMARK  6 active torsions:
REMARK  status: ('A' for Active; 'I' for Inactive)
REMARK    1  A    between atoms: C_5  and  C_22
REMARK    2  A    between atoms: C_9  and  N_14
REMARK    3  A    between atoms: C_15  and  C_17
REMARK    4  A    between atoms: C_17  and  N_18
REMARK    5  A    between atoms: C_22  and  C_24
REMARK    6  A    between atoms: C_24  and  O_25
REMARK                            x       y       z     vdW  Elec       q    Type
REMARK                         _______ _______ _______ _____ _____    ______ ____
ROOT
ATOM      1  O   UNL     1     -35.517  21.116   4.147  0.00  0.00    -0.421 OA
ATOM      2  O   UNL     1     -35.734  22.355   6.037  0.00  0.00    -0.245 OA
ATOM      3  C   UNL     1     -34.954  22.187   2.036  0.00  0.00    +0.031 A 
ATOM      4  C   UNL     1     -34.909  23.491   2.729  0.00  0.00    -0.016 A 
ATOM      5  C   UNL     1     -35.196  23.551   4.047  0.00  0.00    +0.061 A 
ATOM      6  C   UNL     1     -35.256  21.044   2.770  0.00  0.00    +0.150 A 
ATOM      7  C   UNL     1     -34.720  22.021   0.662  0.00  0.00    +0.004 C 
ATOM      8  C   UNL     1     -35.319  19.772   2.193  0.00  0.00    +0.052 C 
ATOM      9  C   UNL     1     -35.078  19.631   0.832  0.00  0.00    +0.053 C 
ATOM     10  C   UNL     1     -35.504  22.321   4.831  0.00  0.00    +0.342 A 
ATOM     11  C   UNL     1     -34.522  24.691   1.902  0.00  0.00    +0.031 C 
ATOM     12  C   UNL     1     -34.780  20.755   0.066  0.00  0.00    +0.015 C 
ENDROOT
BRANCH   9  14
ATOM     13  O   UNL     1     -33.034  17.435   0.724  0.00  0.00    -0.277 OA
ATOM     14  N   UNL     1     -35.137  18.371   0.236  0.00  0.00    -0.286 N 
ATOM     15  C   UNL     1     -34.149  17.370   0.215  0.00  0.00    +0.204 C 
ATOM     16  H   UNL     1     -35.977  18.155  -0.228  0.00  0.00    +0.155 HD
BRANCH  15  17
ATOM     17  C   UNL     1     -34.631  16.149  -0.548  0.00  0.00    +0.001 C 
BRANCH  17  18
ATOM     18  N   UNL     1     -35.473  15.337   0.318  0.00  0.00    +0.386 N 
ATOM     19  H   UNL     1     -36.114  15.942   0.832  0.00  0.00    -0.089 HD
ATOM     20  H   UNL     1     -34.888  14.825   0.977  0.00  0.00    -0.089 HD
ATOM     21  H   UNL     1     -36.006  14.678  -0.247  0.00  0.00    -0.089 HD
ENDBRANCH  17  18
ENDBRANCH  15  17
ENDBRANCH   9  14
BRANCH   5  22
ATOM     22  C   UNL     1     -35.250  24.820   4.860  0.00  0.00    +0.142 C 
BRANCH  22  24
ATOM     23  O   UNL     1     -37.624  24.924   4.285  0.00  0.00    -0.250 OA
ATOM     24  C   UNL     1     -36.619  25.428   4.764  0.00  0.00    +0.318 C 
BRANCH  24  25
ATOM     25  O   UNL     1     -36.589  26.675   5.304  0.00  0.00    -0.480 OA
ATOM     26  H   UNL     1     -37.106  26.870   6.062  0.00  0.00    +0.295 HD
ENDBRANCH  24  25
ENDBRANCH  22  24
ENDBRANCH   5  22
TORSDOF 6
ENDMDL
MODEL 3
REMARK VINA RESULT:      -5.8      2.007      2.844
REMARK  Name = 192682
REMARK  6 active torsions:
REMARK  status: ('A' for Active; 'I' for Inactive)
REMARK    1  A    between atoms: C_5  and  C_22
REMARK    2  A    between atoms: C_9  and  N_14
REMARK    3  A    between atoms: C_15  and  C_17
REMARK    4  A    between atoms: C_17  and  N_18
REMARK    5  A    between atoms: C_22  and  C_24
REMARK    6  A    between atoms: C_24  and  O_25
REMARK                            x       y       z     vdW  Elec       q    Type
REMARK                         _______ _______ _______ _____ _____    ______ ____
ROOT
ATOM      1  O   UNL     1     -34.206  24.614   2.077  0.00  0.00    -0.421 OA
ATOM      2  O   UNL     1     -34.805  22.999   0.599  0.00  0.00    -0.245 OA
ATOM      3  C   UNL     1     -34.628  24.319   4.455  0.00  0.00    +0.031 A 
ATOM      4  C   UNL     1     -35.214  22.993   4.169  0.00  0.00    -0.016 A 
ATOM      5  C   UNL     1     -35.300  22.568   2.890  0.00  0.00    +0.061 A 
ATOM      6  C   UNL     1     -34.143  25.083   3.398  0.00  0.00    +0.150 A 
ATOM      7  C   UNL     1     -34.534  24.874   5.741  0.00  0.00    +0.004 C 
ATOM      8  C   UNL     1     -33.573  26.346   3.581  0.00  0.00    +0.052 C 
ATOM      9  C   UNL     1     -33.487  26.874   4.864  0.00  0.00    +0.053 C 
ATOM     10  C   UNL     1     -34.765  23.386   1.764  0.00  0.00    +0.342 A 
ATOM     11  C   UNL     1     -35.673  22.179   5.353  0.00  0.00    +0.031 C 
ATOM     12  C   UNL     1     -33.968  26.139   5.944  0.00  0.00    +0.015 C 
ENDROOT
BRANCH   9  14
ATOM     13  O   UNL     1     -30.899  27.656   6.168  0.00  0.00    -0.277 OA
ATOM     14  N   UNL     1     -32.922  28.133   5.068  0.00  0.00    -0.286 N 
ATOM     15  C   UNL     1     -31.700  28.451   5.685  0.00  0.00    +0.204 C 
ATOM     16  H   UNL     1     -33.447  28.897   4.737  0.00  0.00    +0.155 HD
BRANCH  15  17
ATOM     17  C   UNL     1     -31.471  29.952   5.695  0.00  0.00    +0.001 C 
BRANCH  17  18
ATOM     18  N   UNL     1     -32.688  30.631   5.273  0.00  0.00    +0.386 N 
ATOM     19  H   UNL     1     -32.488  31.618   5.113  0.00  0.00    -0.089 HD
ATOM     20  H   UNL     1     -33.396  30.541   6.002  0.00  0.00    -0.089 HD
ATOM     21  H   UNL     1     -33.031  30.208   4.412  0.00  0.00    -0.089 HD
ENDBRANCH  17  18
ENDBRANCH  15  17
ENDBRANCH   9  14
BRANCH   5  22
ATOM     22  C   UNL     1     -35.931  21.271   2.454  0.00  0.00    +0.142 C 
BRANCH  22  24
ATOM     23  O   UNL     1     -38.091  22.408   2.581  0.00  0.00    -0.250 OA
ATOM     24  C   UNL     1     -37.397  21.476   2.204  0.00  0.00    +0.318 C 
BRANCH  24  25
ATOM     25  O   UNL     1     -37.873  20.434   1.472  0.00  0.00    -0.480 OA
ATOM     26  H   UNL     1     -37.825  19.563   1.813  0.00  0.00    +0.295 HD
ENDBRANCH  24  25
ENDBRANCH  22  24
ENDBRANCH   5  22
TORSDOF 6
ENDMDL
MODEL 4
REMARK VINA RESULT:      -5.8      4.938      8.290
REMARK  Name = 192682
REMARK  6 active torsions:
REMARK  status: ('A' for Active; 'I' for Inactive)
REMARK    1  A    between atoms: C_5  and  C_22
REMARK    2  A    between atoms: C_9  and  N_14
REMARK    3  A    between atoms: C_15  and  C_17
REMARK    4  A    between atoms: C_17  and  N_18
REMARK    5  A    between atoms: C_22  and  C_24
REMARK    6  A    between atoms: C_24  and  O_25
REMARK                            x       y       z     vdW  Elec       q    Type
REMARK                         _______ _______ _______ _____ _____    ______ ____
ROOT
ATOM      1  O   UNL     1     -37.929  23.651   2.664  0.00  0.00    -0.421 OA
ATOM      2  O   UNL     1     -38.421  25.753   3.367  0.00  0.00    -0.245 OA
ATOM      3  C   UNL     1     -36.006  22.472   3.576  0.00  0.00    +0.031 A 
ATOM      4  C   UNL     1     -35.717  23.641   4.432  0.00  0.00    -0.016 A 
ATOM      5  C   UNL     1     -36.498  24.738   4.342  0.00  0.00    +0.061 A 
ATOM      6  C   UNL     1     -37.104  22.518   2.722  0.00  0.00    +0.150 A 
ATOM      7  C   UNL     1     -35.230  21.302   3.557  0.00  0.00    +0.004 C 
ATOM      8  C   UNL     1     -37.448  21.456   1.880  0.00  0.00    +0.052 C 
ATOM      9  C   UNL     1     -36.668  20.306   1.883  0.00  0.00    +0.053 C 
ATOM     10  C   UNL     1     -37.681  24.775   3.435  0.00  0.00    +0.342 A 
ATOM     11  C   UNL     1     -34.551  23.520   5.381  0.00  0.00    +0.031 C 
ATOM     12  C   UNL     1     -35.559  20.229   2.720  0.00  0.00    +0.015 C 
ENDROOT
BRANCH   9  14
ATOM     13  O   UNL     1     -35.579  19.534  -0.806  0.00  0.00    -0.277 OA
ATOM     14  N   UNL     1     -36.994  19.236   1.049  0.00  0.00    -0.286 N 
ATOM     15  C   UNL     1     -36.452  18.913  -0.207  0.00  0.00    +0.204 C 
ATOM     16  H   UNL     1     -37.694  18.630   1.383  0.00  0.00    +0.155 HD
BRANCH  15  17
ATOM     17  C   UNL     1     -37.097  17.659  -0.771  0.00  0.00    +0.001 C 
BRANCH  17  18
ATOM     18  N   UNL     1     -37.514  16.794   0.324  0.00  0.00    +0.386 N 
ATOM     19  H   UNL     1     -38.452  17.056   0.625  0.00  0.00    -0.089 HD
ATOM     20  H   UNL     1     -36.865  16.898   1.104  0.00  0.00    -0.089 HD
ATOM     21  H   UNL     1     -37.515  15.825   0.009  0.00  0.00    -0.089 HD
ENDBRANCH  17  18
ENDBRANCH  15  17
ENDBRANCH   9  14
BRANCH   5  22
ATOM     22  C   UNL     1     -36.277  26.018   5.107  0.00  0.00    +0.142 C 
BRANCH  22  24
ATOM     23  O   UNL     1     -34.063  26.997   4.767  0.00  0.00    -0.250 OA
ATOM     24  C   UNL     1     -35.226  26.845   4.425  0.00  0.00    +0.318 C 
BRANCH  24  25
ATOM     25  O   UNL     1     -35.768  27.432   3.325  0.00  0.00    -0.480 OA
ATOM     26  H   UNL     1     -35.739  28.365   3.231  0.00  0.00    +0.295 HD
ENDBRANCH  24  25
ENDBRANCH  22  24
ENDBRANCH   5  22
TORSDOF 6
ENDMDL
MODEL 5
REMARK VINA RESULT:      -5.6      2.530      3.400
REMARK  Name = 192682
REMARK  6 active torsions:
REMARK  status: ('A' for Active; 'I' for Inactive)
REMARK    1  A    between atoms: C_5  and  C_22
REMARK    2  A    between atoms: C_9  and  N_14
REMARK    3  A    between atoms: C_15  and  C_17
REMARK    4  A    between atoms: C_17  and  N_18
REMARK    5  A    between atoms: C_22  and  C_24
REMARK    6  A    between atoms: C_24  and  O_25
REMARK                            x       y       z     vdW  Elec       q    Type
REMARK                         _______ _______ _______ _____ _____    ______ ____
ROOT
ATOM      1  O   UNL     1     -34.008  27.307   2.786  0.00  0.00    -0.421 OA
ATOM      2  O   UNL     1     -35.373  26.669   1.088  0.00  0.00    -0.245 OA
ATOM      3  C   UNL     1     -34.210  26.270   4.978  0.00  0.00    +0.031 A 
ATOM      4  C   UNL     1     -35.300  25.420   4.456  0.00  0.00    -0.016 A 
ATOM      5  C   UNL     1     -35.705  25.573   3.177  0.00  0.00    +0.061 A 
ATOM      6  C   UNL     1     -33.600  27.184   4.123  0.00  0.00    +0.150 A 
ATOM      7  C   UNL     1     -33.746  26.226   6.302  0.00  0.00    +0.004 C 
ATOM      8  C   UNL     1     -32.563  28.025   4.535  0.00  0.00    +0.052 C 
ATOM      9  C   UNL     1     -32.117  27.960   5.850  0.00  0.00    +0.053 C 
ATOM     10  C   UNL     1     -35.038  26.543   2.263  0.00  0.00    +0.342 A 
ATOM     11  C   UNL     1     -35.889  24.407   5.405  0.00  0.00    +0.031 C 
ATOM     12  C   UNL     1     -32.708  27.062   6.734  0.00  0.00    +0.015 C 
ENDROOT
BRANCH   9  14
ATOM     13  O   UNL     1     -29.227  27.350   6.387  0.00  0.00    -0.277 OA
ATOM     14  N   UNL     1     -31.083  28.791   6.281  0.00  0.00    -0.286 N 
ATOM     15  C   UNL     1     -29.737  28.458   6.517  0.00  0.00    +0.204 C 
ATOM     16  H   UNL     1     -31.326  29.732   6.441  0.00  0.00    +0.155 HD
BRANCH  15  17
ATOM     17  C   UNL     1     -28.951  29.672   6.980  0.00  0.00    +0.001 C 
BRANCH  17  18
ATOM     18  N   UNL     1     -28.535  29.483   8.362  0.00  0.00    +0.386 N 
ATOM     19  H   UNL     1     -28.474  28.486   8.565  0.00  0.00    -0.089 HD
ATOM     20  H   UNL     1     -29.219  29.915   8.984  0.00  0.00    -0.089 HD
ATOM     21  H   UNL     1     -27.624  29.917   8.505  0.00  0.00    -0.089 HD
ENDBRANCH  17  18
ENDBRANCH  15  17
ENDBRANCH   9  14
BRANCH   5  22
ATOM     22  C   UNL     1     -36.844  24.819   2.539  0.00  0.00    +0.142 C 
BRANCH  22  24
ATOM     23  O   UNL     1     -39.005  24.759   3.682  0.00  0.00    -0.250 OA
ATOM     24  C   UNL     1     -38.154  25.356   3.039  0.00  0.00    +0.318 C 
BRANCH  24  25
ATOM     25  O   UNL     1     -38.275  26.655   2.660  0.00  0.00    -0.480 OA
ATOM     26  H   UNL     1     -38.552  27.300   3.281  0.00  0.00    +0.295 HD
ENDBRANCH  24  25
ENDBRANCH  22  24
ENDBRANCH   5  22
TORSDOF 6
ENDMDL
MODEL 6
REMARK VINA RESULT:      -5.6      4.825      8.237
REMARK  Name = 192682
REMARK  6 active torsions:
REMARK  status: ('A' for Active; 'I' for Inactive)
REMARK    1  A    between atoms: C_5  and  C_22
REMARK    2  A    between atoms: C_9  and  N_14
REMARK    3  A    between atoms: C_15  and  C_17
REMARK    4  A    between atoms: C_17  and  N_18
REMARK    5  A    between atoms: C_22  and  C_24
REMARK    6  A    between atoms: C_24  and  O_25
REMARK                            x       y       z     vdW  Elec       q    Type
REMARK                         _______ _______ _______ _____ _____    ______ ____
ROOT
ATOM      1  O   UNL     1     -36.390  22.071   3.054  0.00  0.00    -0.421 OA
ATOM      2  O   UNL     1     -37.440  23.774   4.126  0.00  0.00    -0.245 OA
ATOM      3  C   UNL     1     -34.648  22.539   1.422  0.00  0.00    +0.031 A 
ATOM      4  C   UNL     1     -34.825  23.985   1.672  0.00  0.00    -0.016 A 
ATOM      5  C   UNL     1     -35.770  24.395   2.545  0.00  0.00    +0.061 A 
ATOM      6  C   UNL     1     -35.436  21.632   2.123  0.00  0.00    +0.150 A 
ATOM      7  C   UNL     1     -33.730  22.010   0.501  0.00  0.00    +0.004 C 
ATOM      8  C   UNL     1     -35.333  20.249   1.947  0.00  0.00    +0.052 C 
ATOM      9  C   UNL     1     -34.413  19.748   1.033  0.00  0.00    +0.053 C 
ATOM     10  C   UNL     1     -36.601  23.417   3.304  0.00  0.00    +0.342 A 
ATOM     11  C   UNL     1     -33.908  24.924   0.930  0.00  0.00    +0.031 C 
ATOM     12  C   UNL     1     -33.612  20.627   0.309  0.00  0.00    +0.015 C 
ENDROOT
BRANCH   9  14
ATOM     13  O   UNL     1     -35.428  18.000  -1.186  0.00  0.00    -0.277 OA
ATOM     14  N   UNL     1     -34.294  18.371   0.842  0.00  0.00    -0.286 N 
ATOM     15  C   UNL     1     -34.788  17.594  -0.221  0.00  0.00    +0.204 C 
ATOM     16  H   UNL     1     -33.803  17.882   1.540  0.00  0.00    +0.155 HD
BRANCH  15  17
ATOM     17  C   UNL     1     -34.431  16.129  -0.032  0.00  0.00    +0.001 C 
BRANCH  17  18
ATOM     18  N   UNL     1     -35.605  15.400   0.425  0.00  0.00    +0.386 N 
ATOM     19  H   UNL     1     -36.430  15.737  -0.072  0.00  0.00    -0.089 HD
ATOM     20  H   UNL     1     -35.728  15.549   1.427  0.00  0.00    -0.089 HD
ATOM     21  H   UNL     1     -35.479  14.405   0.242  0.00  0.00    -0.089 HD
ENDBRANCH  17  18
ENDBRANCH  15  17
ENDBRANCH   9  14
BRANCH   5  22
ATOM     22  C   UNL     1     -36.098  25.835   2.845  0.00  0.00    +0.142 C 
BRANCH  22  24
ATOM     23  O   UNL     1     -34.235  26.329   4.350  0.00  0.00    -0.250 OA
ATOM     24  C   UNL     1     -35.434  26.253   4.125  0.00  0.00    +0.318 C 
BRANCH  24  25
ATOM     25  O   UNL     1     -36.390  26.545   5.046  0.00  0.00    -0.480 OA
ATOM     26  H   UNL     1     -36.719  25.872   5.609  0.00  0.00    +0.295 HD
ENDBRANCH  24  25
ENDBRANCH  22  24
ENDBRANCH   5  22
TORSDOF 6
ENDMDL
MODEL 7
REMARK VINA RESULT:      -5.6      5.112      8.571
REMARK  Name = 192682
REMARK  6 active torsions:
REMARK  status: ('A' for Active; 'I' for Inactive)
REMARK    1  A    between atoms: C_5  and  C_22
REMARK    2  A    between atoms: C_9  and  N_14
REMARK    3  A    between atoms: C_15  and  C_17
REMARK    4  A    between atoms: C_17  and  N_18
REMARK    5  A    between atoms: C_22  and  C_24
REMARK    6  A    between atoms: C_24  and  O_25
REMARK                            x       y       z     vdW  Elec       q    Type
REMARK                         _______ _______ _______ _____ _____    ______ ____
ROOT
ATOM      1  O   UNL     1     -36.169  21.764   3.895  0.00  0.00    -0.421 OA
ATOM      2  O   UNL     1     -35.996  23.294   5.563  0.00  0.00    -0.245 OA
ATOM      3  C   UNL     1     -35.264  22.247   1.689  0.00  0.00    +0.031 A 
ATOM      4  C   UNL     1     -34.807  23.563   2.183  0.00  0.00    -0.016 A 
ATOM      5  C   UNL     1     -35.075  23.921   3.457  0.00  0.00    +0.061 A 
ATOM      6  C   UNL     1     -35.928  21.392   2.563  0.00  0.00    +0.150 A 
ATOM      7  C   UNL     1     -35.079  21.797   0.372  0.00  0.00    +0.004 C 
ATOM      8  C   UNL     1     -36.392  20.132   2.177  0.00  0.00    +0.052 C 
ATOM      9  C   UNL     1     -36.193  19.705   0.870  0.00  0.00    +0.053 C 
ATOM     10  C   UNL     1     -35.775  22.995   4.393  0.00  0.00    +0.342 A 
ATOM     11  C   UNL     1     -34.042  24.428   1.214  0.00  0.00    +0.031 C 
ATOM     12  C   UNL     1     -35.538  20.538  -0.034  0.00  0.00    +0.015 C 
ENDROOT
BRANCH   9  14
ATOM     13  O   UNL     1     -38.721  18.921  -0.547  0.00  0.00    -0.277 OA
ATOM     14  N   UNL     1     -36.650  18.451   0.464  0.00  0.00    -0.286 N 
ATOM     15  C   UNL     1     -37.846  18.132  -0.202  0.00  0.00    +0.204 C 
ATOM     16  H   UNL     1     -36.059  17.692   0.671  0.00  0.00    +0.155 HD
BRANCH  15  17
ATOM     17  C   UNL     1     -37.946  16.638  -0.453  0.00  0.00    +0.001 C 
BRANCH  17  18
ATOM     18  N   UNL     1     -37.123  15.927   0.515  0.00  0.00    +0.386 N 
ATOM     19  H   UNL     1     -36.290  15.564   0.051  0.00  0.00    -0.089 HD
ATOM     20  H   UNL     1     -37.656  15.154   0.911  0.00  0.00    -0.089 HD
ATOM     21  H   UNL     1     -36.847  16.567   1.259  0.00  0.00    -0.089 HD
ENDBRANCH  17  18
ENDBRANCH  15  17
ENDBRANCH   9  14
BRANCH   5  22
ATOM     22  C   UNL     1     -34.725  25.254   4.068  0.00  0.00    +0.142 C 
BRANCH  22  24
ATOM     23  O   UNL     1     -36.166  26.812   2.853  0.00  0.00    -0.250 OA
ATOM     24  C   UNL     1     -35.861  26.217   3.876  0.00  0.00    +0.318 C 
BRANCH  24  25
ATOM     25  O   UNL     1     -36.535  26.347   5.049  0.00  0.00    -0.480 OA
ATOM     26  H   UNL     1     -36.277  27.004   5.667  0.00  0.00    +0.295 HD
ENDBRANCH  24  25
ENDBRANCH  22  24
ENDBRANCH   5  22
TORSDOF 6
ENDMDL
MODEL 8
REMARK VINA RESULT:      -5.4      3.642      7.457
REMARK  Name = 192682
REMARK  6 active torsions:
REMARK  status: ('A' for Active; 'I' for Inactive)
REMARK    1  A    between atoms: C_5  and  C_22
REMARK    2  A    between atoms: C_9  and  N_14
REMARK    3  A    between atoms: C_15  and  C_17
REMARK    4  A    between atoms: C_17  and  N_18
REMARK    5  A    between atoms: C_22  and  C_24
REMARK    6  A    between atoms: C_24  and  O_25
REMARK                            x       y       z     vdW  Elec       q    Type
REMARK                         _______ _______ _______ _____ _____    ______ ____
ROOT
ATOM      1  O   UNL     1     -33.768  26.919   2.782  0.00  0.00    -0.421 OA
ATOM      2  O   UNL     1     -32.364  28.695   2.609  0.00  0.00    -0.245 OA
ATOM      3  C   UNL     1     -34.160  25.871   4.942  0.00  0.00    +0.031 A 
ATOM      4  C   UNL     1     -33.249  26.853   5.565  0.00  0.00    -0.016 A 
ATOM      5  C   UNL     1     -32.631  27.770   4.788  0.00  0.00    +0.061 A 
ATOM      6  C   UNL     1     -34.389  25.939   3.571  0.00  0.00    +0.150 A 
ATOM      7  C   UNL     1     -34.814  24.850   5.649  0.00  0.00    +0.004 C 
ATOM      8  C   UNL     1     -35.236  25.050   2.903  0.00  0.00    +0.052 C 
ATOM      9  C   UNL     1     -35.876  24.050   3.625  0.00  0.00    +0.053 C 
ATOM     10  C   UNL     1     -32.892  27.846   3.322  0.00  0.00    +0.342 A 
ATOM     11  C   UNL     1     -33.078  26.774   7.061  0.00  0.00    +0.031 C 
ATOM     12  C   UNL     1     -35.665  23.948   4.998  0.00  0.00    +0.015 C 
ENDROOT
BRANCH   9  14
ATOM     13  O   UNL     1     -38.856  24.104   3.266  0.00  0.00    -0.277 OA
ATOM     14  N   UNL     1     -36.725  23.151   2.978  0.00  0.00    -0.286 N 
ATOM     15  C   UNL     1     -38.121  23.221   2.833  0.00  0.00    +0.204 C 
ATOM     16  H   UNL     1     -36.290  22.368   2.570  0.00  0.00    +0.155 HD
BRANCH  15  17
ATOM     17  C   UNL     1     -38.646  22.028   2.053  0.00  0.00    +0.001 C 
BRANCH  17  18
ATOM     18  N   UNL     1     -37.781  20.881   2.282  0.00  0.00    +0.386 N 
ATOM     19  H   UNL     1     -36.876  21.201   2.627  0.00  0.00    -0.089 HD
ATOM     20  H   UNL     1     -37.650  20.375   1.406  0.00  0.00    -0.089 HD
ATOM     21  H   UNL     1     -38.210  20.264   2.971  0.00  0.00    -0.089 HD
ENDBRANCH  17  18
ENDBRANCH  15  17
ENDBRANCH   9  14
BRANCH   5  22
ATOM     22  C   UNL     1     -31.632  28.784   5.283  0.00  0.00    +0.142 C 
BRANCH  22  24
ATOM     23  O   UNL     1     -29.526  27.922   4.389  0.00  0.00    -0.250 OA
ATOM     24  C   UNL     1     -30.263  28.169   5.332  0.00  0.00    +0.318 C 
BRANCH  24  25
ATOM     25  O   UNL     1     -29.940  27.908   6.626  0.00  0.00    -0.480 OA
ATOM     26  H   UNL     1     -29.945  27.025   6.940  0.00  0.00    +0.295 HD
ENDBRANCH  24  25
ENDBRANCH  22  24
ENDBRANCH   5  22
TORSDOF 6
ENDMDL
MODEL 9
REMARK VINA RESULT:      -5.2      3.254      7.251
REMARK  Name = 192682
REMARK  6 active torsions:
REMARK  status: ('A' for Active; 'I' for Inactive)
REMARK    1  A    between atoms: C_5  and  C_22
REMARK    2  A    between atoms: C_9  and  N_14
REMARK    3  A    between atoms: C_15  and  C_17
REMARK    4  A    between atoms: C_17  and  N_18
REMARK    5  A    between atoms: C_22  and  C_24
REMARK    6  A    between atoms: C_24  and  O_25
REMARK                            x       y       z     vdW  Elec       q    Type
REMARK                         _______ _______ _______ _____ _____    ______ ____
ROOT
ATOM      1  O   UNL     1     -33.743  25.733   5.622  0.00  0.00    -0.421 OA
ATOM      2  O   UNL     1     -32.906  27.079   7.246  0.00  0.00    -0.245 OA
ATOM      3  C   UNL     1     -33.388  26.274   3.277  0.00  0.00    +0.031 A 
ATOM      4  C   UNL     1     -32.623  27.470   3.686  0.00  0.00    -0.016 A 
ATOM      5  C   UNL     1     -32.488  27.753   5.000  0.00  0.00    +0.061 A 
ATOM      6  C   UNL     1     -33.921  25.446   4.260  0.00  0.00    +0.150 A 
ATOM      7  C   UNL     1     -33.628  25.916   1.941  0.00  0.00    +0.004 C 
ATOM      8  C   UNL     1     -34.657  24.296   3.959  0.00  0.00    +0.052 C 
ATOM      9  C   UNL     1     -34.878  23.959   2.629  0.00  0.00    +0.053 C 
ATOM     10  C   UNL     1     -33.049  26.853   6.048  0.00  0.00    +0.342 A 
ATOM     11  C   UNL     1     -32.017  28.303   2.584  0.00  0.00    +0.031 C 
ATOM     12  C   UNL     1     -34.364  24.769   1.620  0.00  0.00    +0.015 C 
ENDROOT
BRANCH   9  14
ATOM     13  O   UNL     1     -37.722  23.233   3.258  0.00  0.00    -0.277 OA
ATOM     14  N   UNL     1     -35.611  22.816   2.308  0.00  0.00    -0.286 N 
ATOM     15  C   UNL     1     -36.949  22.522   2.624  0.00  0.00    +0.204 C 
ATOM     16  H   UNL     1     -35.129  22.128   1.794  0.00  0.00    +0.155 HD
BRANCH  15  17
ATOM     17  C   UNL     1     -37.348  21.162   2.078  0.00  0.00    +0.001 C 
BRANCH  17  18
ATOM     18  N   UNL     1     -38.791  21.002   2.185  0.00  0.00    +0.386 N 
ATOM     19  H   UNL     1     -39.046  20.861   3.163  0.00  0.00    -0.089 HD
ATOM     20  H   UNL     1     -39.084  20.193   1.637  0.00  0.00    -0.089 HD
ATOM     21  H   UNL     1     -39.253  21.838   1.830  0.00  0.00    -0.089 HD
ENDBRANCH  17  18
ENDBRANCH  15  17
ENDBRANCH   9  14
BRANCH   5  22
ATOM     22  C   UNL     1     -31.790  28.969   5.551  0.00  0.00    +0.142 C 
BRANCH  22  24
ATOM     23  O   UNL     1     -29.554  27.987   5.424  0.00  0.00    -0.250 OA
ATOM     24  C   UNL     1     -30.420  28.594   6.037  0.00  0.00    +0.318 C 
BRANCH  24  25
ATOM     25  O   UNL     1     -30.265  29.038   7.312  0.00  0.00    -0.480 OA
ATOM     26  H   UNL     1     -30.559  28.511   8.030  0.00  0.00    +0.295 HD
ENDBRANCH  24  25
ENDBRANCH  22  24
ENDBRANCH   5  22
TORSDOF 6
ENDMDL
