MODEL 1
REMARK VINA RESULT:      -6.3      0.000      0.000
REMARK  Name = 5271819
REMARK  6 active torsions:
REMARK  status: ('A' for Active; 'I' for Inactive)
REMARK    1  A    between atoms: N_2  and  C1*_11
REMARK    2  A    between atoms: C_6  and  C_22
REMARK    3  A    between atoms: C2*_9  and  O2*_13
REMARK    4  A    between atoms: C3*_10  and  O3*_15
REMARK    5  A    between atoms: C4*_12  and  C5*_17
REMARK    6  A    between atoms: C5*_17  and  O5*_18
REMARK                            x       y       z     vdW  Elec       q    Type
REMARK                         _______ _______ _______ _____ _____    ______ ____
ROOT
ATOM      1  O   UNL     1     -36.838  21.962   2.893  0.00  0.00    -0.268 OA
ATOM      2  N   UNL     1     -37.308  24.226   3.283  0.00  0.00    -0.226 N 
ATOM      3  N   UNL     1     -39.847  23.669   2.179  0.00  0.00    -0.233 NA
ATOM      4  C   UNL     1     -37.588  22.927   2.849  0.00  0.00    +0.277 C 
ATOM      5  C   UNL     1     -38.284  25.197   3.155  0.00  0.00    +0.091 C 
ATOM      6  C   UNL     1     -38.972  22.715   2.271  0.00  0.00    +0.188 C 
ATOM      7  C   UNL     1     -39.478  24.906   2.631  0.00  0.00    +0.115 C 
ENDROOT
BRANCH   2  11
ATOM      8  O4* UNL     1     -35.255  23.383   4.017  0.00  0.00    -0.333 OA
ATOM      9  C2* UNL     1     -36.170  25.202   5.228  0.00  0.00    +0.187 C 
ATOM     10  C3* UNL     1     -34.875  24.781   5.891  0.00  0.00    +0.171 C 
ATOM     11  C1* UNL     1     -36.038  24.576   3.851  0.00  0.00    +0.228 C 
ATOM     12  C4* UNL     1     -34.678  23.375   5.342  0.00  0.00    +0.175 C 
BRANCH   9  13
ATOM     13  O2* UNL     1     -36.315  26.607   5.176  0.00  0.00    -0.378 OA
ATOM     14  H2* UNL     1     -36.175  26.980   6.061  0.00  0.00    +0.211 HD
ENDBRANCH   9  13
BRANCH  10  15
ATOM     15  O3* UNL     1     -33.795  25.591   5.425  0.00  0.00    -0.379 OA
ATOM     16  H3* UNL     1     -33.085  25.594   6.086  0.00  0.00    +0.211 HD
ENDBRANCH  10  15
BRANCH  12  17
ATOM     17  C5* UNL     1     -35.385  22.304   6.162  0.00  0.00    +0.169 C 
BRANCH  17  18
ATOM     18  O5* UNL     1     -35.246  21.060   5.498  0.00  0.00    -0.379 OA
ATOM     19  H5* UNL     1     -34.964  21.213   4.583  0.00  0.00    +0.211 HD
ENDBRANCH  17  18
ENDBRANCH  12  17
ENDBRANCH   2  11
BRANCH   6  22
ATOM     20  O   UNL     1     -40.497  20.955   2.171  0.00  0.00    -0.269 OA
ATOM     21  N   UNL     1     -38.575  20.822   0.866  0.00  0.00    -0.324 N 
ATOM     22  C   UNL     1     -39.437  21.391   1.761  0.00  0.00    +0.265 C 
ATOM     23  H   UNL     1     -38.787  19.948   0.467  0.00  0.00    +0.145 HD
ATOM     24  H   UNL     1     -37.743  21.287   0.619  0.00  0.00    +0.145 HD
ENDBRANCH   6  22
TORSDOF 6
ENDMDL
MODEL 2
REMARK VINA RESULT:      -6.1      1.599      2.603
REMARK  Name = 5271819
REMARK  6 active torsions:
REMARK  status: ('A' for Active; 'I' for Inactive)
REMARK    1  A    between atoms: N_2  and  C1*_11
REMARK    2  A    between atoms: C_6  and  C_22
REMARK    3  A    between atoms: C2*_9  and  O2*_13
REMARK    4  A    between atoms: C3*_10  and  O3*_15
REMARK    5  A    between atoms: C4*_12  and  C5*_17
REMARK    6  A    between atoms: C5*_17  and  O5*_18
REMARK                            x       y       z     vdW  Elec       q    Type
REMARK                         _______ _______ _______ _____ _____    ______ ____
ROOT
ATOM      1  O   UNL     1     -38.592  26.273   2.978  0.00  0.00    -0.268 OA
ATOM      2  N   UNL     1     -37.633  24.133   3.033  0.00  0.00    -0.226 N 
ATOM      3  N   UNL     1     -40.107  23.231   2.013  0.00  0.00    -0.233 NA
ATOM      4  C   UNL     1     -38.648  25.065   2.794  0.00  0.00    +0.277 C 
ATOM      5  C   UNL     1     -37.876  22.799   2.763  0.00  0.00    +0.091 C 
ATOM      6  C   UNL     1     -39.941  24.497   2.247  0.00  0.00    +0.188 C 
ATOM      7  C   UNL     1     -39.055  22.399   2.279  0.00  0.00    +0.115 C 
ENDROOT
BRANCH   2  11
ATOM      8  O4* UNL     1     -35.475  23.388   3.534  0.00  0.00    -0.333 OA
ATOM      9  C2* UNL     1     -36.430  24.989   4.996  0.00  0.00    +0.187 C 
ATOM     10  C3* UNL     1     -35.063  24.608   5.523  0.00  0.00    +0.171 C 
ATOM     11  C1* UNL     1     -36.354  24.525   3.552  0.00  0.00    +0.228 C 
ATOM     12  C4* UNL     1     -34.803  23.288   4.810  0.00  0.00    +0.175 C 
BRANCH   9  13
ATOM     13  O2* UNL     1     -36.683  26.375   5.110  0.00  0.00    -0.378 OA
ATOM     14  H2* UNL     1     -35.845  26.847   5.238  0.00  0.00    +0.211 HD
ENDBRANCH   9  13
BRANCH  10  15
ATOM     15  O3* UNL     1     -34.083  25.547   5.080  0.00  0.00    -0.379 OA
ATOM     16  H3* UNL     1     -34.508  26.403   4.913  0.00  0.00    +0.211 HD
ENDBRANCH  10  15
BRANCH  12  17
ATOM     17  C5* UNL     1     -35.366  22.083   5.550  0.00  0.00    +0.169 C 
BRANCH  17  18
ATOM     18  O5* UNL     1     -35.477  21.003   4.639  0.00  0.00    -0.379 OA
ATOM     19  H5* UNL     1     -35.117  21.269   3.778  0.00  0.00    +0.211 HD
ENDBRANCH  17  18
ENDBRANCH  12  17
ENDBRANCH   2  11
BRANCH   6  22
ATOM     20  O   UNL     1     -41.672  25.206   0.857  0.00  0.00    -0.269 OA
ATOM     21  N   UNL     1     -41.452  26.213   2.943  0.00  0.00    -0.324 N 
ATOM     22  C   UNL     1     -41.126  25.349   1.935  0.00  0.00    +0.265 C 
ATOM     23  H   UNL     1     -42.220  26.821   2.840  0.00  0.00    +0.145 HD
ATOM     24  H   UNL     1     -40.921  26.226   3.771  0.00  0.00    +0.145 HD
ENDBRANCH   6  22
TORSDOF 6
ENDMDL
MODEL 3
REMARK VINA RESULT:      -6.1      4.233      7.426
REMARK  Name = 5271819
REMARK  6 active torsions:
REMARK  status: ('A' for Active; 'I' for Inactive)
REMARK    1  A    between atoms: N_2  and  C1*_11
REMARK    2  A    between atoms: C_6  and  C_22
REMARK    3  A    between atoms: C2*_9  and  O2*_13
REMARK    4  A    between atoms: C3*_10  and  O3*_15
REMARK    5  A    between atoms: C4*_12  and  C5*_17
REMARK    6  A    between atoms: C5*_17  and  O5*_18
REMARK                            x       y       z     vdW  Elec       q    Type
REMARK                         _______ _______ _______ _____ _____    ______ ____
ROOT
ATOM      1  O   UNL     1     -32.520  26.936   7.072  0.00  0.00    -0.268 OA
ATOM      2  N   UNL     1     -33.457  26.958   4.923  0.00  0.00    -0.226 N 
ATOM      3  N   UNL     1     -31.912  29.284   4.504  0.00  0.00    -0.233 NA
ATOM      4  C   UNL     1     -32.647  27.429   5.960  0.00  0.00    +0.277 C 
ATOM      5  C   UNL     1     -33.475  27.649   3.725  0.00  0.00    +0.091 C 
ATOM      6  C   UNL     1     -31.852  28.681   5.652  0.00  0.00    +0.188 C 
ATOM      7  C   UNL     1     -32.734  28.746   3.553  0.00  0.00    +0.115 C 
ENDROOT
BRANCH   2  11
ATOM      8  O4* UNL     1     -33.680  24.712   4.315  0.00  0.00    -0.333 OA
ATOM      9  C2* UNL     1     -35.673  25.975   4.525  0.00  0.00    +0.187 C 
ATOM     10  C3* UNL     1     -36.033  24.573   4.081  0.00  0.00    +0.171 C 
ATOM     11  C1* UNL     1     -34.268  25.783   5.070  0.00  0.00    +0.228 C 
ATOM     12  C4* UNL     1     -34.708  24.061   3.535  0.00  0.00    +0.175 C 
BRANCH   9  13
ATOM     13  O2* UNL     1     -36.569  26.479   5.495  0.00  0.00    -0.378 OA
ATOM     14  H2* UNL     1     -36.716  27.425   5.339  0.00  0.00    +0.211 HD
ENDBRANCH   9  13
BRANCH  10  15
ATOM     15  O3* UNL     1     -36.383  23.772   5.210  0.00  0.00    -0.379 OA
ATOM     16  H3* UNL     1     -36.217  22.838   5.007  0.00  0.00    +0.211 HD
ENDBRANCH  10  15
BRANCH  12  17
ATOM     17  C5* UNL     1     -34.485  24.412   2.069  0.00  0.00    +0.169 C 
BRANCH  17  18
ATOM     18  O5* UNL     1     -35.722  24.307   1.386  0.00  0.00    -0.379 OA
ATOM     19  H5* UNL     1     -35.720  24.906   0.623  0.00  0.00    +0.211 HD
ENDBRANCH  17  18
ENDBRANCH  12  17
ENDBRANCH   2  11
BRANCH   6  22
ATOM     20  O   UNL     1     -29.806  29.594   6.294  0.00  0.00    -0.269 OA
ATOM     21  N   UNL     1     -31.519  29.516   7.866  0.00  0.00    -0.324 N 
ATOM     22  C   UNL     1     -30.938  29.318   6.645  0.00  0.00    +0.265 C 
ATOM     23  H   UNL     1     -31.002  29.931   8.594  0.00  0.00    +0.145 HD
ATOM     24  H   UNL     1     -32.452  29.244   8.018  0.00  0.00    +0.145 HD
ENDBRANCH   6  22
TORSDOF 6
ENDMDL
MODEL 4
REMARK VINA RESULT:      -6.1      3.176      6.008
REMARK  Name = 5271819
REMARK  6 active torsions:
REMARK  status: ('A' for Active; 'I' for Inactive)
REMARK    1  A    between atoms: N_2  and  C1*_11
REMARK    2  A    between atoms: C_6  and  C_22
REMARK    3  A    between atoms: C2*_9  and  O2*_13
REMARK    4  A    between atoms: C3*_10  and  O3*_15
REMARK    5  A    between atoms: C4*_12  and  C5*_17
REMARK    6  A    between atoms: C5*_17  and  O5*_18
REMARK                            x       y       z     vdW  Elec       q    Type
REMARK                         _______ _______ _______ _____ _____    ______ ____
ROOT
ATOM      1  O   UNL     1     -35.308  27.135   2.615  0.00  0.00    -0.268 OA
ATOM      2  N   UNL     1     -34.951  25.857   4.548  0.00  0.00    -0.226 N 
ATOM      3  N   UNL     1     -32.987  27.779   5.199  0.00  0.00    -0.233 NA
ATOM      4  C   UNL     1     -34.730  26.923   3.672  0.00  0.00    +0.277 C 
ATOM      5  C   UNL     1     -34.198  25.778   5.706  0.00  0.00    +0.091 C 
ATOM      6  C   UNL     1     -33.660  27.908   4.097  0.00  0.00    +0.188 C 
ATOM      7  C   UNL     1     -33.276  26.702   5.990  0.00  0.00    +0.115 C 
ENDROOT
BRANCH   2  11
ATOM      8  O4* UNL     1     -36.218  24.134   5.492  0.00  0.00    -0.333 OA
ATOM      9  C2* UNL     1     -35.439  23.812   3.278  0.00  0.00    +0.187 C 
ATOM     10  C3* UNL     1     -36.190  22.571   3.713  0.00  0.00    +0.171 C 
ATOM     11  C1* UNL     1     -35.931  24.845   4.277  0.00  0.00    +0.228 C 
ATOM     12  C4* UNL     1     -36.192  22.714   5.228  0.00  0.00    +0.175 C 
BRANCH   9  13
ATOM     13  O2* UNL     1     -35.722  24.170   1.940  0.00  0.00    -0.378 OA
ATOM     14  H2* UNL     1     -36.446  24.816   1.925  0.00  0.00    +0.211 HD
ENDBRANCH   9  13
BRANCH  10  15
ATOM     15  O3* UNL     1     -37.544  22.629   3.264  0.00  0.00    -0.379 OA
ATOM     16  H3* UNL     1     -37.758  23.538   3.000  0.00  0.00    +0.211 HD
ENDBRANCH  10  15
BRANCH  12  17
ATOM     17  C5* UNL     1     -34.950  22.131   5.889  0.00  0.00    +0.169 C 
BRANCH  17  18
ATOM     18  O5* UNL     1     -35.033  20.717   5.843  0.00  0.00    -0.379 OA
ATOM     19  H5* UNL     1     -34.147  20.346   5.709  0.00  0.00    +0.211 HD
ENDBRANCH  17  18
ENDBRANCH  12  17
ENDBRANCH   2  11
BRANCH   6  22
ATOM     20  O   UNL     1     -32.221  29.107   2.710  0.00  0.00    -0.269 OA
ATOM     21  N   UNL     1     -34.259  30.073   3.280  0.00  0.00    -0.324 N 
ATOM     22  C   UNL     1     -33.296  29.103   3.280  0.00  0.00    +0.265 C 
ATOM     23  H   UNL     1     -34.120  30.904   2.771  0.00  0.00    +0.145 HD
ATOM     24  H   UNL     1     -35.091  29.941   3.789  0.00  0.00    +0.145 HD
ENDBRANCH   6  22
TORSDOF 6
ENDMDL
MODEL 5
REMARK VINA RESULT:      -6.0      2.361      3.776
REMARK  Name = 5271819
REMARK  6 active torsions:
REMARK  status: ('A' for Active; 'I' for Inactive)
REMARK    1  A    between atoms: N_2  and  C1*_11
REMARK    2  A    between atoms: C_6  and  C_22
REMARK    3  A    between atoms: C2*_9  and  O2*_13
REMARK    4  A    between atoms: C3*_10  and  O3*_15
REMARK    5  A    between atoms: C4*_12  and  C5*_17
REMARK    6  A    between atoms: C5*_17  and  O5*_18
REMARK                            x       y       z     vdW  Elec       q    Type
REMARK                         _______ _______ _______ _____ _____    ______ ____
ROOT
ATOM      1  O   UNL     1     -39.956  24.676   3.589  0.00  0.00    -0.268 OA
ATOM      2  N   UNL     1     -37.693  25.242   3.341  0.00  0.00    -0.226 N 
ATOM      3  N   UNL     1     -38.577  27.007   1.321  0.00  0.00    -0.233 NA
ATOM      4  C   UNL     1     -39.060  25.311   3.052  0.00  0.00    +0.277 C 
ATOM      5  C   UNL     1     -36.819  26.040   2.626  0.00  0.00    +0.091 C 
ATOM      6  C   UNL     1     -39.447  26.282   1.955  0.00  0.00    +0.188 C 
ATOM      7  C   UNL     1     -37.264  26.868   1.676  0.00  0.00    +0.115 C 
ENDROOT
BRANCH   2  11
ATOM      8  O4* UNL     1     -36.405  25.136   5.289  0.00  0.00    -0.333 OA
ATOM      9  C2* UNL     1     -36.244  23.310   3.788  0.00  0.00    +0.187 C 
ATOM     10  C3* UNL     1     -35.303  23.067   4.949  0.00  0.00    +0.171 C 
ATOM     11  C1* UNL     1     -37.178  24.366   4.354  0.00  0.00    +0.228 C 
ATOM     12  C4* UNL     1     -35.149  24.464   5.533  0.00  0.00    +0.175 C 
BRANCH   9  13
ATOM     13  O2* UNL     1     -36.925  22.136   3.394  0.00  0.00    -0.378 OA
ATOM     14  H2* UNL     1     -36.914  21.496   4.122  0.00  0.00    +0.211 HD
ENDBRANCH   9  13
BRANCH  10  15
ATOM     15  O3* UNL     1     -35.933  22.246   5.933  0.00  0.00    -0.379 OA
ATOM     16  H3* UNL     1     -35.272  21.663   6.338  0.00  0.00    +0.211 HD
ENDBRANCH  10  15
BRANCH  12  17
ATOM     17  C5* UNL     1     -34.041  25.274   4.872  0.00  0.00    +0.169 C 
BRANCH  17  18
ATOM     18  O5* UNL     1     -34.256  26.647   5.152  0.00  0.00    -0.379 OA
ATOM     19  H5* UNL     1     -33.841  27.185   4.459  0.00  0.00    +0.211 HD
ENDBRANCH  17  18
ENDBRANCH  12  17
ENDBRANCH   2  11
BRANCH   6  22
ATOM     20  O   UNL     1     -41.328  27.603   1.574  0.00  0.00    -0.269 OA
ATOM     21  N   UNL     1     -41.466  25.330   1.102  0.00  0.00    -0.324 N 
ATOM     22  C   UNL     1     -40.861  26.481   1.520  0.00  0.00    +0.265 C 
ATOM     23  H   UNL     1     -42.400  25.350   0.792  0.00  0.00    +0.145 HD
ATOM     24  H   UNL     1     -40.968  24.481   1.109  0.00  0.00    +0.145 HD
ENDBRANCH   6  22
TORSDOF 6
ENDMDL
MODEL 6
REMARK VINA RESULT:      -5.9      3.058      4.945
REMARK  Name = 5271819
REMARK  6 active torsions:
REMARK  status: ('A' for Active; 'I' for Inactive)
REMARK    1  A    between atoms: N_2  and  C1*_11
REMARK    2  A    between atoms: C_6  and  C_22
REMARK    3  A    between atoms: C2*_9  and  O2*_13
REMARK    4  A    between atoms: C3*_10  and  O3*_15
REMARK    5  A    between atoms: C4*_12  and  C5*_17
REMARK    6  A    between atoms: C5*_17  and  O5*_18
REMARK                            x       y       z     vdW  Elec       q    Type
REMARK                         _______ _______ _______ _____ _____    ______ ____
ROOT
ATOM      1  O   UNL     1     -33.701  24.185   5.001  0.00  0.00    -0.268 OA
ATOM      2  N   UNL     1     -35.141  25.687   3.919  0.00  0.00    -0.226 N 
ATOM      3  N   UNL     1     -37.024  23.584   3.966  0.00  0.00    -0.233 NA
ATOM      4  C   UNL     1     -34.778  24.466   4.494  0.00  0.00    +0.277 C 
ATOM      5  C   UNL     1     -36.411  25.824   3.391  0.00  0.00    +0.091 C 
ATOM      6  C   UNL     1     -35.847  23.392   4.477  0.00  0.00    +0.188 C 
ATOM      7  C   UNL     1     -37.284  24.814   3.427  0.00  0.00    +0.115 C 
ENDROOT
BRANCH   2  11
ATOM      8  O4* UNL     1     -34.981  28.004   3.652  0.00  0.00    -0.333 OA
ATOM      9  C2* UNL     1     -33.255  26.687   2.703  0.00  0.00    +0.187 C 
ATOM     10  C3* UNL     1     -32.989  28.141   2.377  0.00  0.00    +0.171 C 
ATOM     11  C1* UNL     1     -34.232  26.796   3.861  0.00  0.00    +0.228 C 
ATOM     12  C4* UNL     1     -34.355  28.774   2.601  0.00  0.00    +0.175 C 
BRANCH   9  13
ATOM     13  O2* UNL     1     -32.076  25.989   3.049  0.00  0.00    -0.378 OA
ATOM     14  H2* UNL     1     -31.310  26.574   2.939  0.00  0.00    +0.211 HD
ENDBRANCH   9  13
BRANCH  10  15
ATOM     15  O3* UNL     1     -32.083  28.703   3.328  0.00  0.00    -0.379 OA
ATOM     16  H3* UNL     1     -32.473  28.652   4.215  0.00  0.00    +0.211 HD
ENDBRANCH  10  15
BRANCH  12  17
ATOM     17  C5* UNL     1     -35.253  28.718   1.372  0.00  0.00    +0.169 C 
BRANCH  17  18
ATOM     18  O5* UNL     1     -36.591  28.951   1.778  0.00  0.00    -0.379 OA
ATOM     19  H5* UNL     1     -36.644  28.919   2.746  0.00  0.00    +0.211 HD
ENDBRANCH  17  18
ENDBRANCH  12  17
ENDBRANCH   2  11
BRANCH   6  22
ATOM     20  O   UNL     1     -35.271  21.141   4.297  0.00  0.00    -0.269 OA
ATOM     21  N   UNL     1     -35.868  21.961   6.391  0.00  0.00    -0.324 N 
ATOM     22  C   UNL     1     -35.628  22.030   5.047  0.00  0.00    +0.265 C 
ATOM     23  H   UNL     1     -35.752  21.107   6.867  0.00  0.00    +0.145 HD
ATOM     24  H   UNL     1     -36.155  22.764   6.882  0.00  0.00    +0.145 HD
ENDBRANCH   6  22
TORSDOF 6
ENDMDL
MODEL 7
REMARK VINA RESULT:      -5.9      2.453      5.923
REMARK  Name = 5271819
REMARK  6 active torsions:
REMARK  status: ('A' for Active; 'I' for Inactive)
REMARK    1  A    between atoms: N_2  and  C1*_11
REMARK    2  A    between atoms: C_6  and  C_22
REMARK    3  A    between atoms: C2*_9  and  O2*_13
REMARK    4  A    between atoms: C3*_10  and  O3*_15
REMARK    5  A    between atoms: C4*_12  and  C5*_17
REMARK    6  A    between atoms: C5*_17  and  O5*_18
REMARK                            x       y       z     vdW  Elec       q    Type
REMARK                         _______ _______ _______ _____ _____    ______ ____
ROOT
ATOM      1  O   UNL     1     -34.717  24.852   2.179  0.00  0.00    -0.268 OA
ATOM      2  N   UNL     1     -35.459  22.929   3.297  0.00  0.00    -0.226 N 
ATOM      3  N   UNL     1     -34.960  24.375   5.670  0.00  0.00    -0.233 NA
ATOM      4  C   UNL     1     -34.967  24.234   3.204  0.00  0.00    +0.277 C 
ATOM      5  C   UNL     1     -35.683  22.388   4.550  0.00  0.00    +0.091 C 
ATOM      6  C   UNL     1     -34.727  24.937   4.524  0.00  0.00    +0.188 C 
ATOM      7  C   UNL     1     -35.440  23.095   5.657  0.00  0.00    +0.115 C 
ENDROOT
BRANCH   2  11
ATOM      8  O4* UNL     1     -36.896  22.663   1.473  0.00  0.00    -0.333 OA
ATOM      9  C2* UNL     1     -36.041  20.690   2.469  0.00  0.00    +0.187 C 
ATOM     10  C3* UNL     1     -36.980  20.299   1.348  0.00  0.00    +0.171 C 
ATOM     11  C1* UNL     1     -35.731  22.138   2.131  0.00  0.00    +0.228 C 
ATOM     12  C4* UNL     1     -37.788  21.573   1.148  0.00  0.00    +0.175 C 
BRANCH   9  13
ATOM     13  O2* UNL     1     -34.884  19.881   2.508  0.00  0.00    -0.378 OA
ATOM     14  H2* UNL     1     -35.131  18.956   2.354  0.00  0.00    +0.211 HD
ENDBRANCH   9  13
BRANCH  10  15
ATOM     15  O3* UNL     1     -36.244  20.053   0.150  0.00  0.00    -0.379 OA
ATOM     16  H3* UNL     1     -35.790  19.198   0.219  0.00  0.00    +0.211 HD
ENDBRANCH  10  15
BRANCH  12  17
ATOM     17  C5* UNL     1     -39.003  21.665   2.063  0.00  0.00    +0.169 C 
BRANCH  17  18
ATOM     18  O5* UNL     1     -40.062  20.921   1.485  0.00  0.00    -0.379 OA
ATOM     19  H5* UNL     1     -40.290  20.180   2.068  0.00  0.00    +0.211 HD
ENDBRANCH  17  18
ENDBRANCH  12  17
ENDBRANCH   2  11
BRANCH   6  22
ATOM     20  O   UNL     1     -33.072  26.501   5.019  0.00  0.00    -0.269 OA
ATOM     21  N   UNL     1     -35.105  27.275   4.196  0.00  0.00    -0.324 N 
ATOM     22  C   UNL     1     -34.205  26.333   4.609  0.00  0.00    +0.265 C 
ATOM     23  H   UNL     1     -34.861  28.228   4.211  0.00  0.00    +0.145 HD
ATOM     24  H   UNL     1     -35.998  27.000   3.885  0.00  0.00    +0.145 HD
ENDBRANCH   6  22
TORSDOF 6
ENDMDL
MODEL 8
REMARK VINA RESULT:      -5.9      2.989      3.915
REMARK  Name = 5271819
REMARK  6 active torsions:
REMARK  status: ('A' for Active; 'I' for Inactive)
REMARK    1  A    between atoms: N_2  and  C1*_11
REMARK    2  A    between atoms: C_6  and  C_22
REMARK    3  A    between atoms: C2*_9  and  O2*_13
REMARK    4  A    between atoms: C3*_10  and  O3*_15
REMARK    5  A    between atoms: C4*_12  and  C5*_17
REMARK    6  A    between atoms: C5*_17  and  O5*_18
REMARK                            x       y       z     vdW  Elec       q    Type
REMARK                         _______ _______ _______ _____ _____    ______ ____
ROOT
ATOM      1  O   UNL     1     -35.188  23.067   1.668  0.00  0.00    -0.268 OA
ATOM      2  N   UNL     1     -34.933  23.758   3.895  0.00  0.00    -0.226 N 
ATOM      3  N   UNL     1     -35.398  21.054   4.563  0.00  0.00    -0.233 NA
ATOM      4  C   UNL     1     -35.163  22.836   2.869  0.00  0.00    +0.277 C 
ATOM      5  C   UNL     1     -34.942  23.313   5.204  0.00  0.00    +0.091 C 
ATOM      6  C   UNL     1     -35.404  21.408   3.315  0.00  0.00    +0.188 C 
ATOM      7  C   UNL     1     -35.163  22.028   5.493  0.00  0.00    +0.115 C 
ENDROOT
BRANCH   2  11
ATOM      8  O4* UNL     1     -33.413  25.512   4.168  0.00  0.00    -0.333 OA
ATOM      9  C2* UNL     1     -35.717  26.053   4.283  0.00  0.00    +0.187 C 
ATOM     10  C3* UNL     1     -34.912  27.311   4.531  0.00  0.00    +0.171 C 
ATOM     11  C1* UNL     1     -34.692  25.146   3.624  0.00  0.00    +0.228 C 
ATOM     12  C4* UNL     1     -33.548  26.748   4.906  0.00  0.00    +0.175 C 
BRANCH   9  13
ATOM     13  O2* UNL     1     -36.842  26.288   3.461  0.00  0.00    -0.378 OA
ATOM     14  H2* UNL     1     -36.555  26.392   2.541  0.00  0.00    +0.211 HD
ENDBRANCH   9  13
BRANCH  10  15
ATOM     15  O3* UNL     1     -34.764  28.051   3.319  0.00  0.00    -0.379 OA
ATOM     16  H3* UNL     1     -33.944  28.568   3.354  0.00  0.00    +0.211 HD
ENDBRANCH  10  15
BRANCH  12  17
ATOM     17  C5* UNL     1     -33.414  26.431   6.389  0.00  0.00    +0.169 C 
BRANCH  17  18
ATOM     18  O5* UNL     1     -32.253  27.075   6.887  0.00  0.00    -0.379 OA
ATOM     19  H5* UNL     1     -32.512  27.865   7.387  0.00  0.00    +0.211 HD
ENDBRANCH  17  18
ENDBRANCH  12  17
ENDBRANCH   2  11
BRANCH   6  22
ATOM     20  O   UNL     1     -34.729  19.854   1.714  0.00  0.00    -0.269 OA
ATOM     21  N   UNL     1     -36.976  19.913   2.312  0.00  0.00    -0.324 N 
ATOM     22  C   UNL     1     -35.666  20.298   2.352  0.00  0.00    +0.265 C 
ATOM     23  H   UNL     1     -37.258  19.187   1.710  0.00  0.00    +0.145 HD
ATOM     24  H   UNL     1     -37.639  20.361   2.886  0.00  0.00    +0.145 HD
ENDBRANCH   6  22
TORSDOF 6
ENDMDL
MODEL 9
REMARK VINA RESULT:      -5.9      3.369      6.577
REMARK  Name = 5271819
REMARK  6 active torsions:
REMARK  status: ('A' for Active; 'I' for Inactive)
REMARK    1  A    between atoms: N_2  and  C1*_11
REMARK    2  A    between atoms: C_6  and  C_22
REMARK    3  A    between atoms: C2*_9  and  O2*_13
REMARK    4  A    between atoms: C3*_10  and  O3*_15
REMARK    5  A    between atoms: C4*_12  and  C5*_17
REMARK    6  A    between atoms: C5*_17  and  O5*_18
REMARK                            x       y       z     vdW  Elec       q    Type
REMARK                         _______ _______ _______ _____ _____    ______ ____
ROOT
ATOM      1  O   UNL     1     -33.452  25.494   5.266  0.00  0.00    -0.268 OA
ATOM      2  N   UNL     1     -34.811  26.377   3.571  0.00  0.00    -0.226 N 
ATOM      3  N   UNL     1     -33.320  28.752   3.906  0.00  0.00    -0.233 NA
ATOM      4  C   UNL     1     -33.791  26.408   4.528  0.00  0.00    +0.277 C 
ATOM      5  C   UNL     1     -35.056  27.513   2.821  0.00  0.00    +0.091 C 
ATOM      6  C   UNL     1     -33.042  27.720   4.642  0.00  0.00    +0.188 C 
ATOM      7  C   UNL     1     -34.334  28.623   2.999  0.00  0.00    +0.115 C 
ENDROOT
BRANCH   2  11
ATOM      8  O4* UNL     1     -36.295  25.335   2.097  0.00  0.00    -0.333 OA
ATOM      9  C2* UNL     1     -36.676  25.021   4.414  0.00  0.00    +0.187 C 
ATOM     10  C3* UNL     1     -37.768  24.309   3.643  0.00  0.00    +0.171 C 
ATOM     11  C1* UNL     1     -35.607  25.204   3.352  0.00  0.00    +0.228 C 
ATOM     12  C4* UNL     1     -37.684  24.979   2.279  0.00  0.00    +0.175 C 
BRANCH   9  13
ATOM     13  O2* UNL     1     -36.221  24.268   5.520  0.00  0.00    -0.378 OA
ATOM     14  H2* UNL     1     -35.283  24.459   5.678  0.00  0.00    +0.211 HD
ENDBRANCH   9  13
BRANCH  10  15
ATOM     15  O3* UNL     1     -37.437  22.930   3.477  0.00  0.00    -0.379 OA
ATOM     16  H3* UNL     1     -37.865  22.589   2.676  0.00  0.00    +0.211 HD
ENDBRANCH  10  15
BRANCH  12  17
ATOM     17  C5* UNL     1     -38.517  26.251   2.181  0.00  0.00    +0.169 C 
BRANCH  17  18
ATOM     18  O5* UNL     1     -39.269  26.393   3.374  0.00  0.00    -0.379 OA
ATOM     19  H5* UNL     1     -38.838  27.043   3.951  0.00  0.00    +0.211 HD
ENDBRANCH  17  18
ENDBRANCH  12  17
ENDBRANCH   2  11
BRANCH   6  22
ATOM     20  O   UNL     1     -30.809  28.128   5.170  0.00  0.00    -0.269 OA
ATOM     21  N   UNL     1     -32.322  27.858   6.917  0.00  0.00    -0.324 N 
ATOM     22  C   UNL     1     -31.925  27.926   5.611  0.00  0.00    +0.265 C 
ATOM     23  H   UNL     1     -31.663  27.981   7.638  0.00  0.00    +0.145 HD
ATOM     24  H   UNL     1     -33.266  27.687   7.137  0.00  0.00    +0.145 HD
ENDBRANCH   6  22
TORSDOF 6
ENDMDL
