MODEL 1
REMARK VINA RESULT:      -5.6      0.000      0.000
REMARK  Name = 193126
REMARK  5 active torsions:
REMARK  status: ('A' for Active; 'I' for Inactive)
REMARK    1  A    between atoms: C_4  and  C_8
REMARK    2  A    between atoms: C_5  and  S_12
REMARK    3  A    between atoms: S_12  and  C_13
REMARK    4  A    between atoms: C_13  and  C_16
REMARK    5  A    between atoms: N_15  and  N_18
REMARK                            x       y       z     vdW  Elec       q    Type
REMARK                         _______ _______ _______ _____ _____    ______ ____
ROOT
ATOM      1  N   UNL     1     -35.960  26.863   3.627  0.00  0.00    -0.197 N 
ATOM      2  N   UNL     1     -35.334  24.878   4.294  0.00  0.00    -0.324 NA
ATOM      3  N   UNL     1     -36.852  26.046   3.044  0.00  0.00    -0.107 NA
ATOM      4  C   UNL     1     -35.061  26.160   4.368  0.00  0.00    +0.246 C 
ATOM      5  C   UNL     1     -36.418  24.877   3.486  0.00  0.00    +0.133 C 
ATOM      6  H   UNL     1     -35.956  27.842   3.531  0.00  0.00    +0.178 HD
ENDROOT
BRANCH   4   8
ATOM      7  O   UNL     1     -33.235  27.751   4.588  0.00  0.00    -0.446 OA
ATOM      8  C   UNL     1     -34.004  26.746   5.096  0.00  0.00    +0.191 C 
ATOM      9  C   UNL     1     -33.585  26.429   6.373  0.00  0.00    +0.045 C 
ATOM     10  C   UNL     1     -32.498  27.291   6.661  0.00  0.00    +0.044 C 
ATOM     11  C   UNL     1     -32.325  28.074   5.544  0.00  0.00    +0.180 C 
ENDBRANCH   4   8
BRANCH   5  12
ATOM     12  S   UNL     1     -37.237  23.375   3.029  0.00  0.00    -0.019 S 
BRANCH  12  13
ATOM     13  C   UNL     1     -35.834  22.440   2.375  0.00  0.00    +0.159 C 
BRANCH  13  16
ATOM     14  O   UNL     1     -35.171  20.208   2.947  0.00  0.00    -0.273 OA
ATOM     15  N   UNL     1     -35.610  21.714   4.662  0.00  0.00    -0.252 N 
ATOM     16  C   UNL     1     -35.496  21.328   3.339  0.00  0.00    +0.247 C 
ATOM     17  H   UNL     1     -35.877  22.633   4.893  0.00  0.00    +0.169 HD
BRANCH  15  18
ATOM     18  N   UNL     1     -35.345  20.793   5.654  0.00  0.00    -0.254 NA
ATOM     19  H   UNL     1     -35.321  21.264   6.559  0.00  0.00    +0.140 HD
ATOM     20  H   UNL     1     -34.442  20.352   5.477  0.00  0.00    +0.140 HD
ENDBRANCH  15  18
ENDBRANCH  13  16
ENDBRANCH  12  13
ENDBRANCH   5  12
TORSDOF 5
ENDMDL
MODEL 2
REMARK VINA RESULT:      -5.5      2.887      3.669
REMARK  Name = 193126
REMARK  5 active torsions:
REMARK  status: ('A' for Active; 'I' for Inactive)
REMARK    1  A    between atoms: C_4  and  C_8
REMARK    2  A    between atoms: C_5  and  S_12
REMARK    3  A    between atoms: S_12  and  C_13
REMARK    4  A    between atoms: C_13  and  C_16
REMARK    5  A    between atoms: N_15  and  N_18
REMARK                            x       y       z     vdW  Elec       q    Type
REMARK                         _______ _______ _______ _____ _____    ______ ____
ROOT
ATOM      1  N   UNL     1     -33.644  27.898   4.341  0.00  0.00    -0.197 N 
ATOM      2  N   UNL     1     -33.438  26.486   5.997  0.00  0.00    -0.324 NA
ATOM      3  N   UNL     1     -34.691  27.075   4.176  0.00  0.00    -0.107 NA
ATOM      4  C   UNL     1     -32.904  27.541   5.426  0.00  0.00    +0.246 C 
ATOM      5  C   UNL     1     -34.506  26.257   5.199  0.00  0.00    +0.133 C 
ATOM      6  H   UNL     1     -33.438  28.661   3.755  0.00  0.00    +0.178 HD
ENDROOT
BRANCH   4   8
ATOM      7  O   UNL     1     -30.489  27.820   5.491  0.00  0.00    -0.446 OA
ATOM      8  C   UNL     1     -31.742  28.220   5.851  0.00  0.00    +0.191 C 
ATOM      9  C   UNL     1     -31.668  29.339   6.656  0.00  0.00    +0.045 C 
ATOM     10  C   UNL     1     -30.292  29.641   6.794  0.00  0.00    +0.044 C 
ATOM     11  C   UNL     1     -29.617  28.687   6.068  0.00  0.00    +0.180 C 
ENDBRANCH   4   8
BRANCH   5  12
ATOM     12  S   UNL     1     -35.622  24.917   5.501  0.00  0.00    -0.019 S 
BRANCH  12  13
ATOM     13  C   UNL     1     -36.008  24.440   3.800  0.00  0.00    +0.159 C 
BRANCH  13  16
ATOM     14  O   UNL     1     -38.244  23.757   3.266  0.00  0.00    -0.273 OA
ATOM     15  N   UNL     1     -37.831  26.010   3.658  0.00  0.00    -0.252 N 
ATOM     16  C   UNL     1     -37.479  24.677   3.548  0.00  0.00    +0.247 C 
ATOM     17  H   UNL     1     -37.156  26.689   3.889  0.00  0.00    +0.169 HD
BRANCH  15  18
ATOM     18  N   UNL     1     -39.143  26.375   3.439  0.00  0.00    -0.254 NA
ATOM     19  H   UNL     1     -39.393  27.141   4.066  0.00  0.00    +0.140 HD
ATOM     20  H   UNL     1     -39.754  25.578   3.619  0.00  0.00    +0.140 HD
ENDBRANCH  15  18
ENDBRANCH  13  16
ENDBRANCH  12  13
ENDBRANCH   5  12
TORSDOF 5
ENDMDL
MODEL 3
REMARK VINA RESULT:      -5.5      2.229      6.241
REMARK  Name = 193126
REMARK  5 active torsions:
REMARK  status: ('A' for Active; 'I' for Inactive)
REMARK    1  A    between atoms: C_4  and  C_8
REMARK    2  A    between atoms: C_5  and  S_12
REMARK    3  A    between atoms: S_12  and  C_13
REMARK    4  A    between atoms: C_13  and  C_16
REMARK    5  A    between atoms: N_15  and  N_18
REMARK                            x       y       z     vdW  Elec       q    Type
REMARK                         _______ _______ _______ _____ _____    ______ ____
ROOT
ATOM      1  N   UNL     1     -35.938  21.980   5.113  0.00  0.00    -0.197 N 
ATOM      2  N   UNL     1     -35.917  23.630   3.680  0.00  0.00    -0.324 NA
ATOM      3  N   UNL     1     -35.900  23.068   5.897  0.00  0.00    -0.107 NA
ATOM      4  C   UNL     1     -35.948  22.323   3.796  0.00  0.00    +0.246 C 
ATOM      5  C   UNL     1     -35.890  24.017   4.976  0.00  0.00    +0.133 C 
ATOM      6  H   UNL     1     -35.957  21.054   5.446  0.00  0.00    +0.178 HD
ENDROOT
BRANCH   4   8
ATOM      7  O   UNL     1     -37.065  21.265   1.913  0.00  0.00    -0.446 OA
ATOM      8  C   UNL     1     -35.984  21.393   2.735  0.00  0.00    +0.191 C 
ATOM      9  C   UNL     1     -34.997  20.503   2.361  0.00  0.00    +0.045 C 
ATOM     10  C   UNL     1     -35.503  19.792   1.246  0.00  0.00    +0.044 C 
ATOM     11  C   UNL     1     -36.763  20.292   1.014  0.00  0.00    +0.180 C 
ENDBRANCH   4   8
BRANCH   5  12
ATOM     12  S   UNL     1     -35.843  25.726   5.435  0.00  0.00    -0.019 S 
BRANCH  12  13
ATOM     13  C   UNL     1     -34.723  26.361   4.165  0.00  0.00    +0.159 C 
BRANCH  13  16
ATOM     14  O   UNL     1     -32.423  27.040   4.156  0.00  0.00    -0.273 OA
ATOM     15  N   UNL     1     -33.493  26.757   6.199  0.00  0.00    -0.252 N 
ATOM     16  C   UNL     1     -33.420  26.761   4.819  0.00  0.00    +0.247 C 
ATOM     17  H   UNL     1     -34.333  26.522   6.656  0.00  0.00    +0.169 HD
BRANCH  15  18
ATOM     18  N   UNL     1     -32.370  27.090   6.929  0.00  0.00    -0.254 NA
ATOM     19  H   UNL     1     -31.568  27.170   6.302  0.00  0.00    +0.140 HD
ATOM     20  H   UNL     1     -32.188  26.366   7.624  0.00  0.00    +0.140 HD
ENDBRANCH  15  18
ENDBRANCH  13  16
ENDBRANCH  12  13
ENDBRANCH   5  12
TORSDOF 5
ENDMDL
MODEL 4
REMARK VINA RESULT:      -5.5      2.441      3.088
REMARK  Name = 193126
REMARK  5 active torsions:
REMARK  status: ('A' for Active; 'I' for Inactive)
REMARK    1  A    between atoms: C_4  and  C_8
REMARK    2  A    between atoms: C_5  and  S_12
REMARK    3  A    between atoms: S_12  and  C_13
REMARK    4  A    between atoms: C_13  and  C_16
REMARK    5  A    between atoms: N_15  and  N_18
REMARK                            x       y       z     vdW  Elec       q    Type
REMARK                         _______ _______ _______ _____ _____    ______ ____
ROOT
ATOM      1  N   UNL     1     -33.255  28.460   4.139  0.00  0.00    -0.197 N 
ATOM      2  N   UNL     1     -33.261  26.827   5.592  0.00  0.00    -0.324 NA
ATOM      3  N   UNL     1     -34.371  27.780   3.834  0.00  0.00    -0.107 NA
ATOM      4  C   UNL     1     -32.601  27.886   5.185  0.00  0.00    +0.246 C 
ATOM      5  C   UNL     1     -34.312  26.819   4.741  0.00  0.00    +0.133 C 
ATOM      6  H   UNL     1     -32.949  29.267   3.668  0.00  0.00    +0.178 HD
ENDROOT
BRANCH   4   8
ATOM      7  O   UNL     1     -30.202  27.741   5.556  0.00  0.00    -0.446 OA
ATOM      8  C   UNL     1     -31.396  28.377   5.732  0.00  0.00    +0.191 C 
ATOM      9  C   UNL     1     -31.218  29.516   6.492  0.00  0.00    +0.045 C 
ATOM     10  C   UNL     1     -29.837  29.579   6.797  0.00  0.00    +0.044 C 
ATOM     11  C   UNL     1     -29.263  28.477   6.206  0.00  0.00    +0.180 C 
ENDBRANCH   4   8
BRANCH   5  12
ATOM     12  S   UNL     1     -35.569  25.575   4.826  0.00  0.00    -0.019 S 
BRANCH  12  13
ATOM     13  C   UNL     1     -34.593  24.187   5.454  0.00  0.00    +0.159 C 
BRANCH  13  16
ATOM     14  O   UNL     1     -36.472  22.896   4.709  0.00  0.00    -0.273 OA
ATOM     15  N   UNL     1     -34.828  21.845   5.972  0.00  0.00    -0.252 N 
ATOM     16  C   UNL     1     -35.407  22.920   5.324  0.00  0.00    +0.247 C 
ATOM     17  H   UNL     1     -33.970  21.948   6.443  0.00  0.00    +0.169 HD
BRANCH  15  18
ATOM     18  N   UNL     1     -35.471  20.624   5.948  0.00  0.00    -0.254 NA
ATOM     19  H   UNL     1     -35.874  20.470   5.022  0.00  0.00    +0.140 HD
ATOM     20  H   UNL     1     -36.214  20.616   6.647  0.00  0.00    +0.140 HD
ENDBRANCH  15  18
ENDBRANCH  13  16
ENDBRANCH  12  13
ENDBRANCH   5  12
TORSDOF 5
ENDMDL
MODEL 5
REMARK VINA RESULT:      -5.4      4.475      6.679
REMARK  Name = 193126
REMARK  5 active torsions:
REMARK  status: ('A' for Active; 'I' for Inactive)
REMARK    1  A    between atoms: C_4  and  C_8
REMARK    2  A    between atoms: C_5  and  S_12
REMARK    3  A    between atoms: S_12  and  C_13
REMARK    4  A    between atoms: C_13  and  C_16
REMARK    5  A    between atoms: N_15  and  N_18
REMARK                            x       y       z     vdW  Elec       q    Type
REMARK                         _______ _______ _______ _____ _____    ______ ____
ROOT
ATOM      1  N   UNL     1     -33.327  27.966   4.400  0.00  0.00    -0.197 N 
ATOM      2  N   UNL     1     -32.609  27.352   6.370  0.00  0.00    -0.324 NA
ATOM      3  N   UNL     1     -32.525  28.978   4.764  0.00  0.00    -0.107 NA
ATOM      4  C   UNL     1     -33.371  27.003   5.360  0.00  0.00    +0.246 C 
ATOM      5  C   UNL     1     -32.130  28.545   5.950  0.00  0.00    +0.133 C 
ATOM      6  H   UNL     1     -33.818  27.924   3.548  0.00  0.00    +0.178 HD
ENDROOT
BRANCH   4   8
ATOM      7  O   UNL     1     -33.618  24.663   4.746  0.00  0.00    -0.446 OA
ATOM      8  C   UNL     1     -34.130  25.818   5.260  0.00  0.00    +0.191 C 
ATOM      9  C   UNL     1     -35.443  25.625   5.641  0.00  0.00    +0.045 C 
ATOM     10  C   UNL     1     -35.750  24.275   5.343  0.00  0.00    +0.044 C 
ATOM     11  C   UNL     1     -34.608  23.733   4.801  0.00  0.00    +0.180 C 
ENDBRANCH   4   8
BRANCH   5  12
ATOM     12  S   UNL     1     -31.017  29.501   6.940  0.00  0.00    -0.019 S 
BRANCH  12  13
ATOM     13  C   UNL     1     -29.551  29.470   5.881  0.00  0.00    +0.159 C 
BRANCH  13  16
ATOM     14  O   UNL     1     -28.941  27.434   4.771  0.00  0.00    -0.273 OA
ATOM     15  N   UNL     1     -28.656  27.576   7.073  0.00  0.00    -0.252 N 
ATOM     16  C   UNL     1     -29.017  28.057   5.828  0.00  0.00    +0.247 C 
ATOM     17  H   UNL     1     -28.748  28.141   7.874  0.00  0.00    +0.169 HD
BRANCH  15  18
ATOM     18  N   UNL     1     -28.164  26.291   7.176  0.00  0.00    -0.254 NA
ATOM     19  H   UNL     1     -27.255  26.236   6.715  0.00  0.00    +0.140 HD
ATOM     20  H   UNL     1     -28.811  25.641   6.728  0.00  0.00    +0.140 HD
ENDBRANCH  15  18
ENDBRANCH  13  16
ENDBRANCH  12  13
ENDBRANCH   5  12
TORSDOF 5
ENDMDL
MODEL 6
REMARK VINA RESULT:      -5.3      1.985      6.362
REMARK  Name = 193126
REMARK  5 active torsions:
REMARK  status: ('A' for Active; 'I' for Inactive)
REMARK    1  A    between atoms: C_4  and  C_8
REMARK    2  A    between atoms: C_5  and  S_12
REMARK    3  A    between atoms: S_12  and  C_13
REMARK    4  A    between atoms: C_13  and  C_16
REMARK    5  A    between atoms: N_15  and  N_18
REMARK                            x       y       z     vdW  Elec       q    Type
REMARK                         _______ _______ _______ _____ _____    ______ ____
ROOT
ATOM      1  N   UNL     1     -35.970  21.903   5.146  0.00  0.00    -0.197 N 
ATOM      2  N   UNL     1     -35.763  23.572   3.750  0.00  0.00    -0.324 NA
ATOM      3  N   UNL     1     -35.887  22.972   5.954  0.00  0.00    -0.107 NA
ATOM      4  C   UNL     1     -35.896  22.269   3.838  0.00  0.00    +0.246 C 
ATOM      5  C   UNL     1     -35.765  23.933   5.054  0.00  0.00    +0.133 C 
ATOM      6  H   UNL     1     -36.072  20.976   5.459  0.00  0.00    +0.178 HD
ENDROOT
BRANCH   4   8
ATOM      7  O   UNL     1     -37.076  21.203   1.998  0.00  0.00    -0.446 OA
ATOM      8  C   UNL     1     -35.954  21.363   2.757  0.00  0.00    +0.191 C 
ATOM      9  C   UNL     1     -34.951  20.531   2.302  0.00  0.00    +0.045 C 
ATOM     10  C   UNL     1     -35.491  19.822   1.201  0.00  0.00    +0.044 C 
ATOM     11  C   UNL     1     -36.785  20.266   1.057  0.00  0.00    +0.180 C 
ENDBRANCH   4   8
BRANCH   5  12
ATOM     12  S   UNL     1     -35.612  25.626   5.550  0.00  0.00    -0.019 S 
BRANCH  12  13
ATOM     13  C   UNL     1     -34.479  26.225   4.274  0.00  0.00    +0.159 C 
BRANCH  13  16
ATOM     14  O   UNL     1     -34.815  28.421   3.372  0.00  0.00    -0.273 OA
ATOM     15  N   UNL     1     -36.293  26.732   2.770  0.00  0.00    -0.252 N 
ATOM     16  C   UNL     1     -35.195  27.253   3.429  0.00  0.00    +0.247 C 
ATOM     17  H   UNL     1     -36.531  25.782   2.869  0.00  0.00    +0.169 HD
BRANCH  15  18
ATOM     18  N   UNL     1     -37.051  27.564   1.972  0.00  0.00    -0.254 NA
ATOM     19  H   UNL     1     -38.027  27.268   2.002  0.00  0.00    +0.140 HD
ATOM     20  H   UNL     1     -36.711  27.517   1.011  0.00  0.00    +0.140 HD
ENDBRANCH  15  18
ENDBRANCH  13  16
ENDBRANCH  12  13
ENDBRANCH   5  12
TORSDOF 5
ENDMDL
MODEL 7
REMARK VINA RESULT:      -5.3      3.190      5.657
REMARK  Name = 193126
REMARK  5 active torsions:
REMARK  status: ('A' for Active; 'I' for Inactive)
REMARK    1  A    between atoms: C_4  and  C_8
REMARK    2  A    between atoms: C_5  and  S_12
REMARK    3  A    between atoms: S_12  and  C_13
REMARK    4  A    between atoms: C_13  and  C_16
REMARK    5  A    between atoms: N_15  and  N_18
REMARK                            x       y       z     vdW  Elec       q    Type
REMARK                         _______ _______ _______ _____ _____    ______ ____
ROOT
ATOM      1  N   UNL     1     -37.924  24.839   4.090  0.00  0.00    -0.197 N 
ATOM      2  N   UNL     1     -36.091  25.065   2.922  0.00  0.00    -0.324 NA
ATOM      3  N   UNL     1     -38.208  25.859   3.266  0.00  0.00    -0.107 NA
ATOM      4  C   UNL     1     -36.664  24.373   3.879  0.00  0.00    +0.246 C 
ATOM      5  C   UNL     1     -37.069  25.940   2.597  0.00  0.00    +0.133 C 
ATOM      6  H   UNL     1     -38.546  24.475   4.759  0.00  0.00    +0.178 HD
ENDROOT
BRANCH   4   8
ATOM      7  O   UNL     1     -36.005  23.295   5.957  0.00  0.00    -0.446 OA
ATOM      8  C   UNL     1     -36.083  23.304   4.595  0.00  0.00    +0.191 C 
ATOM      9  C   UNL     1     -35.527  22.149   4.082  0.00  0.00    +0.045 C 
ATOM     10  C   UNL     1     -35.085  21.391   5.193  0.00  0.00    +0.044 C 
ATOM     11  C   UNL     1     -35.398  22.131   6.309  0.00  0.00    +0.180 C 
ENDBRANCH   4   8
BRANCH   5  12
ATOM     12  S   UNL     1     -36.848  27.152   1.326  0.00  0.00    -0.019 S 
BRANCH  12  13
ATOM     13  C   UNL     1     -35.104  27.557   1.578  0.00  0.00    +0.159 C 
BRANCH  13  16
ATOM     14  O   UNL     1     -34.485  28.061   3.839  0.00  0.00    -0.273 OA
ATOM     15  N   UNL     1     -35.493  29.722   2.564  0.00  0.00    -0.252 N 
ATOM     16  C   UNL     1     -34.982  28.456   2.786  0.00  0.00    +0.247 C 
ATOM     17  H   UNL     1     -35.875  29.960   1.688  0.00  0.00    +0.169 HD
BRANCH  15  18
ATOM     18  N   UNL     1     -35.460  30.646   3.587  0.00  0.00    -0.254 NA
ATOM     19  H   UNL     1     -34.652  31.257   3.468  0.00  0.00    +0.140 HD
ATOM     20  H   UNL     1     -35.391  30.161   4.482  0.00  0.00    +0.140 HD
ENDBRANCH  15  18
ENDBRANCH  13  16
ENDBRANCH  12  13
ENDBRANCH   5  12
TORSDOF 5
ENDMDL
MODEL 8
REMARK VINA RESULT:      -5.1      3.822      4.590
REMARK  Name = 193126
REMARK  5 active torsions:
REMARK  status: ('A' for Active; 'I' for Inactive)
REMARK    1  A    between atoms: C_4  and  C_8
REMARK    2  A    between atoms: C_5  and  S_12
REMARK    3  A    between atoms: S_12  and  C_13
REMARK    4  A    between atoms: C_13  and  C_16
REMARK    5  A    between atoms: N_15  and  N_18
REMARK                            x       y       z     vdW  Elec       q    Type
REMARK                         _______ _______ _______ _____ _____    ______ ____
ROOT
ATOM      1  N   UNL     1     -37.588  26.414   2.976  0.00  0.00    -0.197 N 
ATOM      2  N   UNL     1     -38.786  24.638   3.411  0.00  0.00    -0.324 NA
ATOM      3  N   UNL     1     -38.712  26.620   2.271  0.00  0.00    -0.107 NA
ATOM      4  C   UNL     1     -37.641  25.234   3.651  0.00  0.00    +0.246 C 
ATOM      5  C   UNL     1     -39.381  25.521   2.577  0.00  0.00    +0.133 C 
ATOM      6  H   UNL     1     -36.827  27.035   3.002  0.00  0.00    +0.178 HD
ENDROOT
BRANCH   4   8
ATOM      7  O   UNL     1     -36.518  23.435   4.842  0.00  0.00    -0.446 OA
ATOM      8  C   UNL     1     -36.606  24.746   4.477  0.00  0.00    +0.191 C 
ATOM      9  C   UNL     1     -35.561  25.461   5.028  0.00  0.00    +0.045 C 
ATOM     10  C   UNL     1     -34.792  24.534   5.772  0.00  0.00    +0.044 C 
ATOM     11  C   UNL     1     -35.415  23.317   5.627  0.00  0.00    +0.180 C 
ENDBRANCH   4   8
BRANCH   5  12
ATOM     12  S   UNL     1     -40.997  25.229   1.914  0.00  0.00    -0.019 S 
BRANCH  12  13
ATOM     13  C   UNL     1     -40.558  24.369   0.385  0.00  0.00    +0.159 C 
BRANCH  13  16
ATOM     14  O   UNL     1     -41.432  22.210  -0.182  0.00  0.00    -0.273 OA
ATOM     15  N   UNL     1     -40.099  22.410   1.711  0.00  0.00    -0.252 N 
ATOM     16  C   UNL     1     -40.750  22.884   0.587  0.00  0.00    +0.247 C 
ATOM     17  H   UNL     1     -39.571  23.018   2.277  0.00  0.00    +0.169 HD
BRANCH  15  18
ATOM     18  N   UNL     1     -40.200  21.071   2.027  0.00  0.00    -0.254 NA
ATOM     19  H   UNL     1     -40.005  20.510   1.197  0.00  0.00    +0.140 HD
ATOM     20  H   UNL     1     -41.143  20.868   2.359  0.00  0.00    +0.140 HD
ENDBRANCH  15  18
ENDBRANCH  13  16
ENDBRANCH  12  13
ENDBRANCH   5  12
TORSDOF 5
ENDMDL
MODEL 9
REMARK VINA RESULT:      -5.1      4.498      6.141
REMARK  Name = 193126
REMARK  5 active torsions:
REMARK  status: ('A' for Active; 'I' for Inactive)
REMARK    1  A    between atoms: C_4  and  C_8
REMARK    2  A    between atoms: C_5  and  S_12
REMARK    3  A    between atoms: S_12  and  C_13
REMARK    4  A    between atoms: C_13  and  C_16
REMARK    5  A    between atoms: N_15  and  N_18
REMARK                            x       y       z     vdW  Elec       q    Type
REMARK                         _______ _______ _______ _____ _____    ______ ____
ROOT
ATOM      1  N   UNL     1     -36.653  19.947   2.382  0.00  0.00    -0.197 N 
ATOM      2  N   UNL     1     -34.847  20.905   1.610  0.00  0.00    -0.324 NA
ATOM      3  N   UNL     1     -36.556  19.461   1.134  0.00  0.00    -0.107 NA
ATOM      4  C   UNL     1     -35.634  20.804   2.656  0.00  0.00    +0.246 C 
ATOM      5  C   UNL     1     -35.455  20.075   0.732  0.00  0.00    +0.133 C 
ATOM      6  H   UNL     1     -37.369  19.713   3.015  0.00  0.00    +0.178 HD
ENDROOT
BRANCH   4   8
ATOM      7  O   UNL     1     -35.121  20.819   5.033  0.00  0.00    -0.446 OA
ATOM      8  C   UNL     1     -35.470  21.472   3.889  0.00  0.00    +0.191 C 
ATOM      9  C   UNL     1     -35.623  22.821   4.142  0.00  0.00    +0.045 C 
ATOM     10  C   UNL     1     -35.351  23.001   5.520  0.00  0.00    +0.044 C 
ATOM     11  C   UNL     1     -35.051  21.754   6.017  0.00  0.00    +0.180 C 
ENDBRANCH   4   8
BRANCH   5  12
ATOM     12  S   UNL     1     -34.812  19.811  -0.896  0.00  0.00    -0.019 S 
BRANCH  12  13
ATOM     13  C   UNL     1     -33.726  18.401  -0.579  0.00  0.00    +0.159 C 
BRANCH  13  16
ATOM     14  O   UNL     1     -34.771  16.711  -1.921  0.00  0.00    -0.273 OA
ATOM     15  N   UNL     1     -34.879  16.520   0.392  0.00  0.00    -0.252 N 
ATOM     16  C   UNL     1     -34.507  17.125  -0.794  0.00  0.00    +0.247 C 
ATOM     17  H   UNL     1     -34.626  16.917   1.257  0.00  0.00    +0.169 HD
BRANCH  15  18
ATOM     18  N   UNL     1     -35.611  15.351   0.346  0.00  0.00    -0.254 NA
ATOM     19  H   UNL     1     -35.061  14.623  -0.111  0.00  0.00    +0.140 HD
ATOM     20  H   UNL     1     -36.471  15.508  -0.179  0.00  0.00    +0.140 HD
ENDBRANCH  15  18
ENDBRANCH  13  16
ENDBRANCH  12  13
ENDBRANCH   5  12
TORSDOF 5
ENDMDL
