MODEL 1
REMARK VINA RESULT:      -5.9      0.000      0.000
REMARK  Name = 54964
REMARK  4 active torsions:
REMARK  status: ('A' for Active; 'I' for Inactive)
REMARK    1  A    between atoms: C_5  and  C_17
REMARK    2  A    between atoms: C_11  and  C_14
REMARK    3  A    between atoms: C_14  and  O_15
REMARK    4  A    between atoms: C_17  and  C_18
REMARK                            x       y       z     vdW  Elec       q    Type
REMARK                         _______ _______ _______ _____ _____    ______ ____
ROOT
ATOM      1  S   UNL     1     -37.432  25.032   3.712  0.00  0.00    -0.064 S 
ATOM      2  O   UNL     1     -35.426  20.529   3.642  0.00  0.00    -0.274 OA
ATOM      3  N   UNL     1     -38.388  23.029   2.196  0.00  0.00    -0.377 NA
ATOM      4  N   UNL     1     -37.273  20.911   2.300  0.00  0.00    -0.254 N 
ATOM      5  C   UNL     1     -36.066  24.706   4.690  0.00  0.00    +0.002 C 
ATOM      6  C   UNL     1     -35.627  23.408   4.555  0.00  0.00    -0.026 C 
ATOM      7  C   UNL     1     -36.428  22.673   3.636  0.00  0.00    +0.154 C 
ATOM      8  C   UNL     1     -37.451  23.436   3.100  0.00  0.00    +0.152 C 
ATOM      9  C   UNL     1     -34.460  22.856   5.288  0.00  0.00    +0.027 C 
ATOM     10  C   UNL     1     -36.297  21.283   3.223  0.00  0.00    +0.239 C 
ATOM     11  C   UNL     1     -38.250  21.788   1.843  0.00  0.00    +0.262 C 
ATOM     12  H   UNL     1     -37.270  19.988   1.956  0.00  0.00    +0.157 HD
ENDROOT
BRANCH  11  14
ATOM     13  O   UNL     1     -38.913  21.056  -0.307  0.00  0.00    -0.241 OA
ATOM     14  C   UNL     1     -39.199  21.210   0.864  0.00  0.00    +0.383 C 
BRANCH  14  15
ATOM     15  O   UNL     1     -40.348  20.910   1.484  0.00  0.00    -0.474 OA
ATOM     16  H   UNL     1     -40.366  20.818   2.416  0.00  0.00    +0.296 HD
ENDBRANCH  14  15
ENDBRANCH  11  14
BRANCH   5  17
ATOM     17  C   UNL     1     -35.515  25.789   5.537  0.00  0.00    +0.032 C 
BRANCH  17  18
ATOM     18  C   UNL     1     -34.016  26.104   5.274  0.00  0.00    +0.005 C 
ATOM     19  C   UNL     1     -33.337  26.708   6.505  0.00  0.00    +0.000 C 
ATOM     20  C   UNL     1     -33.864  27.058   4.085  0.00  0.00    +0.000 C 
ENDBRANCH  17  18
ENDBRANCH   5  17
TORSDOF 4
ENDMDL
MODEL 2
REMARK VINA RESULT:      -5.8      2.422      3.021
REMARK  Name = 54964
REMARK  4 active torsions:
REMARK  status: ('A' for Active; 'I' for Inactive)
REMARK    1  A    between atoms: C_5  and  C_17
REMARK    2  A    between atoms: C_11  and  C_14
REMARK    3  A    between atoms: C_14  and  O_15
REMARK    4  A    between atoms: C_17  and  C_18
REMARK                            x       y       z     vdW  Elec       q    Type
REMARK                         _______ _______ _______ _____ _____    ______ ____
ROOT
ATOM      1  S   UNL     1     -34.843  25.217   1.794  0.00  0.00    -0.064 S 
ATOM      2  O   UNL     1     -36.020  22.888   5.978  0.00  0.00    -0.274 OA
ATOM      3  N   UNL     1     -35.233  22.561   1.930  0.00  0.00    -0.377 NA
ATOM      4  N   UNL     1     -35.798  21.615   4.058  0.00  0.00    -0.254 N 
ATOM      5  C   UNL     1     -35.017  26.120   3.238  0.00  0.00    +0.002 C 
ATOM      6  C   UNL     1     -35.345  25.325   4.313  0.00  0.00    -0.026 C 
ATOM      7  C   UNL     1     -35.456  23.955   3.942  0.00  0.00    +0.154 C 
ATOM      8  C   UNL     1     -35.207  23.751   2.596  0.00  0.00    +0.152 C 
ATOM      9  C   UNL     1     -35.557  25.848   5.687  0.00  0.00    +0.027 C 
ATOM     10  C   UNL     1     -35.783  22.809   4.778  0.00  0.00    +0.239 C 
ATOM     11  C   UNL     1     -35.528  21.555   2.695  0.00  0.00    +0.262 C 
ATOM     12  H   UNL     1     -36.009  20.780   4.533  0.00  0.00    +0.157 HD
ENDROOT
BRANCH  11  14
ATOM     13  O   UNL     1     -34.688  19.735   1.439  0.00  0.00    -0.241 OA
ATOM     14  C   UNL     1     -35.591  20.198   2.106  0.00  0.00    +0.383 C 
BRANCH  14  15
ATOM     15  O   UNL     1     -36.756  19.625   2.436  0.00  0.00    -0.474 OA
ATOM     16  H   UNL     1     -37.410  19.482   1.779  0.00  0.00    +0.296 HD
ENDBRANCH  14  15
ENDBRANCH  11  14
BRANCH   5  17
ATOM     17  C   UNL     1     -34.809  27.586   3.197  0.00  0.00    +0.032 C 
BRANCH  17  18
ATOM     18  C   UNL     1     -33.317  28.015   3.126  0.00  0.00    +0.005 C 
ATOM     19  C   UNL     1     -32.611  27.842   4.473  0.00  0.00    +0.000 C 
ATOM     20  C   UNL     1     -33.194  29.471   2.666  0.00  0.00    +0.000 C 
ENDBRANCH  17  18
ENDBRANCH   5  17
TORSDOF 4
ENDMDL
MODEL 3
REMARK VINA RESULT:      -5.7      3.994      6.042
REMARK  Name = 54964
REMARK  4 active torsions:
REMARK  status: ('A' for Active; 'I' for Inactive)
REMARK    1  A    between atoms: C_5  and  C_17
REMARK    2  A    between atoms: C_11  and  C_14
REMARK    3  A    between atoms: C_14  and  O_15
REMARK    4  A    between atoms: C_17  and  C_18
REMARK                            x       y       z     vdW  Elec       q    Type
REMARK                         _______ _______ _______ _____ _____    ______ ____
ROOT
ATOM      1  S   UNL     1     -35.338  23.461   1.767  0.00  0.00    -0.064 S 
ATOM      2  O   UNL     1     -35.524  25.797   6.105  0.00  0.00    -0.274 OA
ATOM      3  N   UNL     1     -35.358  26.139   1.985  0.00  0.00    -0.377 NA
ATOM      4  N   UNL     1     -35.452  27.087   4.184  0.00  0.00    -0.254 N 
ATOM      5  C   UNL     1     -35.392  22.545   3.212  0.00  0.00    +0.002 C 
ATOM      6  C   UNL     1     -35.443  23.344   4.333  0.00  0.00    -0.026 C 
ATOM      7  C   UNL     1     -35.435  24.727   3.995  0.00  0.00    +0.154 C 
ATOM      8  C   UNL     1     -35.380  24.937   2.628  0.00  0.00    +0.152 C 
ATOM      9  C   UNL     1     -35.496  22.813   5.718  0.00  0.00    +0.027 C 
ATOM     10  C   UNL     1     -35.475  25.881   4.882  0.00  0.00    +0.239 C 
ATOM     11  C   UNL     1     -35.395  27.152   2.796  0.00  0.00    +0.262 C 
ATOM     12  H   UNL     1     -35.477  27.929   4.694  0.00  0.00    +0.157 HD
ENDROOT
BRANCH  11  14
ATOM     13  O   UNL     1     -35.430  28.738   1.041  0.00  0.00    -0.241 OA
ATOM     14  C   UNL     1     -35.378  28.522   2.235  0.00  0.00    +0.383 C 
BRANCH  14  15
ATOM     15  O   UNL     1     -35.305  29.410   3.236  0.00  0.00    -0.474 OA
ATOM     16  H   UNL     1     -35.523  30.308   3.081  0.00  0.00    +0.296 HD
ENDBRANCH  14  15
ENDBRANCH  11  14
BRANCH   5  17
ATOM     17  C   UNL     1     -35.383  21.067   3.126  0.00  0.00    +0.032 C 
BRANCH  17  18
ATOM     18  C   UNL     1     -35.203  20.514   1.685  0.00  0.00    +0.005 C 
ATOM     19  C   UNL     1     -36.474  19.827   1.177  0.00  0.00    +0.000 C 
ATOM     20  C   UNL     1     -34.030  19.531   1.624  0.00  0.00    +0.000 C 
ENDBRANCH  17  18
ENDBRANCH   5  17
TORSDOF 4
ENDMDL
MODEL 4
REMARK VINA RESULT:      -5.6      3.151      4.850
REMARK  Name = 54964
REMARK  4 active torsions:
REMARK  status: ('A' for Active; 'I' for Inactive)
REMARK    1  A    between atoms: C_5  and  C_17
REMARK    2  A    between atoms: C_11  and  C_14
REMARK    3  A    between atoms: C_14  and  O_15
REMARK    4  A    between atoms: C_17  and  C_18
REMARK                            x       y       z     vdW  Elec       q    Type
REMARK                         _______ _______ _______ _____ _____    ______ ____
ROOT
ATOM      1  S   UNL     1     -37.725  21.888   2.209  0.00  0.00    -0.064 S 
ATOM      2  O   UNL     1     -36.456  25.948   4.702  0.00  0.00    -0.274 OA
ATOM      3  N   UNL     1     -39.329  24.034   2.423  0.00  0.00    -0.377 NA
ATOM      4  N   UNL     1     -38.532  25.912   3.679  0.00  0.00    -0.254 N 
ATOM      5  C   UNL     1     -36.198  21.957   2.981  0.00  0.00    +0.002 C 
ATOM      6  C   UNL     1     -35.999  23.153   3.632  0.00  0.00    -0.026 C 
ATOM      7  C   UNL     1     -37.117  24.024   3.493  0.00  0.00    +0.154 C 
ATOM      8  C   UNL     1     -38.132  23.461   2.739  0.00  0.00    +0.152 C 
ATOM      9  C   UNL     1     -34.761  23.482   4.383  0.00  0.00    +0.027 C 
ATOM     10  C   UNL     1     -37.297  25.366   4.026  0.00  0.00    +0.239 C 
ATOM     11  C   UNL     1     -39.467  25.229   2.909  0.00  0.00    +0.262 C 
ATOM     12  H   UNL     1     -38.752  26.819   3.992  0.00  0.00    +0.157 HD
ENDROOT
BRANCH  11  14
ATOM     13  O   UNL     1     -40.958  27.050   3.153  0.00  0.00    -0.241 OA
ATOM     14  C   UNL     1     -40.721  25.972   2.645  0.00  0.00    +0.383 C 
BRANCH  14  15
ATOM     15  O   UNL     1     -41.481  25.271   1.794  0.00  0.00    -0.474 OA
ATOM     16  H   UNL     1     -42.390  25.137   1.980  0.00  0.00    +0.296 HD
ENDBRANCH  14  15
ENDBRANCH  11  14
BRANCH   5  17
ATOM     17  C   UNL     1     -35.291  20.790   2.882  0.00  0.00    +0.032 C 
BRANCH  17  18
ATOM     18  C   UNL     1     -34.824  20.468   1.435  0.00  0.00    +0.005 C 
ATOM     19  C   UNL     1     -33.826  19.308   1.406  0.00  0.00    +0.000 C 
ATOM     20  C   UNL     1     -34.195  21.702   0.782  0.00  0.00    +0.000 C 
ENDBRANCH  17  18
ENDBRANCH   5  17
TORSDOF 4
ENDMDL
MODEL 5
REMARK VINA RESULT:      -5.4      3.409      4.716
REMARK  Name = 54964
REMARK  4 active torsions:
REMARK  status: ('A' for Active; 'I' for Inactive)
REMARK    1  A    between atoms: C_5  and  C_17
REMARK    2  A    between atoms: C_11  and  C_14
REMARK    3  A    between atoms: C_14  and  O_15
REMARK    4  A    between atoms: C_17  and  C_18
REMARK                            x       y       z     vdW  Elec       q    Type
REMARK                         _______ _______ _______ _____ _____    ______ ____
ROOT
ATOM      1  S   UNL     1     -37.523  25.354   3.755  0.00  0.00    -0.064 S 
ATOM      2  O   UNL     1     -40.697  22.674   1.099  0.00  0.00    -0.274 OA
ATOM      3  N   UNL     1     -39.869  26.321   2.867  0.00  0.00    -0.377 NA
ATOM      4  N   UNL     1     -41.275  24.861   1.590  0.00  0.00    -0.254 N 
ATOM      5  C   UNL     1     -37.136  23.732   3.370  0.00  0.00    +0.002 C 
ATOM      6  C   UNL     1     -38.122  23.124   2.625  0.00  0.00    -0.026 C 
ATOM      7  C   UNL     1     -39.210  24.006   2.370  0.00  0.00    +0.154 C 
ATOM      8  C   UNL     1     -39.017  25.257   2.929  0.00  0.00    +0.152 C 
ATOM      9  C   UNL     1     -38.046  21.718   2.153  0.00  0.00    +0.027 C 
ATOM     10  C   UNL     1     -40.435  23.749   1.628  0.00  0.00    +0.239 C 
ATOM     11  C   UNL     1     -40.953  26.068   2.201  0.00  0.00    +0.262 C 
ATOM     12  H   UNL     1     -42.132  24.790   1.110  0.00  0.00    +0.157 HD
ENDROOT
BRANCH  11  14
ATOM     13  O   UNL     1     -42.693  27.212   1.078  0.00  0.00    -0.241 OA
ATOM     14  C   UNL     1     -41.970  27.134   2.051  0.00  0.00    +0.383 C 
BRANCH  14  15
ATOM     15  O   UNL     1     -41.937  27.932   3.127  0.00  0.00    -0.474 OA
ATOM     16  H   UNL     1     -42.514  27.770   3.848  0.00  0.00    +0.296 HD
ENDBRANCH  14  15
ENDBRANCH  11  14
BRANCH   5  17
ATOM     17  C   UNL     1     -35.851  23.169   3.844  0.00  0.00    +0.032 C 
BRANCH  17  18
ATOM     18  C   UNL     1     -35.558  23.429   5.348  0.00  0.00    +0.005 C 
ATOM     19  C   UNL     1     -34.438  24.454   5.540  0.00  0.00    +0.000 C 
ATOM     20  C   UNL     1     -35.188  22.125   6.061  0.00  0.00    +0.000 C 
ENDBRANCH  17  18
ENDBRANCH   5  17
TORSDOF 4
ENDMDL
MODEL 6
REMARK VINA RESULT:      -5.4      2.076      3.175
REMARK  Name = 54964
REMARK  4 active torsions:
REMARK  status: ('A' for Active; 'I' for Inactive)
REMARK    1  A    between atoms: C_5  and  C_17
REMARK    2  A    between atoms: C_11  and  C_14
REMARK    3  A    between atoms: C_14  and  O_15
REMARK    4  A    between atoms: C_17  and  C_18
REMARK                            x       y       z     vdW  Elec       q    Type
REMARK                         _______ _______ _______ _____ _____    ______ ____
ROOT
ATOM      1  S   UNL     1     -37.623  23.094   2.776  0.00  0.00    -0.064 S 
ATOM      2  O   UNL     1     -36.792  18.938   0.257  0.00  0.00    -0.274 OA
ATOM      3  N   UNL     1     -39.433  22.004   1.115  0.00  0.00    -0.377 NA
ATOM      4  N   UNL     1     -38.841  19.979  -0.021  0.00  0.00    -0.254 N 
ATOM      5  C   UNL     1     -36.122  22.291   2.952  0.00  0.00    +0.002 C 
ATOM      6  C   UNL     1     -36.048  21.151   2.183  0.00  0.00    -0.026 C 
ATOM      7  C   UNL     1     -37.244  20.936   1.441  0.00  0.00    +0.154 C 
ATOM      8  C   UNL     1     -38.190  21.921   1.669  0.00  0.00    +0.152 C 
ATOM      9  C   UNL     1     -34.859  20.262   2.145  0.00  0.00    +0.027 C 
ATOM     10  C   UNL     1     -37.562  19.854   0.522  0.00  0.00    +0.239 C 
ATOM     11  C   UNL     1     -39.694  21.029   0.299  0.00  0.00    +0.262 C 
ATOM     12  H   UNL     1     -39.153  19.296  -0.657  0.00  0.00    +0.157 HD
ENDROOT
BRANCH  11  14
ATOM     13  O   UNL     1     -41.797  21.915  -0.324  0.00  0.00    -0.241 OA
ATOM     14  C   UNL     1     -41.011  20.991  -0.378  0.00  0.00    +0.383 C 
BRANCH  14  15
ATOM     15  O   UNL     1     -41.147  19.822  -1.017  0.00  0.00    -0.474 OA
ATOM     16  H   UNL     1     -40.388  19.356  -1.308  0.00  0.00    +0.296 HD
ENDBRANCH  14  15
ENDBRANCH  11  14
BRANCH   5  17
ATOM     17  C   UNL     1     -35.103  22.866   3.860  0.00  0.00    +0.032 C 
BRANCH  17  18
ATOM     18  C   UNL     1     -35.648  23.263   5.260  0.00  0.00    +0.005 C 
ATOM     19  C   UNL     1     -35.112  24.623   5.714  0.00  0.00    +0.000 C 
ATOM     20  C   UNL     1     -35.292  22.198   6.301  0.00  0.00    +0.000 C 
ENDBRANCH  17  18
ENDBRANCH   5  17
TORSDOF 4
ENDMDL
MODEL 7
REMARK VINA RESULT:      -5.3      3.230      6.375
REMARK  Name = 54964
REMARK  4 active torsions:
REMARK  status: ('A' for Active; 'I' for Inactive)
REMARK    1  A    between atoms: C_5  and  C_17
REMARK    2  A    between atoms: C_11  and  C_14
REMARK    3  A    between atoms: C_14  and  O_15
REMARK    4  A    between atoms: C_17  and  C_18
REMARK                            x       y       z     vdW  Elec       q    Type
REMARK                         _______ _______ _______ _____ _____    ______ ____
ROOT
ATOM      1  S   UNL     1     -35.501  21.400   2.660  0.00  0.00    -0.064 S 
ATOM      2  O   UNL     1     -39.554  24.198   2.896  0.00  0.00    -0.274 OA
ATOM      3  N   UNL     1     -35.633  23.664   4.103  0.00  0.00    -0.377 NA
ATOM      4  N   UNL     1     -37.694  24.886   4.090  0.00  0.00    -0.254 N 
ATOM      5  C   UNL     1     -36.900  20.928   1.793  0.00  0.00    +0.002 C 
ATOM      6  C   UNL     1     -37.940  21.813   1.962  0.00  0.00    -0.026 C 
ATOM      7  C   UNL     1     -37.581  22.893   2.818  0.00  0.00    +0.154 C 
ATOM      8  C   UNL     1     -36.278  22.795   3.273  0.00  0.00    +0.152 C 
ATOM      9  C   UNL     1     -39.271  21.647   1.324  0.00  0.00    +0.027 C 
ATOM     10  C   UNL     1     -38.391  24.025   3.244  0.00  0.00    +0.239 C 
ATOM     11  C   UNL     1     -36.375  24.664   4.469  0.00  0.00    +0.262 C 
ATOM     12  H   UNL     1     -38.154  25.685   4.434  0.00  0.00    +0.157 HD
ENDROOT
BRANCH  11  14
ATOM     13  O   UNL     1     -34.707  25.570   5.882  0.00  0.00    -0.241 OA
ATOM     14  C   UNL     1     -35.804  25.689   5.373  0.00  0.00    +0.383 C 
BRANCH  14  15
ATOM     15  O   UNL     1     -36.674  26.700   5.502  0.00  0.00    -0.474 OA
ATOM     16  H   UNL     1     -37.337  26.664   6.164  0.00  0.00    +0.296 HD
ENDBRANCH  14  15
ENDBRANCH  11  14
BRANCH   5  17
ATOM     17  C   UNL     1     -36.859  19.685   0.988  0.00  0.00    +0.032 C 
BRANCH  17  18
ATOM     18  C   UNL     1     -35.785  19.689  -0.135  0.00  0.00    +0.005 C 
ATOM     19  C   UNL     1     -36.393  20.013  -1.502  0.00  0.00    +0.000 C 
ATOM     20  C   UNL     1     -35.067  18.338  -0.202  0.00  0.00    +0.000 C 
ENDBRANCH  17  18
ENDBRANCH   5  17
TORSDOF 4
ENDMDL
MODEL 8
REMARK VINA RESULT:      -5.2      4.473      7.102
REMARK  Name = 54964
REMARK  4 active torsions:
REMARK  status: ('A' for Active; 'I' for Inactive)
REMARK    1  A    between atoms: C_5  and  C_17
REMARK    2  A    between atoms: C_11  and  C_14
REMARK    3  A    between atoms: C_14  and  O_15
REMARK    4  A    between atoms: C_17  and  C_18
REMARK                            x       y       z     vdW  Elec       q    Type
REMARK                         _______ _______ _______ _____ _____    ______ ____
ROOT
ATOM      1  S   UNL     1     -34.800  23.853   4.797  0.00  0.00    -0.064 S 
ATOM      2  O   UNL     1     -35.276  28.186   2.492  0.00  0.00    -0.274 OA
ATOM      3  N   UNL     1     -33.422  26.048   5.509  0.00  0.00    -0.377 NA
ATOM      4  N   UNL     1     -33.792  28.061   4.264  0.00  0.00    -0.254 N 
ATOM      5  C   UNL     1     -35.887  23.990   3.482  0.00  0.00    +0.002 C 
ATOM      6  C   UNL     1     -35.902  25.260   2.949  0.00  0.00    -0.026 C 
ATOM      7  C   UNL     1     -35.008  26.130   3.634  0.00  0.00    +0.154 C 
ATOM      8  C   UNL     1     -34.340  25.495   4.667  0.00  0.00    +0.152 C 
ATOM      9  C   UNL     1     -36.755  25.658   1.800  0.00  0.00    +0.027 C 
ATOM     10  C   UNL     1     -34.735  27.537   3.381  0.00  0.00    +0.239 C 
ATOM     11  C   UNL     1     -33.195  27.302   5.265  0.00  0.00    +0.262 C 
ATOM     12  H   UNL     1     -33.537  29.008   4.176  0.00  0.00    +0.157 HD
ENDROOT
BRANCH  11  14
ATOM     13  O   UNL     1     -32.149  29.245   6.116  0.00  0.00    -0.241 OA
ATOM     14  C   UNL     1     -32.217  28.033   6.103  0.00  0.00    +0.383 C 
BRANCH  14  15
ATOM     15  O   UNL     1     -31.483  27.153   6.796  0.00  0.00    -0.474 OA
ATOM     16  H   UNL     1     -31.050  27.421   7.583  0.00  0.00    +0.296 HD
ENDBRANCH  14  15
ENDBRANCH  11  14
BRANCH   5  17
ATOM     17  C   UNL     1     -36.662  22.799   3.064  0.00  0.00    +0.032 C 
BRANCH  17  18
ATOM     18  C   UNL     1     -35.909  21.862   2.079  0.00  0.00    +0.005 C 
ATOM     19  C   UNL     1     -35.363  20.618   2.783  0.00  0.00    +0.000 C 
ATOM     20  C   UNL     1     -34.761  22.608   1.394  0.00  0.00    +0.000 C 
ENDBRANCH  17  18
ENDBRANCH   5  17
TORSDOF 4
ENDMDL
MODEL 9
REMARK VINA RESULT:      -5.2      5.305      7.870
REMARK  Name = 54964
REMARK  4 active torsions:
REMARK  status: ('A' for Active; 'I' for Inactive)
REMARK    1  A    between atoms: C_5  and  C_17
REMARK    2  A    between atoms: C_11  and  C_14
REMARK    3  A    between atoms: C_14  and  O_15
REMARK    4  A    between atoms: C_17  and  C_18
REMARK                            x       y       z     vdW  Elec       q    Type
REMARK                         _______ _______ _______ _____ _____    ______ ____
ROOT
ATOM      1  S   UNL     1     -34.462  25.854   5.940  0.00  0.00    -0.064 S 
ATOM      2  O   UNL     1     -31.994  27.312   1.928  0.00  0.00    -0.274 OA
ATOM      3  N   UNL     1     -32.692  27.877   5.966  0.00  0.00    -0.377 NA
ATOM      4  N   UNL     1     -31.593  28.435   3.912  0.00  0.00    -0.254 N 
ATOM      5  C   UNL     1     -34.729  25.051   4.452  0.00  0.00    +0.002 C 
ATOM      6  C   UNL     1     -33.964  25.576   3.433  0.00  0.00    -0.026 C 
ATOM      7  C   UNL     1     -33.151  26.653   3.885  0.00  0.00    +0.154 C 
ATOM      8  C   UNL     1     -33.322  26.914   5.234  0.00  0.00    +0.152 C 
ATOM      9  C   UNL     1     -33.998  25.069   2.038  0.00  0.00    +0.027 C 
ATOM     10  C   UNL     1     -32.212  27.465   3.125  0.00  0.00    +0.239 C 
ATOM     11  C   UNL     1     -31.861  28.588   5.268  0.00  0.00    +0.262 C 
ATOM     12  H   UNL     1     -30.938  29.038   3.491  0.00  0.00    +0.157 HD
ENDROOT
BRANCH  11  14
ATOM     13  O   UNL     1     -30.844  30.721   5.381  0.00  0.00    -0.241 OA
ATOM     14  C   UNL     1     -31.105  29.672   5.935  0.00  0.00    +0.383 C 
BRANCH  14  15
ATOM     15  O   UNL     1     -30.795  29.294   7.182  0.00  0.00    -0.474 OA
ATOM     16  H   UNL     1     -31.220  28.551   7.565  0.00  0.00    +0.296 HD
ENDBRANCH  14  15
ENDBRANCH  11  14
BRANCH   5  17
ATOM     17  C   UNL     1     -35.698  23.932   4.404  0.00  0.00    +0.032 C 
BRANCH  17  18
ATOM     18  C   UNL     1     -35.093  22.550   4.775  0.00  0.00    +0.005 C 
ATOM     19  C   UNL     1     -35.521  21.459   3.790  0.00  0.00    +0.000 C 
ATOM     20  C   UNL     1     -35.499  22.145   6.195  0.00  0.00    +0.000 C 
ENDBRANCH  17  18
ENDBRANCH   5  17
TORSDOF 4
ENDMDL
