MODEL 1
REMARK VINA RESULT:      -6.1      0.000      0.000
REMARK  Name = 5377945
REMARK  6 active torsions:
REMARK  status: ('A' for Active; 'I' for Inactive)
REMARK    1  A    between atoms: C_5  and  C_12
REMARK    2  A    between atoms: C_6  and  O_22
REMARK    3  A    between atoms: C_8  and  O_24
REMARK    4  A    between atoms: C_10  and  O_20
REMARK    5  A    between atoms: C_11  and  O_26
REMARK    6  A    between atoms: C_17  and  O_18
REMARK                            x       y       z     vdW  Elec       q    Type
REMARK                         _______ _______ _______ _____ _____    ______ ____
ROOT
ATOM      1  O   UNL     1     -32.975  26.732   5.289  0.00  0.00    -0.450 OA
ATOM      2  O   UNL     1     -35.315  28.559   2.498  0.00  0.00    -0.283 OA
ATOM      3  C   UNL     1     -35.014  26.744   3.973  0.00  0.00    +0.113 A 
ATOM      4  C   UNL     1     -34.168  26.169   4.919  0.00  0.00    +0.155 A 
ATOM      5  C   UNL     1     -32.599  27.931   4.703  0.00  0.00    +0.182 A 
ATOM      6  C   UNL     1     -36.219  26.123   3.635  0.00  0.00    +0.177 C 
ATOM      7  C   UNL     1     -34.616  28.010   3.339  0.00  0.00    +0.238 A 
ATOM      8  C   UNL     1     -33.320  28.584   3.773  0.00  0.00    +0.208 A 
ATOM      9  C   UNL     1     -34.521  24.966   5.532  0.00  0.00    +0.078 C 
ATOM     10  C   UNL     1     -36.571  24.921   4.250  0.00  0.00    +0.206 C 
ATOM     11  C   UNL     1     -35.723  24.343   5.197  0.00  0.00    +0.174 C 
ENDROOT
BRANCH   5  12
ATOM     12  C   UNL     1     -31.298  28.425   5.188  0.00  0.00    +0.038 C 
ATOM     13  C   UNL     1     -30.151  28.252   4.412  0.00  0.00    +0.006 C 
ATOM     14  C   UNL     1     -31.213  29.066   6.424  0.00  0.00    +0.006 C 
ATOM     15  C   UNL     1     -28.921  28.721   4.874  0.00  0.00    +0.037 C 
ATOM     16  C   UNL     1     -29.982  29.534   6.885  0.00  0.00    +0.037 C 
ATOM     17  C   UNL     1     -28.836  29.362   6.110  0.00  0.00    +0.134 C 
BRANCH  17  18
ATOM     18  O   UNL     1     -27.635  29.818   6.558  0.00  0.00    -0.506 OA
ATOM     19  H   UNL     1     -27.561  30.164   7.426  0.00  0.00    +0.292 HD
ENDBRANCH  17  18
ENDBRANCH   5  12
BRANCH  10  20
ATOM     20  O   UNL     1     -37.744  24.305   3.927  0.00  0.00    -0.465 OA
ATOM     21  C   UNL     1     -37.695  23.322   2.896  0.00  0.00    +0.253 C 
ENDBRANCH  10  20
BRANCH   6  22
ATOM     22  O   UNL     1     -37.073  26.653   2.714  0.00  0.00    -0.503 OA
ATOM     23  H   UNL     1     -37.646  27.355   2.955  0.00  0.00    +0.292 HD
ENDBRANCH   6  22
BRANCH   8  24
ATOM     24  O   UNL     1     -32.903  29.759   3.186  0.00  0.00    -0.501 OA
ATOM     25  H   UNL     1     -32.783  30.527   3.708  0.00  0.00    +0.292 HD
ENDBRANCH   8  24
BRANCH  11  26
ATOM     26  O   UNL     1     -36.059  23.170   5.802  0.00  0.00    -0.503 OA
ATOM     27  H   UNL     1     -36.912  23.061   6.174  0.00  0.00    +0.292 HD
ENDBRANCH  11  26
TORSDOF 6
ENDMDL
MODEL 2
REMARK VINA RESULT:      -6.0      5.749      7.998
REMARK  Name = 5377945
REMARK  6 active torsions:
REMARK  status: ('A' for Active; 'I' for Inactive)
REMARK    1  A    between atoms: C_5  and  C_12
REMARK    2  A    between atoms: C_6  and  O_22
REMARK    3  A    between atoms: C_8  and  O_24
REMARK    4  A    between atoms: C_10  and  O_20
REMARK    5  A    between atoms: C_11  and  O_26
REMARK    6  A    between atoms: C_17  and  O_18
REMARK                            x       y       z     vdW  Elec       q    Type
REMARK                         _______ _______ _______ _____ _____    ______ ____
ROOT
ATOM      1  O   UNL     1     -35.316  22.160   2.096  0.00  0.00    -0.450 OA
ATOM      2  O   UNL     1     -38.921  20.753   0.821  0.00  0.00    -0.283 OA
ATOM      3  C   UNL     1     -37.732  22.382   2.043  0.00  0.00    +0.113 A 
ATOM      4  C   UNL     1     -36.470  22.811   2.447  0.00  0.00    +0.155 A 
ATOM      5  C   UNL     1     -35.410  21.032   1.295  0.00  0.00    +0.182 A 
ATOM      6  C   UNL     1     -38.874  23.086   2.433  0.00  0.00    +0.177 C 
ATOM      7  C   UNL     1     -37.840  21.180   1.202  0.00  0.00    +0.238 A 
ATOM      8  C   UNL     1     -36.566  20.511   0.845  0.00  0.00    +0.208 A 
ATOM      9  C   UNL     1     -36.341  23.947   3.247  0.00  0.00    +0.078 C 
ATOM     10  C   UNL     1     -38.743  24.222   3.232  0.00  0.00    +0.206 C 
ATOM     11  C   UNL     1     -37.479  24.652   3.639  0.00  0.00    +0.174 C 
ENDROOT
BRANCH   5  12
ATOM     12  C   UNL     1     -34.098  20.431   0.993  0.00  0.00    +0.038 C 
ATOM     13  C   UNL     1     -33.209  21.086   0.140  0.00  0.00    +0.006 C 
ATOM     14  C   UNL     1     -33.747  19.206   1.560  0.00  0.00    +0.006 C 
ATOM     15  C   UNL     1     -31.968  20.515  -0.144  0.00  0.00    +0.037 C 
ATOM     16  C   UNL     1     -32.506  18.635   1.275  0.00  0.00    +0.037 C 
ATOM     17  C   UNL     1     -31.616  19.290   0.423  0.00  0.00    +0.134 C 
BRANCH  17  18
ATOM     18  O   UNL     1     -30.406  18.734   0.145  0.00  0.00    -0.506 OA
ATOM     19  H   UNL     1     -29.983  18.192   0.782  0.00  0.00    +0.292 HD
ENDBRANCH  17  18
ENDBRANCH   5  12
BRANCH  10  20
ATOM     20  O   UNL     1     -39.851  24.918   3.620  0.00  0.00    -0.465 OA
ATOM     21  C   UNL     1     -40.273  25.985   2.775  0.00  0.00    +0.253 C 
ENDBRANCH  10  20
BRANCH   6  22
ATOM     22  O   UNL     1     -40.126  22.699   2.058  0.00  0.00    -0.503 OA
ATOM     23  H   UNL     1     -40.744  23.336   1.756  0.00  0.00    +0.292 HD
ENDBRANCH   6  22
BRANCH   8  24
ATOM     24  O   UNL     1     -36.627  19.369   0.076  0.00  0.00    -0.501 OA
ATOM     25  H   UNL     1     -37.331  19.249  -0.530  0.00  0.00    +0.292 HD
ENDBRANCH   8  24
BRANCH  11  26
ATOM     26  O   UNL     1     -37.342  25.760   4.420  0.00  0.00    -0.503 OA
ATOM     27  H   UNL     1     -36.599  26.320   4.312  0.00  0.00    +0.292 HD
ENDBRANCH  11  26
TORSDOF 6
ENDMDL
MODEL 3
REMARK VINA RESULT:      -6.0      1.989      3.050
REMARK  Name = 5377945
REMARK  6 active torsions:
REMARK  status: ('A' for Active; 'I' for Inactive)
REMARK    1  A    between atoms: C_5  and  C_12
REMARK    2  A    between atoms: C_6  and  O_22
REMARK    3  A    between atoms: C_8  and  O_24
REMARK    4  A    between atoms: C_10  and  O_20
REMARK    5  A    between atoms: C_11  and  O_26
REMARK    6  A    between atoms: C_17  and  O_18
REMARK                            x       y       z     vdW  Elec       q    Type
REMARK                         _______ _______ _______ _____ _____    ______ ____
ROOT
ATOM      1  O   UNL     1     -34.460  24.763   4.344  0.00  0.00    -0.450 OA
ATOM      2  O   UNL     1     -37.418  26.479   2.130  0.00  0.00    -0.283 OA
ATOM      3  C   UNL     1     -36.412  24.501   2.925  0.00  0.00    +0.113 A 
ATOM      4  C   UNL     1     -35.377  23.976   3.696  0.00  0.00    +0.155 A 
ATOM      5  C   UNL     1     -34.576  26.140   4.236  0.00  0.00    +0.182 A 
ATOM      6  C   UNL     1     -37.317  23.650   2.287  0.00  0.00    +0.177 C 
ATOM      7  C   UNL     1     -36.534  25.961   2.797  0.00  0.00    +0.238 A 
ATOM      8  C   UNL     1     -35.523  26.771   3.518  0.00  0.00    +0.208 A 
ATOM      9  C   UNL     1     -35.238  22.595   3.831  0.00  0.00    +0.078 C 
ATOM     10  C   UNL     1     -37.177  22.268   2.424  0.00  0.00    +0.206 C 
ATOM     11  C   UNL     1     -36.139  21.741   3.194  0.00  0.00    +0.174 C 
ENDROOT
BRANCH   5  12
ATOM     12  C   UNL     1     -33.529  26.865   4.979  0.00  0.00    +0.038 C 
ATOM     13  C   UNL     1     -32.671  27.735   4.306  0.00  0.00    +0.006 C 
ATOM     14  C   UNL     1     -33.398  26.680   6.355  0.00  0.00    +0.006 C 
ATOM     15  C   UNL     1     -31.681  28.421   5.012  0.00  0.00    +0.037 C 
ATOM     16  C   UNL     1     -32.407  27.366   7.060  0.00  0.00    +0.037 C 
ATOM     17  C   UNL     1     -31.549  28.236   6.388  0.00  0.00    +0.134 C 
BRANCH  17  18
ATOM     18  O   UNL     1     -30.584  28.905   7.074  0.00  0.00    -0.506 OA
ATOM     19  H   UNL     1     -30.779  29.731   7.473  0.00  0.00    +0.292 HD
ENDBRANCH  17  18
ENDBRANCH   5  12
BRANCH  10  20
ATOM     20  O   UNL     1     -38.053  21.426   1.804  0.00  0.00    -0.465 OA
ATOM     21  C   UNL     1     -37.690  20.954   0.509  0.00  0.00    +0.253 C 
ENDBRANCH  10  20
BRANCH   6  22
ATOM     22  O   UNL     1     -38.342  24.124   1.524  0.00  0.00    -0.503 OA
ATOM     23  H   UNL     1     -39.228  24.018   1.810  0.00  0.00    +0.292 HD
ENDBRANCH   6  22
BRANCH   8  24
ATOM     24  O   UNL     1     -35.591  28.143   3.405  0.00  0.00    -0.501 OA
ATOM     25  H   UNL     1     -35.232  28.688   4.077  0.00  0.00    +0.292 HD
ENDBRANCH   8  24
BRANCH  11  26
ATOM     26  O   UNL     1     -35.995  20.394   3.333  0.00  0.00    -0.503 OA
ATOM     27  H   UNL     1     -35.284  20.048   3.836  0.00  0.00    +0.292 HD
ENDBRANCH  11  26
TORSDOF 6
ENDMDL
MODEL 4
REMARK VINA RESULT:      -5.9      3.958      6.897
REMARK  Name = 5377945
REMARK  6 active torsions:
REMARK  status: ('A' for Active; 'I' for Inactive)
REMARK    1  A    between atoms: C_5  and  C_12
REMARK    2  A    between atoms: C_6  and  O_22
REMARK    3  A    between atoms: C_8  and  O_24
REMARK    4  A    between atoms: C_10  and  O_20
REMARK    5  A    between atoms: C_11  and  O_26
REMARK    6  A    between atoms: C_17  and  O_18
REMARK                            x       y       z     vdW  Elec       q    Type
REMARK                         _______ _______ _______ _____ _____    ______ ____
ROOT
ATOM      1  O   UNL     1     -35.249  22.109   2.484  0.00  0.00    -0.450 OA
ATOM      2  O   UNL     1     -39.257  21.969   1.771  0.00  0.00    -0.283 OA
ATOM      3  C   UNL     1     -37.131  21.017   1.409  0.00  0.00    +0.113 A 
ATOM      4  C   UNL     1     -35.770  21.121   1.690  0.00  0.00    +0.155 A 
ATOM      5  C   UNL     1     -36.115  23.037   3.039  0.00  0.00    +0.182 A 
ATOM      6  C   UNL     1     -37.606  19.988   0.592  0.00  0.00    +0.177 C 
ATOM      7  C   UNL     1     -38.054  22.006   1.986  0.00  0.00    +0.238 A 
ATOM      8  C   UNL     1     -37.445  23.053   2.841  0.00  0.00    +0.208 A 
ATOM      9  C   UNL     1     -34.874  20.197   1.152  0.00  0.00    +0.078 C 
ATOM     10  C   UNL     1     -36.708  19.065   0.056  0.00  0.00    +0.206 C 
ATOM     11  C   UNL     1     -35.344  19.169   0.335  0.00  0.00    +0.174 C 
ENDROOT
BRANCH   5  12
ATOM     12  C   UNL     1     -35.425  24.042   3.869  0.00  0.00    +0.038 C 
ATOM     13  C   UNL     1     -35.608  24.050   5.253  0.00  0.00    +0.006 C 
ATOM     14  C   UNL     1     -34.589  24.985   3.271  0.00  0.00    +0.006 C 
ATOM     15  C   UNL     1     -34.954  25.001   6.036  0.00  0.00    +0.037 C 
ATOM     16  C   UNL     1     -33.936  25.936   4.055  0.00  0.00    +0.037 C 
ATOM     17  C   UNL     1     -34.118  25.944   5.438  0.00  0.00    +0.134 C 
BRANCH  17  18
ATOM     18  O   UNL     1     -33.481  26.871   6.203  0.00  0.00    -0.506 OA
ATOM     19  H   UNL     1     -33.572  26.851   7.136  0.00  0.00    +0.292 HD
ENDBRANCH  17  18
ENDBRANCH   5  12
BRANCH  10  20
ATOM     20  O   UNL     1     -37.159  18.057  -0.745  0.00  0.00    -0.465 OA
ATOM     21  C   UNL     1     -37.543  16.844  -0.102  0.00  0.00    +0.253 C 
ENDBRANCH  10  20
BRANCH   6  22
ATOM     22  O   UNL     1     -38.929  19.853   0.293  0.00  0.00    -0.503 OA
ATOM     23  H   UNL     1     -39.575  19.974   0.962  0.00  0.00    +0.292 HD
ENDBRANCH   6  22
BRANCH   8  24
ATOM     24  O   UNL     1     -38.275  24.011   3.383  0.00  0.00    -0.501 OA
ATOM     25  H   UNL     1     -38.187  24.907   3.127  0.00  0.00    +0.292 HD
ENDBRANCH   8  24
BRANCH  11  26
ATOM     26  O   UNL     1     -34.460  18.272  -0.184  0.00  0.00    -0.503 OA
ATOM     27  H   UNL     1     -34.750  17.415  -0.428  0.00  0.00    +0.292 HD
ENDBRANCH  11  26
TORSDOF 6
ENDMDL
MODEL 5
REMARK VINA RESULT:      -5.9      3.415      6.685
REMARK  Name = 5377945
REMARK  6 active torsions:
REMARK  status: ('A' for Active; 'I' for Inactive)
REMARK    1  A    between atoms: C_5  and  C_12
REMARK    2  A    between atoms: C_6  and  O_22
REMARK    3  A    between atoms: C_8  and  O_24
REMARK    4  A    between atoms: C_10  and  O_20
REMARK    5  A    between atoms: C_11  and  O_26
REMARK    6  A    between atoms: C_17  and  O_18
REMARK                            x       y       z     vdW  Elec       q    Type
REMARK                         _______ _______ _______ _____ _____    ______ ____
ROOT
ATOM      1  O   UNL     1     -36.304  22.793   2.266  0.00  0.00    -0.450 OA
ATOM      2  O   UNL     1     -40.366  23.102   2.334  0.00  0.00    -0.283 OA
ATOM      3  C   UNL     1     -38.463  21.966   1.528  0.00  0.00    +0.113 A 
ATOM      4  C   UNL     1     -37.071  21.915   1.546  0.00  0.00    +0.155 A 
ATOM      5  C   UNL     1     -36.943  23.767   3.018  0.00  0.00    +0.182 A 
ATOM      6  C   UNL     1     -39.194  21.044   0.774  0.00  0.00    +0.177 C 
ATOM      7  C   UNL     1     -39.147  23.004   2.315  0.00  0.00    +0.238 A 
ATOM      8  C   UNL     1     -38.277  23.928   3.081  0.00  0.00    +0.208 A 
ATOM      9  C   UNL     1     -36.399  20.942   0.806  0.00  0.00    +0.078 C 
ATOM     10  C   UNL     1     -38.519  20.071   0.036  0.00  0.00    +0.206 C 
ATOM     11  C   UNL     1     -37.124  20.020   0.051  0.00  0.00    +0.174 C 
ENDROOT
BRANCH   5  12
ATOM     12  C   UNL     1     -36.003  24.642   3.742  0.00  0.00    +0.038 C 
ATOM     13  C   UNL     1     -35.593  24.310   5.034  0.00  0.00    +0.006 C 
ATOM     14  C   UNL     1     -35.524  25.803   3.135  0.00  0.00    +0.006 C 
ATOM     15  C   UNL     1     -34.703  25.140   5.717  0.00  0.00    +0.037 C 
ATOM     16  C   UNL     1     -34.635  26.633   3.819  0.00  0.00    +0.037 C 
ATOM     17  C   UNL     1     -34.224  26.301   5.110  0.00  0.00    +0.134 C 
BRANCH  17  18
ATOM     18  O   UNL     1     -33.357  27.109   5.777  0.00  0.00    -0.506 OA
ATOM     19  H   UNL     1     -32.992  26.830   6.595  0.00  0.00    +0.292 HD
ENDBRANCH  17  18
ENDBRANCH   5  12
BRANCH  10  20
ATOM     20  O   UNL     1     -39.221  19.166  -0.706  0.00  0.00    -0.465 OA
ATOM     21  C   UNL     1     -39.491  19.513  -2.062  0.00  0.00    +0.253 C 
ENDBRANCH  10  20
BRANCH   6  22
ATOM     22  O   UNL     1     -40.556  21.062   0.731  0.00  0.00    -0.503 OA
ATOM     23  H   UNL     1     -41.019  21.864   0.875  0.00  0.00    +0.292 HD
ENDBRANCH   6  22
BRANCH   8  24
ATOM     24  O   UNL     1     -38.880  24.928   3.813  0.00  0.00    -0.501 OA
ATOM     25  H   UNL     1     -38.356  25.548   4.281  0.00  0.00    +0.292 HD
ENDBRANCH   8  24
BRANCH  11  26
ATOM     26  O   UNL     1     -36.458  19.073  -0.667  0.00  0.00    -0.503 OA
ATOM     27  H   UNL     1     -36.912  18.571  -1.315  0.00  0.00    +0.292 HD
ENDBRANCH  11  26
TORSDOF 6
ENDMDL
MODEL 6
REMARK VINA RESULT:      -5.7      3.383      6.780
REMARK  Name = 5377945
REMARK  6 active torsions:
REMARK  status: ('A' for Active; 'I' for Inactive)
REMARK    1  A    between atoms: C_5  and  C_12
REMARK    2  A    between atoms: C_6  and  O_22
REMARK    3  A    between atoms: C_8  and  O_24
REMARK    4  A    between atoms: C_10  and  O_20
REMARK    5  A    between atoms: C_11  and  O_26
REMARK    6  A    between atoms: C_17  and  O_18
REMARK                            x       y       z     vdW  Elec       q    Type
REMARK                         _______ _______ _______ _____ _____    ______ ____
ROOT
ATOM      1  O   UNL     1     -34.915  26.196   3.174  0.00  0.00    -0.450 OA
ATOM      2  O   UNL     1     -38.376  27.292   1.326  0.00  0.00    -0.283 OA
ATOM      3  C   UNL     1     -36.156  27.845   1.896  0.00  0.00    +0.113 A 
ATOM      4  C   UNL     1     -35.002  27.412   2.547  0.00  0.00    +0.155 A 
ATOM      5  C   UNL     1     -36.018  25.358   3.150  0.00  0.00    +0.182 A 
ATOM      6  C   UNL     1     -36.187  29.095   1.274  0.00  0.00    +0.177 C 
ATOM      7  C   UNL     1     -37.334  26.965   1.877  0.00  0.00    +0.238 A 
ATOM      8  C   UNL     1     -37.192  25.659   2.564  0.00  0.00    +0.208 A 
ATOM      9  C   UNL     1     -33.872  28.229   2.583  0.00  0.00    +0.078 C 
ATOM     10  C   UNL     1     -35.056  29.911   1.310  0.00  0.00    +0.206 C 
ATOM     11  C   UNL     1     -33.900  29.479   1.964  0.00  0.00    +0.174 C 
ENDROOT
BRANCH   5  12
ATOM     12  C   UNL     1     -35.790  24.086   3.859  0.00  0.00    +0.038 C 
ATOM     13  C   UNL     1     -35.679  22.895   3.140  0.00  0.00    +0.006 C 
ATOM     14  C   UNL     1     -35.684  24.073   5.250  0.00  0.00    +0.006 C 
ATOM     15  C   UNL     1     -35.462  21.692   3.814  0.00  0.00    +0.037 C 
ATOM     16  C   UNL     1     -35.468  22.870   5.923  0.00  0.00    +0.037 C 
ATOM     17  C   UNL     1     -35.357  21.680   5.204  0.00  0.00    +0.134 C 
BRANCH  17  18
ATOM     18  O   UNL     1     -35.146  20.506   5.860  0.00  0.00    -0.506 OA
ATOM     19  H   UNL     1     -35.850  19.897   5.967  0.00  0.00    +0.292 HD
ENDBRANCH  17  18
ENDBRANCH   5  12
BRANCH  10  20
ATOM     20  O   UNL     1     -35.075  31.134   0.708  0.00  0.00    -0.465 OA
ATOM     21  C   UNL     1     -35.486  32.241   1.507  0.00  0.00    +0.253 C 
ENDBRANCH  10  20
BRANCH   6  22
ATOM     22  O   UNL     1     -37.296  29.554   0.629  0.00  0.00    -0.503 OA
ATOM     23  H   UNL     1     -38.041  29.840   1.122  0.00  0.00    +0.292 HD
ENDBRANCH   6  22
BRANCH   8  24
ATOM     24  O   UNL     1     -38.281  24.815   2.585  0.00  0.00    -0.501 OA
ATOM     25  H   UNL     1     -38.297  24.055   2.039  0.00  0.00    +0.292 HD
ENDBRANCH   8  24
BRANCH  11  26
ATOM     26  O   UNL     1     -32.791  30.268   2.003  0.00  0.00    -0.503 OA
ATOM     27  H   UNL     1     -32.136  30.124   2.658  0.00  0.00    +0.292 HD
ENDBRANCH  11  26
TORSDOF 6
ENDMDL
MODEL 7
REMARK VINA RESULT:      -5.7      3.331      8.310
REMARK  Name = 5377945
REMARK  6 active torsions:
REMARK  status: ('A' for Active; 'I' for Inactive)
REMARK    1  A    between atoms: C_5  and  C_12
REMARK    2  A    between atoms: C_6  and  O_22
REMARK    3  A    between atoms: C_8  and  O_24
REMARK    4  A    between atoms: C_10  and  O_20
REMARK    5  A    between atoms: C_11  and  O_26
REMARK    6  A    between atoms: C_17  and  O_18
REMARK                            x       y       z     vdW  Elec       q    Type
REMARK                         _______ _______ _______ _____ _____    ______ ____
ROOT
ATOM      1  O   UNL     1     -34.785  23.348   1.945  0.00  0.00    -0.450 OA
ATOM      2  O   UNL     1     -35.120  23.410   6.005  0.00  0.00    -0.283 OA
ATOM      3  C   UNL     1     -34.583  24.577   4.028  0.00  0.00    +0.113 A 
ATOM      4  C   UNL     1     -34.487  24.491   2.641  0.00  0.00    +0.155 A 
ATOM      5  C   UNL     1     -35.210  22.235   2.652  0.00  0.00    +0.182 A 
ATOM      6  C   UNL     1     -34.265  25.769   4.684  0.00  0.00    +0.177 C 
ATOM      7  C   UNL     1     -35.022  23.395   4.786  0.00  0.00    +0.238 A 
ATOM      8  C   UNL     1     -35.337  22.184   3.991  0.00  0.00    +0.208 A 
ATOM      9  C   UNL     1     -34.070  25.597   1.899  0.00  0.00    +0.078 C 
ATOM     10  C   UNL     1     -33.849  26.874   3.941  0.00  0.00    +0.206 C 
ATOM     11  C   UNL     1     -33.751  26.788   2.551  0.00  0.00    +0.174 C 
ENDROOT
BRANCH   5  12
ATOM     12  C   UNL     1     -35.496  21.077   1.785  0.00  0.00    +0.038 C 
ATOM     13  C   UNL     1     -36.779  20.892   1.268  0.00  0.00    +0.006 C 
ATOM     14  C   UNL     1     -34.483  20.168   1.480  0.00  0.00    +0.006 C 
ATOM     15  C   UNL     1     -37.047  19.796   0.447  0.00  0.00    +0.037 C 
ATOM     16  C   UNL     1     -34.753  19.072   0.660  0.00  0.00    +0.037 C 
ATOM     17  C   UNL     1     -36.035  18.886   0.143  0.00  0.00    +0.134 C 
BRANCH  17  18
ATOM     18  O   UNL     1     -36.298  17.818  -0.658  0.00  0.00    -0.506 OA
ATOM     19  H   UNL     1     -35.755  17.055  -0.614  0.00  0.00    +0.292 HD
ENDBRANCH  17  18
ENDBRANCH   5  12
BRANCH  10  20
ATOM     20  O   UNL     1     -33.535  28.043   4.569  0.00  0.00    -0.465 OA
ATOM     21  C   UNL     1     -32.176  28.220   4.962  0.00  0.00    +0.253 C 
ENDBRANCH  10  20
BRANCH   6  22
ATOM     22  O   UNL     1     -34.345  25.893   6.039  0.00  0.00    -0.503 OA
ATOM     23  H   UNL     1     -35.007  26.436   6.422  0.00  0.00    +0.292 HD
ENDBRANCH   6  22
BRANCH   8  24
ATOM     24  O   UNL     1     -35.731  21.050   4.667  0.00  0.00    -0.501 OA
ATOM     25  H   UNL     1     -35.125  20.349   4.801  0.00  0.00    +0.292 HD
ENDBRANCH   8  24
BRANCH  11  26
ATOM     26  O   UNL     1     -33.346  27.862   1.817  0.00  0.00    -0.503 OA
ATOM     27  H   UNL     1     -32.696  28.445   2.158  0.00  0.00    +0.292 HD
ENDBRANCH  11  26
TORSDOF 6
ENDMDL
MODEL 8
REMARK VINA RESULT:      -5.7      3.096      6.467
REMARK  Name = 5377945
REMARK  6 active torsions:
REMARK  status: ('A' for Active; 'I' for Inactive)
REMARK    1  A    between atoms: C_5  and  C_12
REMARK    2  A    between atoms: C_6  and  O_22
REMARK    3  A    between atoms: C_8  and  O_24
REMARK    4  A    between atoms: C_10  and  O_20
REMARK    5  A    between atoms: C_11  and  O_26
REMARK    6  A    between atoms: C_17  and  O_18
REMARK                            x       y       z     vdW  Elec       q    Type
REMARK                         _______ _______ _______ _____ _____    ______ ____
ROOT
ATOM      1  O   UNL     1     -36.011  26.063   2.771  0.00  0.00    -0.450 OA
ATOM      2  O   UNL     1     -33.259  28.855   3.883  0.00  0.00    -0.283 OA
ATOM      3  C   UNL     1     -35.111  28.305   2.531  0.00  0.00    +0.113 A 
ATOM      4  C   UNL     1     -36.023  27.306   2.194  0.00  0.00    +0.155 A 
ATOM      5  C   UNL     1     -35.056  25.792   3.740  0.00  0.00    +0.182 A 
ATOM      6  C   UNL     1     -35.171  29.554   1.909  0.00  0.00    +0.177 C 
ATOM      7  C   UNL     1     -34.088  28.020   3.550  0.00  0.00    +0.238 A 
ATOM      8  C   UNL     1     -34.117  26.664   4.149  0.00  0.00    +0.208 A 
ATOM      9  C   UNL     1     -37.000  27.550   1.229  0.00  0.00    +0.078 C 
ATOM     10  C   UNL     1     -36.150  29.796   0.945  0.00  0.00    +0.206 C 
ATOM     11  C   UNL     1     -37.063  28.796   0.605  0.00  0.00    +0.174 C 
ENDROOT
BRANCH   5  12
ATOM     12  C   UNL     1     -35.155  24.423   4.277  0.00  0.00    +0.038 C 
ATOM     13  C   UNL     1     -35.226  23.335   3.406  0.00  0.00    +0.006 C 
ATOM     14  C   UNL     1     -35.177  24.215   5.656  0.00  0.00    +0.006 C 
ATOM     15  C   UNL     1     -35.319  22.039   3.916  0.00  0.00    +0.037 C 
ATOM     16  C   UNL     1     -35.271  22.920   6.165  0.00  0.00    +0.037 C 
ATOM     17  C   UNL     1     -35.341  21.832   5.295  0.00  0.00    +0.134 C 
BRANCH  17  18
ATOM     18  O   UNL     1     -35.432  20.568   5.791  0.00  0.00    -0.506 OA
ATOM     19  H   UNL     1     -35.971  20.396   6.538  0.00  0.00    +0.292 HD
ENDBRANCH  17  18
ENDBRANCH   5  12
BRANCH  10  20
ATOM     20  O   UNL     1     -36.218  31.011   0.328  0.00  0.00    -0.465 OA
ATOM     21  C   UNL     1     -37.037  32.003   0.944  0.00  0.00    +0.253 C 
ENDBRANCH  10  20
BRANCH   6  22
ATOM     22  O   UNL     1     -34.297  30.555   2.210  0.00  0.00    -0.503 OA
ATOM     23  H   UNL     1     -33.896  31.050   1.522  0.00  0.00    +0.292 HD
ENDBRANCH   6  22
BRANCH   8  24
ATOM     24  O   UNL     1     -33.161  26.352   5.091  0.00  0.00    -0.501 OA
ATOM     25  H   UNL     1     -32.254  26.357   4.859  0.00  0.00    +0.292 HD
ENDBRANCH   8  24
BRANCH  11  26
ATOM     26  O   UNL     1     -38.022  29.024  -0.336  0.00  0.00    -0.503 OA
ATOM     27  H   UNL     1     -37.808  28.973  -1.246  0.00  0.00    +0.292 HD
ENDBRANCH  11  26
TORSDOF 6
ENDMDL
MODEL 9
REMARK VINA RESULT:      -5.7      5.448      8.866
REMARK  Name = 5377945
REMARK  6 active torsions:
REMARK  status: ('A' for Active; 'I' for Inactive)
REMARK    1  A    between atoms: C_5  and  C_12
REMARK    2  A    between atoms: C_6  and  O_22
REMARK    3  A    between atoms: C_8  and  O_24
REMARK    4  A    between atoms: C_10  and  O_20
REMARK    5  A    between atoms: C_11  and  O_26
REMARK    6  A    between atoms: C_17  and  O_18
REMARK                            x       y       z     vdW  Elec       q    Type
REMARK                         _______ _______ _______ _____ _____    ______ ____
ROOT
ATOM      1  O   UNL     1     -34.581  20.079   2.555  0.00  0.00    -0.450 OA
ATOM      2  O   UNL     1     -36.028  22.885  -0.019  0.00  0.00    -0.283 OA
ATOM      3  C   UNL     1     -35.695  22.208   2.214  0.00  0.00    +0.113 A 
ATOM      4  C   UNL     1     -35.182  21.211   3.041  0.00  0.00    +0.155 A 
ATOM      5  C   UNL     1     -34.471  19.926   1.182  0.00  0.00    +0.182 A 
ATOM      6  C   UNL     1     -36.298  23.341   2.767  0.00  0.00    +0.177 C 
ATOM      7  C   UNL     1     -35.592  22.046   0.756  0.00  0.00    +0.238 A 
ATOM      8  C   UNL     1     -34.931  20.809   0.277  0.00  0.00    +0.208 A 
ATOM      9  C   UNL     1     -35.270  21.339   4.428  0.00  0.00    +0.078 C 
ATOM     10  C   UNL     1     -36.384  23.468   4.153  0.00  0.00    +0.206 C 
ATOM     11  C   UNL     1     -35.872  22.469   4.983  0.00  0.00    +0.174 C 
ENDROOT
BRANCH   5  12
ATOM     12  C   UNL     1     -33.806  18.668   0.796  0.00  0.00    +0.038 C 
ATOM     13  C   UNL     1     -34.547  17.637   0.216  0.00  0.00    +0.006 C 
ATOM     14  C   UNL     1     -32.437  18.508   1.010  0.00  0.00    +0.006 C 
ATOM     15  C   UNL     1     -33.916  16.447  -0.149  0.00  0.00    +0.037 C 
ATOM     16  C   UNL     1     -31.807  17.318   0.645  0.00  0.00    +0.037 C 
ATOM     17  C   UNL     1     -32.547  16.287   0.065  0.00  0.00    +0.134 C 
BRANCH  17  18
ATOM     18  O   UNL     1     -31.933  15.127  -0.292  0.00  0.00    -0.506 OA
ATOM     19  H   UNL     1     -31.720  14.967  -1.191  0.00  0.00    +0.292 HD
ENDBRANCH  17  18
ENDBRANCH   5  12
BRANCH  10  20
ATOM     20  O   UNL     1     -36.972  24.569   4.705  0.00  0.00    -0.465 OA
ATOM     21  C   UNL     1     -36.112  25.644   5.074  0.00  0.00    +0.253 C 
ENDBRANCH  10  20
BRANCH   6  22
ATOM     22  O   UNL     1     -36.812  24.337   1.992  0.00  0.00    -0.503 OA
ATOM     23  H   UNL     1     -36.272  25.060   1.737  0.00  0.00    +0.292 HD
ENDBRANCH   6  22
BRANCH   8  24
ATOM     24  O   UNL     1     -34.834  20.611  -1.083  0.00  0.00    -0.501 OA
ATOM     25  H   UNL     1     -34.751  19.743  -1.427  0.00  0.00    +0.292 HD
ENDBRANCH   8  24
BRANCH  11  26
ATOM     26  O   UNL     1     -35.952  22.584   6.338  0.00  0.00    -0.503 OA
ATOM     27  H   UNL     1     -35.551  21.941   6.888  0.00  0.00    +0.292 HD
ENDBRANCH  11  26
TORSDOF 6
ENDMDL
