MODEL 1
REMARK VINA RESULT:      -5.1      0.000      0.000
REMARK  Name = 5462314
REMARK  11 active torsions:
REMARK  status: ('A' for Active; 'I' for Inactive)
REMARK    1  A    between atoms: N_2  and  CA_5
REMARK    2  A    between atoms: C_3  and  CA_17
REMARK    3  A    between atoms: CA_5  and  C_9
REMARK    4  A    between atoms: N_8  and  CA_11
REMARK    5  A    between atoms: CA_11  and  C_14
REMARK    6  A    between atoms: C_14  and  O_15
REMARK    7  A    between atoms: CA_17  and  N_18
REMARK    8  A    between atoms: CA_17  and  C_22
REMARK    9  A    between atoms: C_22  and  C_23
REMARK   10  A    between atoms: C_23  and  P_24
REMARK   11  A    between atoms: P_24  and  O_27
REMARK                            x       y       z     vdW  Elec       q    Type
REMARK                         _______ _______ _______ _____ _____    ______ ____
ROOT
ATOM      1  O   UNL     1     -33.570  25.330   4.537  0.00  0.00    -0.277 OA
ATOM      2  N   UNL     1     -35.524  24.093   4.740  0.00  0.00    -0.300 N 
ATOM      3  C   ACE A   1     -34.794  25.239   4.463  0.00  0.00    +0.202 C 
ATOM      4  H   UNL     1     -36.504  24.126   4.649  0.00  0.00    +0.150 HD
ENDROOT
BRANCH   2   5
ATOM      5  CA  UNL     1     -34.911  22.852   5.155  0.00  0.00    +0.149 C 
ATOM      6  CB  UNL     1     -35.425  22.408   6.516  0.00  0.00    +0.031 C 
BRANCH   5   9
ATOM      7  O   UNL     1     -35.131  20.593   4.304  0.00  0.00    -0.273 OA
ATOM      8  N   UNL     1     -35.525  22.373   2.868  0.00  0.00    -0.295 N 
ATOM      9  C   UNL     1     -35.208  21.801   4.092  0.00  0.00    +0.241 C 
ATOM     10  H   UNL     1     -35.562  23.354   2.800  0.00  0.00    +0.150 HD
BRANCH   8  11
ATOM     11  CA  UNL     1     -35.806  21.585   1.690  0.00  0.00    +0.171 C 
ATOM     12  CB  UNL     1     -34.634  20.672   1.366  0.00  0.00    +0.033 C 
BRANCH  11  14
ATOM     13  OXT UNL     1     -38.192  21.217   1.580  0.00  0.00    -0.248 OA
ATOM     14  C   UNL     1     -37.081  20.774   1.848  0.00  0.00    +0.332 C 
BRANCH  14  15
ATOM     15  O   UNL     1     -36.898  19.517   2.323  0.00  0.00    -0.479 OA
ATOM     16  H   UNL     1     -36.810  19.373   3.244  0.00  0.00    +0.295 HD
ENDBRANCH  14  15
ENDBRANCH  11  14
ENDBRANCH   8  11
ENDBRANCH   5   9
ENDBRANCH   2   5
BRANCH   3  17
ATOM     17  CA  UNL     1     -35.679  26.396   4.009  0.00  0.00    +0.013 C 
BRANCH  17  18
ATOM     18  N   UNL     1     -34.860  27.606   4.112  0.00  0.00    +0.387 N 
ATOM     19  H1  UNL     1     -33.895  27.346   4.319  0.00  0.00    -0.089 HD
ATOM     20  H2  UNL     1     -35.220  28.199   4.860  0.00  0.00    -0.089 HD
ATOM     21  H3  UNL     1     -34.893  28.116   3.230  0.00  0.00    -0.089 HD
ENDBRANCH  17  18
BRANCH  17  22
ATOM     22  C   UNL     1     -36.156  26.236   2.560  0.00  0.00    -0.003 C 
BRANCH  22  23
ATOM     23  C   UNL     1     -37.671  26.350   2.413  0.00  0.00    +0.085 C 
BRANCH  23  24
ATOM     24  P   UNL     1     -38.529  24.761   2.451  0.00  0.00    +0.220 P 
ATOM     25  O   UNL     1     -38.121  23.904   3.598  0.00  0.00    -0.290 OA
ATOM     26  C   UNL     1     -40.256  25.141   2.369  0.00  0.00    +0.097 C 
BRANCH  24  27
ATOM     27  O   UNL     1     -38.194  24.156   0.997  0.00  0.00    -0.343 OA
ATOM     28  H   UNL     1     -37.377  23.633   1.044  0.00  0.00    +0.218 HD
ENDBRANCH  24  27
ENDBRANCH  23  24
ENDBRANCH  22  23
ENDBRANCH  17  22
ENDBRANCH   3  17
TORSDOF 11
ENDMDL
MODEL 2
REMARK VINA RESULT:      -5.1      3.080      6.056
REMARK  Name = 5462314
REMARK  11 active torsions:
REMARK  status: ('A' for Active; 'I' for Inactive)
REMARK    1  A    between atoms: N_2  and  CA_5
REMARK    2  A    between atoms: C_3  and  CA_17
REMARK    3  A    between atoms: CA_5  and  C_9
REMARK    4  A    between atoms: N_8  and  CA_11
REMARK    5  A    between atoms: CA_11  and  C_14
REMARK    6  A    between atoms: C_14  and  O_15
REMARK    7  A    between atoms: CA_17  and  N_18
REMARK    8  A    between atoms: CA_17  and  C_22
REMARK    9  A    between atoms: C_22  and  C_23
REMARK   10  A    between atoms: C_23  and  P_24
REMARK   11  A    between atoms: P_24  and  O_27
REMARK                            x       y       z     vdW  Elec       q    Type
REMARK                         _______ _______ _______ _____ _____    ______ ____
ROOT
ATOM      1  O   UNL     1     -36.018  22.951   2.834  0.00  0.00    -0.277 OA
ATOM      2  N   UNL     1     -37.844  24.100   3.689  0.00  0.00    -0.300 N 
ATOM      3  C   ACE A   1     -36.602  23.490   3.771  0.00  0.00    +0.202 C 
ATOM      4  H   UNL     1     -38.225  24.504   4.502  0.00  0.00    +0.150 HD
ENDROOT
BRANCH   2   5
ATOM      5  CA  UNL     1     -38.606  24.171   2.463  0.00  0.00    +0.149 C 
ATOM      6  CB  UNL     1     -39.611  23.034   2.368  0.00  0.00    +0.031 C 
BRANCH   5   9
ATOM      7  O   UNL     1     -38.714  26.590   2.557  0.00  0.00    -0.273 OA
ATOM      8  N   UNL     1     -40.680  25.393   2.259  0.00  0.00    -0.295 N 
ATOM      9  C   UNL     1     -39.308  25.523   2.422  0.00  0.00    +0.241 C 
ATOM     10  H   UNL     1     -41.061  24.491   2.158  0.00  0.00    +0.150 HD
BRANCH   8  11
ATOM     11  CA  UNL     1     -41.572  26.529   2.231  0.00  0.00    +0.171 C 
ATOM     12  CB  UNL     1     -42.759  26.255   1.321  0.00  0.00    +0.033 C 
BRANCH  11  14
ATOM     13  OXT UNL     1     -43.169  26.636   4.041  0.00  0.00    -0.248 OA
ATOM     14  C   UNL     1     -42.048  26.904   3.624  0.00  0.00    +0.332 C 
BRANCH  14  15
ATOM     15  O   UNL     1     -41.137  27.573   4.373  0.00  0.00    -0.479 OA
ATOM     16  H   UNL     1     -40.358  27.908   3.975  0.00  0.00    +0.295 HD
ENDBRANCH  14  15
ENDBRANCH  11  14
ENDBRANCH   8  11
ENDBRANCH   5   9
ENDBRANCH   2   5
BRANCH   3  17
ATOM     17  CA  UNL     1     -35.998  23.588   5.169  0.00  0.00    +0.013 C 
BRANCH  17  18
ATOM     18  N   UNL     1     -35.962  22.224   5.699  0.00  0.00    +0.387 N 
ATOM     19  H1  UNL     1     -35.182  22.133   6.350  0.00  0.00    -0.089 HD
ATOM     20  H2  UNL     1     -35.844  21.563   4.932  0.00  0.00    -0.089 HD
ATOM     21  H3  UNL     1     -36.836  22.025   6.187  0.00  0.00    -0.089 HD
ENDBRANCH  17  18
BRANCH  17  22
ATOM     22  C   UNL     1     -34.574  24.158   5.153  0.00  0.00    -0.003 C 
BRANCH  22  23
ATOM     23  C   UNL     1     -34.521  25.649   5.477  0.00  0.00    +0.085 C 
BRANCH  23  24
ATOM     24  P   UNL     1     -34.470  26.711   4.017  0.00  0.00    +0.220 P 
ATOM     25  O   UNL     1     -33.785  28.010   4.262  0.00  0.00    -0.290 OA
ATOM     26  C   UNL     1     -33.774  25.723   2.723  0.00  0.00    +0.097 C 
BRANCH  24  27
ATOM     27  O   UNL     1     -36.028  26.827   3.623  0.00  0.00    -0.343 OA
ATOM     28  H   UNL     1     -36.543  26.197   4.152  0.00  0.00    +0.218 HD
ENDBRANCH  24  27
ENDBRANCH  23  24
ENDBRANCH  22  23
ENDBRANCH  17  22
ENDBRANCH   3  17
TORSDOF 11
ENDMDL
MODEL 3
REMARK VINA RESULT:      -5.1      2.465      5.224
REMARK  Name = 5462314
REMARK  11 active torsions:
REMARK  status: ('A' for Active; 'I' for Inactive)
REMARK    1  A    between atoms: N_2  and  CA_5
REMARK    2  A    between atoms: C_3  and  CA_17
REMARK    3  A    between atoms: CA_5  and  C_9
REMARK    4  A    between atoms: N_8  and  CA_11
REMARK    5  A    between atoms: CA_11  and  C_14
REMARK    6  A    between atoms: C_14  and  O_15
REMARK    7  A    between atoms: CA_17  and  N_18
REMARK    8  A    between atoms: CA_17  and  C_22
REMARK    9  A    between atoms: C_22  and  C_23
REMARK   10  A    between atoms: C_23  and  P_24
REMARK   11  A    between atoms: P_24  and  O_27
REMARK                            x       y       z     vdW  Elec       q    Type
REMARK                         _______ _______ _______ _____ _____    ______ ____
ROOT
ATOM      1  O   UNL     1     -35.124  21.693   2.986  0.00  0.00    -0.277 OA
ATOM      2  N   UNL     1     -37.332  22.300   3.369  0.00  0.00    -0.300 N 
ATOM      3  C   ACE A   1     -36.016  22.072   3.743  0.00  0.00    +0.202 C 
ATOM      4  H   UNL     1     -37.970  22.604   4.054  0.00  0.00    +0.150 HD
ENDROOT
BRANCH   2   5
ATOM      5  CA  UNL     1     -37.809  22.112   2.018  0.00  0.00    +0.149 C 
ATOM      6  CB  UNL     1     -39.266  21.674   2.000  0.00  0.00    +0.031 C 
BRANCH   5   9
ATOM      7  O   UNL     1     -36.694  23.633   0.495  0.00  0.00    -0.273 OA
ATOM      8  N   UNL     1     -38.606  24.354   1.594  0.00  0.00    -0.295 N 
ATOM      9  C   UNL     1     -37.627  23.426   1.267  0.00  0.00    +0.241 C 
ATOM     10  H   UNL     1     -39.315  24.091   2.225  0.00  0.00    +0.150 HD
BRANCH   8  11
ATOM     11  CA  UNL     1     -38.627  25.690   1.046  0.00  0.00    +0.171 C 
ATOM     12  CB  UNL     1     -40.050  26.109   0.711  0.00  0.00    +0.033 C 
BRANCH  11  14
ATOM     13  OXT UNL     1     -37.312  27.640   1.600  0.00  0.00    -0.248 OA
ATOM     14  C   UNL     1     -37.988  26.695   1.990  0.00  0.00    +0.332 C 
BRANCH  14  15
ATOM     15  O   UNL     1     -38.212  26.458   3.305  0.00  0.00    -0.479 OA
ATOM     16  H   UNL     1     -38.187  27.164   3.919  0.00  0.00    +0.295 HD
ENDBRANCH  14  15
ENDBRANCH  11  14
ENDBRANCH   8  11
ENDBRANCH   5   9
ENDBRANCH   2   5
BRANCH   3  17
ATOM     17  CA  UNL     1     -35.768  22.382   5.216  0.00  0.00    +0.013 C 
BRANCH  17  18
ATOM     18  N   UNL     1     -35.204  21.166   5.804  0.00  0.00    +0.387 N 
ATOM     19  H1  UNL     1     -34.565  20.732   5.137  0.00  0.00    -0.089 HD
ATOM     20  H2  UNL     1     -35.956  20.514   6.027  0.00  0.00    -0.089 HD
ATOM     21  H3  UNL     1     -34.696  21.403   6.656  0.00  0.00    -0.089 HD
ENDBRANCH  17  18
BRANCH  17  22
ATOM     22  C   UNL     1     -34.781  23.539   5.413  0.00  0.00    -0.003 C 
BRANCH  22  23
ATOM     23  C   UNL     1     -35.438  24.913   5.302  0.00  0.00    +0.085 C 
BRANCH  23  24
ATOM     24  P   UNL     1     -34.508  26.086   4.292  0.00  0.00    +0.220 P 
ATOM     25  O   UNL     1     -33.161  26.395   4.846  0.00  0.00    -0.290 OA
ATOM     26  C   UNL     1     -34.516  25.425   2.650  0.00  0.00    +0.097 C 
BRANCH  24  27
ATOM     27  O   UNL     1     -35.514  27.341   4.211  0.00  0.00    -0.343 OA
ATOM     28  H   UNL     1     -36.327  27.076   3.752  0.00  0.00    +0.218 HD
ENDBRANCH  24  27
ENDBRANCH  23  24
ENDBRANCH  22  23
ENDBRANCH  17  22
ENDBRANCH   3  17
TORSDOF 11
ENDMDL
MODEL 4
REMARK VINA RESULT:      -5.1      1.948      4.600
REMARK  Name = 5462314
REMARK  11 active torsions:
REMARK  status: ('A' for Active; 'I' for Inactive)
REMARK    1  A    between atoms: N_2  and  CA_5
REMARK    2  A    between atoms: C_3  and  CA_17
REMARK    3  A    between atoms: CA_5  and  C_9
REMARK    4  A    between atoms: N_8  and  CA_11
REMARK    5  A    between atoms: CA_11  and  C_14
REMARK    6  A    between atoms: C_14  and  O_15
REMARK    7  A    between atoms: CA_17  and  N_18
REMARK    8  A    between atoms: CA_17  and  C_22
REMARK    9  A    between atoms: C_22  and  C_23
REMARK   10  A    between atoms: C_23  and  P_24
REMARK   11  A    between atoms: P_24  and  O_27
REMARK                            x       y       z     vdW  Elec       q    Type
REMARK                         _______ _______ _______ _____ _____    ______ ____
ROOT
ATOM      1  O   UNL     1     -35.172  21.829   2.717  0.00  0.00    -0.277 OA
ATOM      2  N   UNL     1     -36.687  22.775   4.199  0.00  0.00    -0.300 N 
ATOM      3  C   ACE A   1     -36.313  22.189   2.999  0.00  0.00    +0.202 C 
ATOM      4  H   UNL     1     -37.631  23.028   4.325  0.00  0.00    +0.150 HD
ENDROOT
BRANCH   2   5
ATOM      5  CA  UNL     1     -35.756  23.033   5.273  0.00  0.00    +0.149 C 
ATOM      6  CB  UNL     1     -35.103  21.749   5.761  0.00  0.00    +0.031 C 
BRANCH   5   9
ATOM      7  O   UNL     1     -33.585  24.112   5.252  0.00  0.00    -0.273 OA
ATOM      8  N   UNL     1     -35.192  24.801   3.725  0.00  0.00    -0.295 N 
ATOM      9  C   UNL     1     -34.709  24.015   4.762  0.00  0.00    +0.241 C 
ATOM     10  H   UNL     1     -36.109  24.645   3.403  0.00  0.00    +0.150 HD
BRANCH   8  11
ATOM     11  CA  UNL     1     -34.403  25.837   3.100  0.00  0.00    +0.171 C 
ATOM     12  CB  UNL     1     -34.782  25.986   1.635  0.00  0.00    +0.033 C 
BRANCH  11  14
ATOM     13  OXT UNL     1     -33.819  27.505   4.748  0.00  0.00    -0.248 OA
ATOM     14  C   UNL     1     -34.547  27.166   3.822  0.00  0.00    +0.332 C 
BRANCH  14  15
ATOM     15  O   UNL     1     -35.558  27.949   3.371  0.00  0.00    -0.479 OA
ATOM     16  H   UNL     1     -36.432  27.616   3.345  0.00  0.00    +0.295 HD
ENDBRANCH  14  15
ENDBRANCH  11  14
ENDBRANCH   8  11
ENDBRANCH   5   9
ENDBRANCH   2   5
BRANCH   3  17
ATOM     17  CA  UNL     1     -37.494  21.995   2.053  0.00  0.00    +0.013 C 
BRANCH  17  18
ATOM     18  N   UNL     1     -37.951  20.617   2.241  0.00  0.00    +0.387 N 
ATOM     19  H1  UNL     1     -38.320  20.259   1.360  0.00  0.00    -0.089 HD
ATOM     20  H2  UNL     1     -38.683  20.594   2.950  0.00  0.00    -0.089 HD
ATOM     21  H3  UNL     1     -37.168  20.037   2.542  0.00  0.00    -0.089 HD
ENDBRANCH  17  18
BRANCH  17  22
ATOM     22  C   UNL     1     -38.652  22.954   2.358  0.00  0.00    -0.003 C 
BRANCH  22  23
ATOM     23  C   UNL     1     -38.527  24.293   1.635  0.00  0.00    +0.085 C 
BRANCH  23  24
ATOM     24  P   UNL     1     -38.752  25.726   2.712  0.00  0.00    +0.220 P 
ATOM     25  O   UNL     1     -38.077  26.952   2.202  0.00  0.00    -0.290 OA
ATOM     26  C   UNL     1     -40.498  25.874   2.963  0.00  0.00    +0.097 C 
BRANCH  24  27
ATOM     27  O   UNL     1     -38.200  25.183   4.124  0.00  0.00    -0.343 OA
ATOM     28  H   UNL     1     -38.773  24.468   4.443  0.00  0.00    +0.218 HD
ENDBRANCH  24  27
ENDBRANCH  23  24
ENDBRANCH  22  23
ENDBRANCH  17  22
ENDBRANCH   3  17
TORSDOF 11
ENDMDL
MODEL 5
REMARK VINA RESULT:      -5.0      4.320      6.382
REMARK  Name = 5462314
REMARK  11 active torsions:
REMARK  status: ('A' for Active; 'I' for Inactive)
REMARK    1  A    between atoms: N_2  and  CA_5
REMARK    2  A    between atoms: C_3  and  CA_17
REMARK    3  A    between atoms: CA_5  and  C_9
REMARK    4  A    between atoms: N_8  and  CA_11
REMARK    5  A    between atoms: CA_11  and  C_14
REMARK    6  A    between atoms: C_14  and  O_15
REMARK    7  A    between atoms: CA_17  and  N_18
REMARK    8  A    between atoms: CA_17  and  C_22
REMARK    9  A    between atoms: C_22  and  C_23
REMARK   10  A    between atoms: C_23  and  P_24
REMARK   11  A    between atoms: P_24  and  O_27
REMARK                            x       y       z     vdW  Elec       q    Type
REMARK                         _______ _______ _______ _____ _____    ______ ____
ROOT
ATOM      1  O   UNL     1     -32.386  26.987   6.877  0.00  0.00    -0.277 OA
ATOM      2  N   UNL     1     -33.899  27.069   5.118  0.00  0.00    -0.300 N 
ATOM      3  C   ACE A   1     -32.759  27.460   5.805  0.00  0.00    +0.202 C 
ATOM      4  H   UNL     1     -34.109  27.513   4.264  0.00  0.00    +0.150 HD
ENDROOT
BRANCH   2   5
ATOM      5  CA  UNL     1     -34.792  26.040   5.598  0.00  0.00    +0.149 C 
ATOM      6  CB  UNL     1     -36.233  26.331   5.208  0.00  0.00    +0.031 C 
BRANCH   5   9
ATOM      7  O   UNL     1     -33.327  24.594   4.319  0.00  0.00    -0.273 OA
ATOM      8  N   UNL     1     -35.195  23.672   5.341  0.00  0.00    -0.295 N 
ATOM      9  C   UNL     1     -34.331  24.708   5.019  0.00  0.00    +0.241 C 
ATOM     10  H   UNL     1     -35.975  23.866   5.910  0.00  0.00    +0.150 HD
BRANCH   8  11
ATOM     11  CA  UNL     1     -34.997  22.319   4.874  0.00  0.00    +0.171 C 
ATOM     12  CB  UNL     1     -35.173  21.328   6.014  0.00  0.00    +0.033 C 
BRANCH  11  14
ATOM     13  OXT UNL     1     -36.628  22.814   3.160  0.00  0.00    -0.248 OA
ATOM     14  C   UNL     1     -35.935  21.977   3.728  0.00  0.00    +0.332 C 
BRANCH  14  15
ATOM     15  O   UNL     1     -35.957  20.666   3.385  0.00  0.00    -0.479 OA
ATOM     16  H   UNL     1     -35.228  20.116   3.593  0.00  0.00    +0.295 HD
ENDBRANCH  14  15
ENDBRANCH  11  14
ENDBRANCH   8  11
ENDBRANCH   5   9
ENDBRANCH   2   5
BRANCH   3  17
ATOM     17  CA  UNL     1     -31.973  28.536   5.063  0.00  0.00    +0.013 C 
BRANCH  17  18
ATOM     18  N   UNL     1     -32.965  29.431   4.463  0.00  0.00    +0.387 N 
ATOM     19  H1  UNL     1     -32.545  29.923   3.674  0.00  0.00    -0.089 HD
ATOM     20  H2  UNL     1     -33.279  30.108   5.158  0.00  0.00    -0.089 HD
ATOM     21  H3  UNL     1     -33.762  28.885   4.137  0.00  0.00    -0.089 HD
ENDBRANCH  17  18
BRANCH  17  22
ATOM     22  C   UNL     1     -31.066  29.347   5.997  0.00  0.00    -0.003 C 
BRANCH  22  23
ATOM     23  C   UNL     1     -29.631  29.462   5.488  0.00  0.00    +0.085 C 
BRANCH  23  24
ATOM     24  P   UNL     1     -28.627  27.993   5.802  0.00  0.00    +0.220 P 
ATOM     25  O   UNL     1     -28.453  27.136   4.597  0.00  0.00    -0.290 OA
ATOM     26  C   UNL     1     -27.126  28.580   6.534  0.00  0.00    +0.097 C 
BRANCH  24  27
ATOM     27  O   UNL     1     -29.412  27.297   7.024  0.00  0.00    -0.343 OA
ATOM     28  H   UNL     1     -30.327  27.114   6.759  0.00  0.00    +0.218 HD
ENDBRANCH  24  27
ENDBRANCH  23  24
ENDBRANCH  22  23
ENDBRANCH  17  22
ENDBRANCH   3  17
TORSDOF 11
ENDMDL
MODEL 6
REMARK VINA RESULT:      -5.0      2.350      5.112
REMARK  Name = 5462314
REMARK  11 active torsions:
REMARK  status: ('A' for Active; 'I' for Inactive)
REMARK    1  A    between atoms: N_2  and  CA_5
REMARK    2  A    between atoms: C_3  and  CA_17
REMARK    3  A    between atoms: CA_5  and  C_9
REMARK    4  A    between atoms: N_8  and  CA_11
REMARK    5  A    between atoms: CA_11  and  C_14
REMARK    6  A    between atoms: C_14  and  O_15
REMARK    7  A    between atoms: CA_17  and  N_18
REMARK    8  A    between atoms: CA_17  and  C_22
REMARK    9  A    between atoms: C_22  and  C_23
REMARK   10  A    between atoms: C_23  and  P_24
REMARK   11  A    between atoms: P_24  and  O_27
REMARK                            x       y       z     vdW  Elec       q    Type
REMARK                         _______ _______ _______ _____ _____    ______ ____
ROOT
ATOM      1  O   UNL     1     -33.807  27.743   3.799  0.00  0.00    -0.277 OA
ATOM      2  N   UNL     1     -35.837  26.802   3.181  0.00  0.00    -0.300 N 
ATOM      3  C   ACE A   1     -34.763  27.008   4.034  0.00  0.00    +0.202 C 
ATOM      4  H   UNL     1     -36.554  26.191   3.466  0.00  0.00    +0.150 HD
ENDROOT
BRANCH   2   5
ATOM      5  CA  UNL     1     -35.951  27.446   1.892  0.00  0.00    +0.149 C 
ATOM      6  CB  UNL     1     -35.024  26.807   0.869  0.00  0.00    +0.031 C 
BRANCH   5   9
ATOM      7  O   UNL     1     -37.928  28.161   0.686  0.00  0.00    -0.273 OA
ATOM      8  N   UNL     1     -38.059  26.271   2.026  0.00  0.00    -0.295 N 
ATOM      9  C   UNL     1     -37.404  27.348   1.444  0.00  0.00    +0.241 C 
ATOM     10  H   UNL     1     -37.550  25.675   2.622  0.00  0.00    +0.150 HD
BRANCH   8  11
ATOM     11  CA  UNL     1     -39.456  25.990   1.792  0.00  0.00    +0.171 C 
ATOM     12  CB  UNL     1     -39.620  24.672   1.053  0.00  0.00    +0.033 C 
BRANCH  11  14
ATOM     13  OXT UNL     1     -41.122  26.793   3.348  0.00  0.00    -0.248 OA
ATOM     14  C   UNL     1     -40.250  25.972   3.088  0.00  0.00    +0.332 C 
BRANCH  14  15
ATOM     15  O   UNL     1     -39.910  24.980   3.947  0.00  0.00    -0.479 OA
ATOM     16  H   UNL     1     -39.501  25.187   4.763  0.00  0.00    +0.295 HD
ENDBRANCH  14  15
ENDBRANCH  11  14
ENDBRANCH   8  11
ENDBRANCH   5   9
ENDBRANCH   2   5
BRANCH   3  17
ATOM     17  CA  UNL     1     -34.907  26.240   5.345  0.00  0.00    +0.013 C 
BRANCH  17  18
ATOM     18  N   UNL     1     -36.331  26.268   5.685  0.00  0.00    +0.387 N 
ATOM     19  H1  UNL     1     -36.639  27.236   5.775  0.00  0.00    -0.089 HD
ATOM     20  H2  UNL     1     -36.480  25.780   6.567  0.00  0.00    -0.089 HD
ATOM     21  H3  UNL     1     -36.865  25.809   4.948  0.00  0.00    -0.089 HD
ENDBRANCH  17  18
BRANCH  17  22
ATOM     22  C   UNL     1     -34.448  24.781   5.222  0.00  0.00    -0.003 C 
BRANCH  22  23
ATOM     23  C   UNL     1     -35.583  23.779   5.416  0.00  0.00    +0.085 C 
BRANCH  23  24
ATOM     24  P   UNL     1     -36.167  23.033   3.877  0.00  0.00    +0.220 P 
ATOM     25  O   UNL     1     -37.578  23.385   3.557  0.00  0.00    -0.290 OA
ATOM     26  C   UNL     1     -34.979  23.477   2.642  0.00  0.00    +0.097 C 
BRANCH  24  27
ATOM     27  O   UNL     1     -35.898  21.466   4.132  0.00  0.00    -0.343 OA
ATOM     28  H   UNL     1     -35.496  21.344   5.007  0.00  0.00    +0.218 HD
ENDBRANCH  24  27
ENDBRANCH  23  24
ENDBRANCH  22  23
ENDBRANCH  17  22
ENDBRANCH   3  17
TORSDOF 11
ENDMDL
MODEL 7
REMARK VINA RESULT:      -5.0      4.800      7.922
REMARK  Name = 5462314
REMARK  11 active torsions:
REMARK  status: ('A' for Active; 'I' for Inactive)
REMARK    1  A    between atoms: N_2  and  CA_5
REMARK    2  A    between atoms: C_3  and  CA_17
REMARK    3  A    between atoms: CA_5  and  C_9
REMARK    4  A    between atoms: N_8  and  CA_11
REMARK    5  A    between atoms: CA_11  and  C_14
REMARK    6  A    between atoms: C_14  and  O_15
REMARK    7  A    between atoms: CA_17  and  N_18
REMARK    8  A    between atoms: CA_17  and  C_22
REMARK    9  A    between atoms: C_22  and  C_23
REMARK   10  A    between atoms: C_23  and  P_24
REMARK   11  A    between atoms: P_24  and  O_27
REMARK                            x       y       z     vdW  Elec       q    Type
REMARK                         _______ _______ _______ _____ _____    ______ ____
ROOT
ATOM      1  O   UNL     1     -33.604  27.862   3.253  0.00  0.00    -0.277 OA
ATOM      2  N   UNL     1     -32.684  28.012   5.379  0.00  0.00    -0.300 N 
ATOM      3  C   ACE A   1     -33.529  27.478   4.418  0.00  0.00    +0.202 C 
ATOM      4  H   UNL     1     -32.702  27.630   6.286  0.00  0.00    +0.150 HD
ENDROOT
BRANCH   2   5
ATOM      5  CA  UNL     1     -31.778  29.104   5.109  0.00  0.00    +0.149 C 
ATOM      6  CB  UNL     1     -31.810  30.139   6.222  0.00  0.00    +0.031 C 
BRANCH   5   9
ATOM      7  O   UNL     1     -30.087  27.712   4.070  0.00  0.00    -0.273 OA
ATOM      8  N   UNL     1     -29.503  28.990   5.917  0.00  0.00    -0.295 N 
ATOM      9  C   UNL     1     -30.378  28.525   4.945  0.00  0.00    +0.241 C 
ATOM     10  H   UNL     1     -29.833  29.643   6.575  0.00  0.00    +0.150 HD
BRANCH   8  11
ATOM     11  CA  UNL     1     -28.128  28.555   6.000  0.00  0.00    +0.171 C 
ATOM     12  CB  UNL     1     -27.198  29.749   6.154  0.00  0.00    +0.033 C 
BRANCH  11  14
ATOM     13  OXT UNL     1     -28.123  26.367   7.026  0.00  0.00    -0.248 OA
ATOM     14  C   UNL     1     -27.919  27.571   7.138  0.00  0.00    +0.332 C 
BRANCH  14  15
ATOM     15  O   UNL     1     -27.497  28.129   8.299  0.00  0.00    -0.479 OA
ATOM     16  H   UNL     1     -27.050  28.951   8.288  0.00  0.00    +0.295 HD
ENDBRANCH  14  15
ENDBRANCH  11  14
ENDBRANCH   8  11
ENDBRANCH   5   9
ENDBRANCH   2   5
BRANCH   3  17
ATOM     17  CA  UNL     1     -34.354  26.310   4.952  0.00  0.00    +0.013 C 
BRANCH  17  18
ATOM     18  N   UNL     1     -35.757  26.714   4.848  0.00  0.00    +0.387 N 
ATOM     19  H1  UNL     1     -36.223  26.144   4.142  0.00  0.00    -0.089 HD
ATOM     20  H2  UNL     1     -35.810  27.697   4.580  0.00  0.00    -0.089 HD
ATOM     21  H3  UNL     1     -36.217  26.583   5.748  0.00  0.00    -0.089 HD
ENDBRANCH  17  18
BRANCH  17  22
ATOM     22  C   UNL     1     -34.140  25.024   4.145  0.00  0.00    -0.003 C 
BRANCH  22  23
ATOM     23  C   UNL     1     -34.340  23.757   4.972  0.00  0.00    +0.085 C 
BRANCH  23  24
ATOM     24  P   UNL     1     -35.912  22.924   4.661  0.00  0.00    +0.220 P 
ATOM     25  O   UNL     1     -37.030  23.869   4.386  0.00  0.00    -0.290 OA
ATOM     26  C   UNL     1     -35.590  21.743   3.382  0.00  0.00    +0.097 C 
BRANCH  24  27
ATOM     27  O   UNL     1     -36.091  22.025   5.985  0.00  0.00    -0.343 OA
ATOM     28  H   UNL     1     -36.382  21.133   5.735  0.00  0.00    +0.218 HD
ENDBRANCH  24  27
ENDBRANCH  23  24
ENDBRANCH  22  23
ENDBRANCH  17  22
ENDBRANCH   3  17
TORSDOF 11
ENDMDL
MODEL 8
REMARK VINA RESULT:      -5.0      2.446      4.825
REMARK  Name = 5462314
REMARK  11 active torsions:
REMARK  status: ('A' for Active; 'I' for Inactive)
REMARK    1  A    between atoms: N_2  and  CA_5
REMARK    2  A    between atoms: C_3  and  CA_17
REMARK    3  A    between atoms: CA_5  and  C_9
REMARK    4  A    between atoms: N_8  and  CA_11
REMARK    5  A    between atoms: CA_11  and  C_14
REMARK    6  A    between atoms: C_14  and  O_15
REMARK    7  A    between atoms: CA_17  and  N_18
REMARK    8  A    between atoms: CA_17  and  C_22
REMARK    9  A    between atoms: C_22  and  C_23
REMARK   10  A    between atoms: C_23  and  P_24
REMARK   11  A    between atoms: P_24  and  O_27
REMARK                            x       y       z     vdW  Elec       q    Type
REMARK                         _______ _______ _______ _____ _____    ______ ____
ROOT
ATOM      1  O   UNL     1     -34.930  23.764   2.872  0.00  0.00    -0.277 OA
ATOM      2  N   UNL     1     -36.615  22.994   4.270  0.00  0.00    -0.300 N 
ATOM      3  C   ACE A   1     -36.021  23.222   3.038  0.00  0.00    +0.202 C 
ATOM      4  H   UNL     1     -37.494  22.550   4.294  0.00  0.00    +0.150 HD
ENDROOT
BRANCH   2   5
ATOM      5  CA  UNL     1     -36.004  23.378   5.522  0.00  0.00    +0.149 C 
ATOM      6  CB  UNL     1     -34.697  22.634   5.751  0.00  0.00    +0.031 C 
BRANCH   5   9
ATOM      7  O   UNL     1     -36.669  25.693   5.258  0.00  0.00    -0.273 OA
ATOM      8  N   UNL     1     -34.445  25.214   5.714  0.00  0.00    -0.295 N 
ATOM      9  C   UNL     1     -35.775  24.884   5.492  0.00  0.00    +0.241 C 
ATOM     10  H   UNL     1     -33.802  24.490   5.894  0.00  0.00    +0.150 HD
BRANCH   8  11
ATOM     11  CA  UNL     1     -33.967  26.577   5.693  0.00  0.00    +0.171 C 
ATOM     12  CB  UNL     1     -32.914  26.791   6.769  0.00  0.00    +0.033 C 
BRANCH  11  14
ATOM     13  OXT UNL     1     -33.464  28.099   3.884  0.00  0.00    -0.248 OA
ATOM     14  C   UNL     1     -33.415  26.958   4.329  0.00  0.00    +0.332 C 
BRANCH  14  15
ATOM     15  O   UNL     1     -32.872  25.931   3.631  0.00  0.00    -0.479 OA
ATOM     16  H   UNL     1     -32.106  26.071   3.112  0.00  0.00    +0.295 HD
ENDBRANCH  14  15
ENDBRANCH  11  14
ENDBRANCH   8  11
ENDBRANCH   5   9
ENDBRANCH   2   5
BRANCH   3  17
ATOM     17  CA  UNL     1     -36.858  22.686   1.881  0.00  0.00    +0.013 C 
BRANCH  17  18
ATOM     18  N   UNL     1     -37.880  21.822   2.476  0.00  0.00    +0.387 N 
ATOM     19  H1  UNL     1     -37.748  20.865   2.147  0.00  0.00    -0.089 HD
ATOM     20  H2  UNL     1     -38.805  22.152   2.203  0.00  0.00    -0.089 HD
ATOM     21  H3  UNL     1     -37.796  21.847   3.492  0.00  0.00    -0.089 HD
ENDBRANCH  17  18
BRANCH  17  22
ATOM     22  C   UNL     1     -37.545  23.805   1.088  0.00  0.00    -0.003 C 
BRANCH  22  23
ATOM     23  C   UNL     1     -39.000  24.022   1.497  0.00  0.00    +0.085 C 
BRANCH  23  24
ATOM     24  P   UNL     1     -39.255  25.472   2.544  0.00  0.00    +0.220 P 
ATOM     25  O   UNL     1     -38.323  26.590   2.229  0.00  0.00    -0.290 OA
ATOM     26  C   UNL     1     -40.976  25.864   2.418  0.00  0.00    +0.097 C 
BRANCH  24  27
ATOM     27  O   UNL     1     -39.102  24.856   4.024  0.00  0.00    -0.343 OA
ATOM     28  H   UNL     1     -39.981  24.753   4.424  0.00  0.00    +0.218 HD
ENDBRANCH  24  27
ENDBRANCH  23  24
ENDBRANCH  22  23
ENDBRANCH  17  22
ENDBRANCH   3  17
TORSDOF 11
ENDMDL
MODEL 9
REMARK VINA RESULT:      -5.0      3.019      5.027
REMARK  Name = 5462314
REMARK  11 active torsions:
REMARK  status: ('A' for Active; 'I' for Inactive)
REMARK    1  A    between atoms: N_2  and  CA_5
REMARK    2  A    between atoms: C_3  and  CA_17
REMARK    3  A    between atoms: CA_5  and  C_9
REMARK    4  A    between atoms: N_8  and  CA_11
REMARK    5  A    between atoms: CA_11  and  C_14
REMARK    6  A    between atoms: C_14  and  O_15
REMARK    7  A    between atoms: CA_17  and  N_18
REMARK    8  A    between atoms: CA_17  and  C_22
REMARK    9  A    between atoms: C_22  and  C_23
REMARK   10  A    between atoms: C_23  and  P_24
REMARK   11  A    between atoms: P_24  and  O_27
REMARK                            x       y       z     vdW  Elec       q    Type
REMARK                         _______ _______ _______ _____ _____    ______ ____
ROOT
ATOM      1  O   UNL     1     -35.621  26.278   2.070  0.00  0.00    -0.277 OA
ATOM      2  N   UNL     1     -35.632  27.083   4.247  0.00  0.00    -0.300 N 
ATOM      3  C   ACE A   1     -35.326  27.139   2.896  0.00  0.00    +0.202 C 
ATOM      4  H   UNL     1     -35.350  27.829   4.825  0.00  0.00    +0.150 HD
ENDROOT
BRANCH   2   5
ATOM      5  CA  UNL     1     -36.348  25.980   4.846  0.00  0.00    +0.149 C 
ATOM      6  CB  UNL     1     -37.547  25.574   4.004  0.00  0.00    +0.031 C 
BRANCH   5   9
ATOM      7  O   UNL     1     -34.193  24.969   5.307  0.00  0.00    -0.273 OA
ATOM      8  N   UNL     1     -35.971  23.596   4.723  0.00  0.00    -0.295 N 
ATOM      9  C   UNL     1     -35.375  24.818   5.003  0.00  0.00    +0.241 C 
ATOM     10  H   UNL     1     -36.927  23.580   4.490  0.00  0.00    +0.150 HD
BRANCH   8  11
ATOM     11  CA  UNL     1     -35.245  22.348   4.761  0.00  0.00    +0.171 C 
ATOM     12  CB  UNL     1     -35.355  21.707   6.136  0.00  0.00    +0.033 C 
BRANCH  11  14
ATOM     13  OXT UNL     1     -35.101  20.383   3.361  0.00  0.00    -0.248 OA
ATOM     14  C   UNL     1     -35.727  21.385   3.688  0.00  0.00    +0.332 C 
BRANCH  14  15
ATOM     15  O   UNL     1     -36.902  21.727   3.107  0.00  0.00    -0.479 OA
ATOM     16  H   UNL     1     -37.278  21.175   2.451  0.00  0.00    +0.295 HD
ENDBRANCH  14  15
ENDBRANCH  11  14
ENDBRANCH   8  11
ENDBRANCH   5   9
ENDBRANCH   2   5
BRANCH   3  17
ATOM     17  CA  UNL     1     -34.601  28.427   2.517  0.00  0.00    +0.013 C 
BRANCH  17  18
ATOM     18  N   UNL     1     -35.161  29.481   3.366  0.00  0.00    +0.387 N 
ATOM     19  H1  UNL     1     -35.030  30.386   2.915  0.00  0.00    -0.089 HD
ATOM     20  H2  UNL     1     -34.687  29.479   4.269  0.00  0.00    -0.089 HD
ATOM     21  H3  UNL     1     -36.157  29.312   3.505  0.00  0.00    -0.089 HD
ENDBRANCH  17  18
BRANCH  17  22
ATOM     22  C   UNL     1     -33.089  28.340   2.757  0.00  0.00    -0.003 C 
BRANCH  22  23
ATOM     23  C   UNL     1     -32.592  29.321   3.816  0.00  0.00    +0.085 C 
BRANCH  23  24
ATOM     24  P   UNL     1     -31.836  28.523   5.250  0.00  0.00    +0.220 P 
ATOM     25  O   UNL     1     -30.563  27.823   4.925  0.00  0.00    -0.290 OA
ATOM     26  C   UNL     1     -31.713  29.777   6.493  0.00  0.00    +0.097 C 
BRANCH  24  27
ATOM     27  O   UNL     1     -33.022  27.568   5.776  0.00  0.00    -0.343 OA
ATOM     28  H   UNL     1     -33.825  28.096   5.915  0.00  0.00    +0.218 HD
ENDBRANCH  24  27
ENDBRANCH  23  24
ENDBRANCH  22  23
ENDBRANCH  17  22
ENDBRANCH   3  17
TORSDOF 11
ENDMDL
