MODEL 1
REMARK VINA RESULT:      -6.5      0.000      0.000
REMARK  Name = 21123695
REMARK  6 active torsions:
REMARK  status: ('A' for Active; 'I' for Inactive)
REMARK    1  A    between atoms: C_1  and  O_25
REMARK    2  A    between atoms: C_5  and  C_31
REMARK    3  A    between atoms: C_7  and  O_27
REMARK    4  A    between atoms: C_9  and  C_21
REMARK    5  A    between atoms: C_18  and  O_29
REMARK    6  A    between atoms: C_31  and  O_32
REMARK                            x       y       z     vdW  Elec       q    Type
REMARK                         _______ _______ _______ _____ _____    ______ ____
ROOT
ATOM      1  C   UNL     1     -34.888  21.521   0.437  0.00  0.00    +0.089 C 
ATOM      2  C   UNL     1     -35.556  22.765   1.084  0.00  0.00    +0.027 C 
ATOM      3  C   UNL     1     -35.389  22.855   2.635  0.00  0.00    +0.031 C 
ATOM      4  C   UNL     1     -35.257  20.184   1.128  0.00  0.00    +0.028 C 
ATOM      5  C   UNL     1     -36.110  24.145   3.226  0.00  0.00    +0.030 C 
ATOM      6  C   UNL     1     -35.608  25.422   2.470  0.00  0.00    +0.005 C 
ATOM      7  C   UNL     1     -35.810  21.510   3.282  0.00  0.00    +0.111 C 
ATOM      8  C   UNL     1     -35.083  20.315   2.660  0.00  0.00    +0.032 C 
ATOM      9  C   UNL     1     -34.176  19.187   0.599  0.00  0.00    +0.024 C 
ATOM     10  C   UNL     1     -35.100  24.059   0.382  0.00  0.00    +0.002 C 
ATOM     11  C   UNL     1     -33.351  21.524   0.466  0.00  0.00    +0.027 C 
ATOM     12  C   UNL     1     -35.773  25.301   0.950  0.00  0.00    +0.000 C 
ATOM     13  C   UNL     1     -32.924  20.055   0.351  0.00  0.00    +0.007 C 
ATOM     14  C   UNL     1     -35.855  24.389   4.744  0.00  0.00    +0.005 C 
ATOM     15  C   UNL     1     -36.698  19.724   0.828  0.00  0.00    +0.003 C 
ATOM     16  C   UNL     1     -34.143  25.786   2.822  0.00  0.00    +0.029 C 
ATOM     17  C   UNL     1     -34.400  24.706   5.086  0.00  0.00    +0.029 C 
ATOM     18  C   UNL     1     -33.907  25.931   4.322  0.00  0.00    +0.111 C 
ENDROOT
BRANCH   9  21
ATOM     19  O   UNL     1     -35.367  16.698  -1.912  0.00  0.00    -0.441 OA
ATOM     20  O   UNL     1     -34.805  17.627  -3.940  0.00  0.00    -0.245 OA
ATOM     21  C   UNL     1     -34.534  18.403  -0.630  0.00  0.00    +0.005 C 
ATOM     22  C   UNL     1     -35.215  17.094  -0.544  0.00  0.00    +0.231 C 
ATOM     23  C   UNL     1     -34.307  18.745  -1.895  0.00  0.00    +0.077 C 
ATOM     24  C   UNL     1     -34.836  17.660  -2.722  0.00  0.00    +0.341 C 
ENDBRANCH   9  21
BRANCH   1  25
ATOM     25  O   UNL     1     -35.314  21.497  -0.935  0.00  0.00    -0.387 OA
ATOM     26  H   UNL     1     -34.773  20.864  -1.431  0.00  0.00    +0.210 HD
ENDBRANCH   1  25
BRANCH   7  27
ATOM     27  O   UNL     1     -35.480  21.497   4.668  0.00  0.00    -0.384 OA
ATOM     28  H   UNL     1     -36.132  20.967   5.151  0.00  0.00    +0.210 HD
ENDBRANCH   7  27
BRANCH  18  29
ATOM     29  O   UNL     1     -34.588  27.097   4.781  0.00  0.00    -0.384 OA
ATOM     30  H   UNL     1     -34.108  27.887   4.490  0.00  0.00    +0.210 HD
ENDBRANCH  18  29
BRANCH   5  31
ATOM     31  C   UNL     1     -37.651  24.032   3.078  0.00  0.00    +0.137 C 
BRANCH  31  32
ATOM     32  O   UNL     1     -38.235  24.795   4.106  0.00  0.00    -0.382 OA
ATOM     33  H   UNL     1     -37.681  25.569   4.289  0.00  0.00    +0.210 HD
ENDBRANCH  31  32
ENDBRANCH   5  31
TORSDOF 6
ENDMDL
MODEL 2
REMARK VINA RESULT:      -6.2      3.363      7.704
REMARK  Name = 21123695
REMARK  6 active torsions:
REMARK  status: ('A' for Active; 'I' for Inactive)
REMARK    1  A    between atoms: C_1  and  O_25
REMARK    2  A    between atoms: C_5  and  C_31
REMARK    3  A    between atoms: C_7  and  O_27
REMARK    4  A    between atoms: C_9  and  C_21
REMARK    5  A    between atoms: C_18  and  O_29
REMARK    6  A    between atoms: C_31  and  O_32
REMARK                            x       y       z     vdW  Elec       q    Type
REMARK                         _______ _______ _______ _____ _____    ______ ____
ROOT
ATOM      1  C   UNL     1     -38.464  25.200   1.478  0.00  0.00    +0.089 C 
ATOM      2  C   UNL     1     -37.206  24.466   2.020  0.00  0.00    +0.027 C 
ATOM      3  C   UNL     1     -37.260  22.910   1.892  0.00  0.00    +0.031 C 
ATOM      4  C   UNL     1     -39.800  24.629   2.018  0.00  0.00    +0.028 C 
ATOM      5  C   UNL     1     -35.947  22.230   2.479  0.00  0.00    +0.030 C 
ATOM      6  C   UNL     1     -34.681  22.867   1.811  0.00  0.00    +0.005 C 
ATOM      7  C   UNL     1     -38.595  22.385   2.483  0.00  0.00    +0.111 C 
ATOM      8  C   UNL     1     -39.812  23.089   1.878  0.00  0.00    +0.032 C 
ATOM      9  C   UNL     1     -40.871  25.216   1.042  0.00  0.00    +0.024 C 
ATOM     10  C   UNL     1     -35.923  25.048   1.397  0.00  0.00    +0.002 C 
ATOM     11  C   UNL     1     -38.642  25.136  -0.048  0.00  0.00    +0.027 C 
ATOM     12  C   UNL     1     -34.660  24.394   1.941  0.00  0.00    +0.000 C 
ATOM     13  C   UNL     1     -40.137  25.364  -0.308  0.00  0.00    +0.007 C 
ATOM     14  C   UNL     1     -35.856  20.692   2.245  0.00  0.00    +0.005 C 
ATOM     15  C   UNL     1     -40.064  24.997   3.492  0.00  0.00    +0.003 C 
ATOM     16  C   UNL     1     -34.518  22.454   0.326  0.00  0.00    +0.029 C 
ATOM     17  C   UNL     1     -35.738  20.293   0.774  0.00  0.00    +0.029 C 
ATOM     18  C   UNL     1     -34.522  20.942   0.122  0.00  0.00    +0.111 C 
ENDROOT
BRANCH   9  21
ATOM     19  O   UNL     1     -42.019  28.744   1.427  0.00  0.00    -0.441 OA
ATOM     20  O   UNL     1     -43.454  28.679   3.224  0.00  0.00    -0.245 OA
ATOM     21  C   UNL     1     -41.508  26.512   1.449  0.00  0.00    +0.005 C 
ATOM     22  C   UNL     1     -41.228  27.773   0.732  0.00  0.00    +0.231 C 
ATOM     23  C   UNL     1     -42.362  26.707   2.450  0.00  0.00    +0.077 C 
ATOM     24  C   UNL     1     -42.694  28.132   2.443  0.00  0.00    +0.341 C 
ENDBRANCH   9  21
BRANCH   1  25
ATOM     25  O   UNL     1     -38.329  26.578   1.861  0.00  0.00    -0.387 OA
ATOM     26  H   UNL     1     -37.522  26.689   2.387  0.00  0.00    +0.210 HD
ENDBRANCH   1  25
BRANCH   7  27
ATOM     27  O   UNL     1     -38.756  20.998   2.200  0.00  0.00    -0.384 OA
ATOM     28  H   UNL     1     -39.340  20.890   1.433  0.00  0.00    +0.210 HD
ENDBRANCH   7  27
BRANCH  18  29
ATOM     29  O   UNL     1     -33.325  20.403   0.680  0.00  0.00    -0.384 OA
ATOM     30  H   UNL     1     -32.772  20.041  -0.030  0.00  0.00    +0.210 HD
ENDBRANCH  18  29
BRANCH   5  31
ATOM     31  C   UNL     1     -35.868  22.420   4.017  0.00  0.00    +0.137 C 
BRANCH  31  32
ATOM     32  O   UNL     1     -35.590  21.165   4.588  0.00  0.00    -0.382 OA
ATOM     33  H   UNL     1     -36.271  20.529   4.319  0.00  0.00    +0.210 HD
ENDBRANCH  31  32
ENDBRANCH   5  31
TORSDOF 6
ENDMDL
MODEL 3
REMARK VINA RESULT:      -6.1      3.015      8.238
REMARK  Name = 21123695
REMARK  6 active torsions:
REMARK  status: ('A' for Active; 'I' for Inactive)
REMARK    1  A    between atoms: C_1  and  O_25
REMARK    2  A    between atoms: C_5  and  C_31
REMARK    3  A    between atoms: C_7  and  O_27
REMARK    4  A    between atoms: C_9  and  C_21
REMARK    5  A    between atoms: C_18  and  O_29
REMARK    6  A    between atoms: C_31  and  O_32
REMARK                            x       y       z     vdW  Elec       q    Type
REMARK                         _______ _______ _______ _____ _____    ______ ____
ROOT
ATOM      1  C   UNL     1     -33.990  26.484   3.434  0.00  0.00    +0.089 C 
ATOM      2  C   UNL     1     -35.104  25.448   3.750  0.00  0.00    +0.027 C 
ATOM      3  C   UNL     1     -35.633  24.667   2.504  0.00  0.00    +0.031 C 
ATOM      4  C   UNL     1     -34.342  27.442   2.268  0.00  0.00    +0.028 C 
ATOM      5  C   UNL     1     -36.779  23.637   2.904  0.00  0.00    +0.030 C 
ATOM      6  C   UNL     1     -36.270  22.704   4.054  0.00  0.00    +0.005 C 
ATOM      7  C   UNL     1     -36.010  25.670   1.383  0.00  0.00    +0.111 C 
ATOM      8  C   UNL     1     -34.865  26.632   1.058  0.00  0.00    +0.032 C 
ATOM      9  C   UNL     1     -32.962  28.066   1.878  0.00  0.00    +0.024 C 
ATOM     10  C   UNL     1     -34.662  24.495   4.878  0.00  0.00    +0.002 C 
ATOM     11  C   UNL     1     -32.646  25.875   3.001  0.00  0.00    +0.027 C 
ATOM     12  C   UNL     1     -35.746  23.496   5.258  0.00  0.00    +0.000 C 
ATOM     13  C   UNL     1     -31.925  26.969   2.203  0.00  0.00    +0.007 C 
ATOM     14  C   UNL     1     -37.246  22.709   1.742  0.00  0.00    +0.005 C 
ATOM     15  C   UNL     1     -35.394  28.501   2.651  0.00  0.00    +0.003 C 
ATOM     16  C   UNL     1     -35.199  21.692   3.573  0.00  0.00    +0.029 C 
ATOM     17  C   UNL     1     -36.171  21.745   1.246  0.00  0.00    +0.029 C 
ATOM     18  C   UNL     1     -35.656  20.861   2.378  0.00  0.00    +0.111 C 
ENDROOT
BRANCH   9  21
ATOM     19  O   UNL     1     -32.441  31.617   2.895  0.00  0.00    -0.441 OA
ATOM     20  O   UNL     1     -31.292  31.473   4.883  0.00  0.00    -0.245 OA
ATOM     21  C   UNL     1     -32.600  29.359   2.548  0.00  0.00    +0.005 C 
ATOM     22  C   UNL     1     -32.963  30.665   1.960  0.00  0.00    +0.231 C 
ATOM     23  C   UNL     1     -31.942  29.513   3.693  0.00  0.00    +0.077 C 
ATOM     24  C   UNL     1     -31.836  30.954   3.923  0.00  0.00    +0.341 C 
ENDBRANCH   9  21
BRANCH   1  25
ATOM     25  O   UNL     1     -33.779  27.235   4.640  0.00  0.00    -0.387 OA
ATOM     26  H   UNL     1     -32.983  26.911   5.088  0.00  0.00    +0.210 HD
ENDBRANCH   1  25
BRANCH   7  27
ATOM     27  O   UNL     1     -36.304  24.980   0.172  0.00  0.00    -0.384 OA
ATOM     28  H   UNL     1     -36.804  25.563  -0.420  0.00  0.00    +0.210 HD
ENDBRANCH   7  27
BRANCH  18  29
ATOM     29  O   UNL     1     -36.686  19.972   2.808  0.00  0.00    -0.384 OA
ATOM     30  H   UNL     1     -37.460  20.486   3.086  0.00  0.00    +0.210 HD
ENDBRANCH  18  29
BRANCH   5  31
ATOM     31  C   UNL     1     -38.053  24.386   3.375  0.00  0.00    +0.137 C 
BRANCH  31  32
ATOM     32  O   UNL     1     -39.166  23.611   3.000  0.00  0.00    -0.382 OA
ATOM     33  H   UNL     1     -38.866  22.743   2.688  0.00  0.00    +0.210 HD
ENDBRANCH  31  32
ENDBRANCH   5  31
TORSDOF 6
ENDMDL
MODEL 4
REMARK VINA RESULT:      -6.0      2.451      7.489
REMARK  Name = 21123695
REMARK  6 active torsions:
REMARK  status: ('A' for Active; 'I' for Inactive)
REMARK    1  A    between atoms: C_1  and  O_25
REMARK    2  A    between atoms: C_5  and  C_31
REMARK    3  A    between atoms: C_7  and  O_27
REMARK    4  A    between atoms: C_9  and  C_21
REMARK    5  A    between atoms: C_18  and  O_29
REMARK    6  A    between atoms: C_31  and  O_32
REMARK                            x       y       z     vdW  Elec       q    Type
REMARK                         _______ _______ _______ _____ _____    ______ ____
ROOT
ATOM      1  C   UNL     1     -35.693  23.975   1.617  0.00  0.00    +0.089 C 
ATOM      2  C   UNL     1     -35.738  22.676   0.766  0.00  0.00    +0.027 C 
ATOM      3  C   UNL     1     -37.114  21.935   0.790  0.00  0.00    +0.031 C 
ATOM      4  C   UNL     1     -36.216  23.791   3.064  0.00  0.00    +0.028 C 
ATOM      5  C   UNL     1     -37.079  20.610  -0.091  0.00  0.00    +0.030 C 
ATOM      6  C   UNL     1     -36.580  20.951  -1.536  0.00  0.00    +0.005 C 
ATOM      7  C   UNL     1     -37.573  21.739   2.258  0.00  0.00    +0.111 C 
ATOM      8  C   UNL     1     -37.575  23.052   3.045  0.00  0.00    +0.032 C 
ATOM      9  C   UNL     1     -36.465  25.256   3.552  0.00  0.00    +0.024 C 
ATOM     10  C   UNL     1     -35.258  22.947  -0.673  0.00  0.00    +0.002 C 
ATOM     11  C   UNL     1     -36.546  25.132   1.074  0.00  0.00    +0.027 C 
ATOM     12  C   UNL     1     -35.235  21.688  -1.529  0.00  0.00    +0.000 C 
ATOM     13  C   UNL     1     -36.839  26.040   2.276  0.00  0.00    +0.007 C 
ATOM     14  C   UNL     1     -38.458  19.900  -0.245  0.00  0.00    +0.005 C 
ATOM     15  C   UNL     1     -35.239  23.014   3.968  0.00  0.00    +0.003 C 
ATOM     16  C   UNL     1     -37.624  21.752  -2.354  0.00  0.00    +0.029 C 
ATOM     17  C   UNL     1     -39.494  20.716  -1.016  0.00  0.00    +0.029 C 
ATOM     18  C   UNL     1     -38.989  21.072  -2.411  0.00  0.00    +0.111 C 
ENDROOT
BRANCH   9  21
ATOM     19  O   UNL     1     -33.618  27.385   4.680  0.00  0.00    -0.441 OA
ATOM     20  O   UNL     1     -33.074  26.550   6.753  0.00  0.00    -0.245 OA
ATOM     21  C   UNL     1     -35.331  25.921   4.275  0.00  0.00    +0.005 C 
ATOM     22  C   UNL     1     -34.596  27.059   3.686  0.00  0.00    +0.231 C 
ATOM     23  C   UNL     1     -34.850  25.606   5.475  0.00  0.00    +0.077 C 
ATOM     24  C   UNL     1     -33.753  26.538   5.741  0.00  0.00    +0.341 C 
ENDBRANCH   9  21
BRANCH   1  25
ATOM     25  O   UNL     1     -34.320  24.398   1.642  0.00  0.00    -0.387 OA
ATOM     26  H   UNL     1     -33.744  23.634   1.485  0.00  0.00    +0.210 HD
ENDBRANCH   1  25
BRANCH   7  27
ATOM     27  O   UNL     1     -38.910  21.248   2.302  0.00  0.00    -0.384 OA
ATOM     28  H   UNL     1     -38.900  20.301   2.512  0.00  0.00    +0.210 HD
ENDBRANCH   7  27
BRANCH  18  29
ATOM     29  O   UNL     1     -38.878  19.892  -3.205  0.00  0.00    -0.384 OA
ATOM     30  H   UNL     1     -39.714  19.737  -3.671  0.00  0.00    +0.210 HD
ENDBRANCH  18  29
BRANCH   5  31
ATOM     31  C   UNL     1     -36.136  19.552   0.542  0.00  0.00    +0.137 C 
BRANCH  31  32
ATOM     32  O   UNL     1     -36.915  18.423   0.860  0.00  0.00    -0.382 OA
ATOM     33  H   UNL     1     -37.586  18.668   1.516  0.00  0.00    +0.210 HD
ENDBRANCH  31  32
ENDBRANCH   5  31
TORSDOF 6
ENDMDL
MODEL 5
REMARK VINA RESULT:      -5.9      3.884      7.336
REMARK  Name = 21123695
REMARK  6 active torsions:
REMARK  status: ('A' for Active; 'I' for Inactive)
REMARK    1  A    between atoms: C_1  and  O_25
REMARK    2  A    between atoms: C_5  and  C_31
REMARK    3  A    between atoms: C_7  and  O_27
REMARK    4  A    between atoms: C_9  and  C_21
REMARK    5  A    between atoms: C_18  and  O_29
REMARK    6  A    between atoms: C_31  and  O_32
REMARK                            x       y       z     vdW  Elec       q    Type
REMARK                         _______ _______ _______ _____ _____    ______ ____
ROOT
ATOM      1  C   UNL     1     -33.345  26.934   2.328  0.00  0.00    +0.089 C 
ATOM      2  C   UNL     1     -34.508  26.396   3.207  0.00  0.00    +0.027 C 
ATOM      3  C   UNL     1     -35.022  24.977   2.802  0.00  0.00    +0.031 C 
ATOM      4  C   UNL     1     -33.619  26.839   0.806  0.00  0.00    +0.028 C 
ATOM      5  C   UNL     1     -36.220  24.501   3.736  0.00  0.00    +0.030 C 
ATOM      6  C   UNL     1     -35.788  24.603   5.239  0.00  0.00    +0.005 C 
ATOM      7  C   UNL     1     -35.321  24.947   1.281  0.00  0.00    +0.111 C 
ATOM      8  C   UNL     1     -34.129  25.424   0.447  0.00  0.00    +0.032 C 
ATOM      9  C   UNL     1     -32.204  27.024   0.167  0.00  0.00    +0.024 C 
ATOM     10  C   UNL     1     -34.143  26.469   4.702  0.00  0.00    +0.002 C 
ATOM     11  C   UNL     1     -32.011  26.189   2.497  0.00  0.00    +0.027 C 
ATOM     12  C   UNL     1     -35.277  26.001   5.605  0.00  0.00    +0.000 C 
ATOM     13  C   UNL     1     -31.221  26.441   1.205  0.00  0.00    +0.007 C 
ATOM     14  C   UNL     1     -36.681  23.032   3.497  0.00  0.00    +0.005 C 
ATOM     15  C   UNL     1     -34.643  27.879   0.309  0.00  0.00    +0.003 C 
ATOM     16  C   UNL     1     -34.739  23.531   5.632  0.00  0.00    +0.029 C 
ATOM     17  C   UNL     1     -35.625  21.985   3.847  0.00  0.00    +0.029 C 
ATOM     18  C   UNL     1     -35.186  22.109   5.303  0.00  0.00    +0.111 C 
ENDROOT
BRANCH   9  21
ATOM     19  O   UNL     1     -30.805  30.474  -0.067  0.00  0.00    -0.441 OA
ATOM     20  O   UNL     1     -31.695  31.315  -2.014  0.00  0.00    -0.245 OA
ATOM     21  C   UNL     1     -31.817  28.425  -0.207  0.00  0.00    +0.005 C 
ATOM     22  C   UNL     1     -30.908  29.230   0.635  0.00  0.00    +0.231 C 
ATOM     23  C   UNL     1     -32.209  29.107  -1.280  0.00  0.00    +0.077 C 
ATOM     24  C   UNL     1     -31.566  30.419  -1.198  0.00  0.00    +0.341 C 
ENDBRANCH   9  21
BRANCH   1  25
ATOM     25  O   UNL     1     -33.149  28.306   2.707  0.00  0.00    -0.387 OA
ATOM     26  H   UNL     1     -33.675  28.501   3.498  0.00  0.00    +0.210 HD
ENDBRANCH   1  25
BRANCH   7  27
ATOM     27  O   UNL     1     -35.598  23.616   0.852  0.00  0.00    -0.384 OA
ATOM     28  H   UNL     1     -35.384  23.529  -0.089  0.00  0.00    +0.210 HD
ENDBRANCH   7  27
BRANCH  18  29
ATOM     29  O   UNL     1     -36.263  21.757   6.169  0.00  0.00    -0.384 OA
ATOM     30  H   UNL     1     -36.905  21.216   5.683  0.00  0.00    +0.210 HD
ENDBRANCH  18  29
BRANCH   5  31
ATOM     31  C   UNL     1     -37.481  25.375   3.504  0.00  0.00    +0.137 C 
BRANCH  31  32
ATOM     32  O   UNL     1     -38.555  24.761   4.175  0.00  0.00    -0.382 OA
ATOM     33  H   UNL     1     -38.267  24.481   5.058  0.00  0.00    +0.210 HD
ENDBRANCH  31  32
ENDBRANCH   5  31
TORSDOF 6
ENDMDL
MODEL 6
REMARK VINA RESULT:      -5.9      3.061      7.946
REMARK  Name = 21123695
REMARK  6 active torsions:
REMARK  status: ('A' for Active; 'I' for Inactive)
REMARK    1  A    between atoms: C_1  and  O_25
REMARK    2  A    between atoms: C_5  and  C_31
REMARK    3  A    between atoms: C_7  and  O_27
REMARK    4  A    between atoms: C_9  and  C_21
REMARK    5  A    between atoms: C_18  and  O_29
REMARK    6  A    between atoms: C_31  and  O_32
REMARK                            x       y       z     vdW  Elec       q    Type
REMARK                         _______ _______ _______ _____ _____    ______ ____
ROOT
ATOM      1  C   UNL     1     -33.883  25.743   2.808  0.00  0.00    +0.089 C 
ATOM      2  C   UNL     1     -34.480  24.334   2.540  0.00  0.00    +0.027 C 
ATOM      3  C   UNL     1     -36.023  24.233   2.761  0.00  0.00    +0.031 C 
ATOM      4  C   UNL     1     -34.305  26.351   4.170  0.00  0.00    +0.028 C 
ATOM      5  C   UNL     1     -36.558  22.760   2.482  0.00  0.00    +0.030 C 
ATOM      6  C   UNL     1     -36.100  22.295   1.058  0.00  0.00    +0.005 C 
ATOM      7  C   UNL     1     -36.389  24.814   4.151  0.00  0.00    +0.111 C 
ATOM      8  C   UNL     1     -35.836  26.228   4.351  0.00  0.00    +0.032 C 
ATOM      9  C   UNL     1     -33.952  27.866   4.019  0.00  0.00    +0.024 C 
ATOM     10  C   UNL     1     -34.065  23.819   1.149  0.00  0.00    +0.002 C 
ATOM     11  C   UNL     1     -34.295  26.822   1.793  0.00  0.00    +0.027 C 
ATOM     12  C   UNL     1     -34.584  22.416   0.865  0.00  0.00    +0.000 C 
ATOM     13  C   UNL     1     -34.123  28.166   2.515  0.00  0.00    +0.007 C 
ATOM     14  C   UNL     1     -38.110  22.617   2.527  0.00  0.00    +0.005 C 
ATOM     15  C   UNL     1     -33.606  25.687   5.372  0.00  0.00    +0.003 C 
ATOM     16  C   UNL     1     -36.845  23.038  -0.081  0.00  0.00    +0.029 C 
ATOM     17  C   UNL     1     -38.837  23.387   1.426  0.00  0.00    +0.029 C 
ATOM     18  C   UNL     1     -38.363  22.953   0.043  0.00  0.00    +0.111 C 
ENDROOT
BRANCH   9  21
ATOM     19  O   UNL     1     -30.414  28.983   4.402  0.00  0.00    -0.441 OA
ATOM     20  O   UNL     1     -30.076  29.026   6.677  0.00  0.00    -0.245 OA
ATOM     21  C   UNL     1     -32.592  28.286   4.496  0.00  0.00    +0.005 C 
ATOM     22  C   UNL     1     -31.518  28.655   3.552  0.00  0.00    +0.231 C 
ATOM     23  C   UNL     1     -32.179  28.382   5.757  0.00  0.00    +0.077 C 
ATOM     24  C   UNL     1     -30.786  28.828   5.706  0.00  0.00    +0.341 C 
ENDBRANCH   9  21
BRANCH   1  25
ATOM     25  O   UNL     1     -32.454  25.596   2.758  0.00  0.00    -0.387 OA
ATOM     26  H   UNL     1     -32.058  26.031   3.529  0.00  0.00    +0.210 HD
ENDBRANCH   1  25
BRANCH   7  27
ATOM     27  O   UNL     1     -37.803  24.918   4.294  0.00  0.00    -0.384 OA
ATOM     28  H   UNL     1     -38.237  24.415   3.587  0.00  0.00    +0.210 HD
ENDBRANCH   7  27
BRANCH  18  29
ATOM     29  O   UNL     1     -38.767  21.608  -0.210  0.00  0.00    -0.384 OA
ATOM     30  H   UNL     1     -38.205  21.001   0.298  0.00  0.00    +0.210 HD
ENDBRANCH  18  29
BRANCH   5  31
ATOM     31  C   UNL     1     -36.019  21.767   3.545  0.00  0.00    +0.137 C 
BRANCH  31  32
ATOM     32  O   UNL     1     -36.340  20.466   3.115  0.00  0.00    -0.382 OA
ATOM     33  H   UNL     1     -36.647  20.496   2.196  0.00  0.00    +0.210 HD
ENDBRANCH  31  32
ENDBRANCH   5  31
TORSDOF 6
ENDMDL
MODEL 7
REMARK VINA RESULT:      -5.8      4.217      7.983
REMARK  Name = 21123695
REMARK  6 active torsions:
REMARK  status: ('A' for Active; 'I' for Inactive)
REMARK    1  A    between atoms: C_1  and  O_25
REMARK    2  A    between atoms: C_5  and  C_31
REMARK    3  A    between atoms: C_7  and  O_27
REMARK    4  A    between atoms: C_9  and  C_21
REMARK    5  A    between atoms: C_18  and  O_29
REMARK    6  A    between atoms: C_31  and  O_32
REMARK                            x       y       z     vdW  Elec       q    Type
REMARK                         _______ _______ _______ _____ _____    ______ ____
ROOT
ATOM      1  C   UNL     1     -36.262  25.685   3.804  0.00  0.00    +0.089 C 
ATOM      2  C   UNL     1     -37.564  25.673   2.957  0.00  0.00    +0.027 C 
ATOM      3  C   UNL     1     -37.459  24.867   1.622  0.00  0.00    +0.031 C 
ATOM      4  C   UNL     1     -34.997  26.078   2.999  0.00  0.00    +0.028 C 
ATOM      5  C   UNL     1     -38.824  24.912   0.804  0.00  0.00    +0.030 C 
ATOM      6  C   UNL     1     -40.004  24.446   1.723  0.00  0.00    +0.005 C 
ATOM      7  C   UNL     1     -36.204  25.325   0.835  0.00  0.00    +0.111 C 
ATOM      8  C   UNL     1     -34.933  25.262   1.686  0.00  0.00    +0.032 C 
ATOM      9  C   UNL     1     -33.820  25.615   3.918  0.00  0.00    +0.024 C 
ATOM     10  C   UNL     1     -38.766  25.220   3.807  0.00  0.00    +0.002 C 
ATOM     11  C   UNL     1     -35.882  24.331   4.425  0.00  0.00    +0.027 C 
ATOM     12  C   UNL     1     -40.075  25.245   3.030  0.00  0.00    +0.000 C 
ATOM     13  C   UNL     1     -34.371  24.394   4.685  0.00  0.00    +0.007 C 
ATOM     14  C   UNL     1     -38.849  24.002  -0.460  0.00  0.00    +0.005 C 
ATOM     15  C   UNL     1     -34.938  27.579   2.657  0.00  0.00    +0.003 C 
ATOM     16  C   UNL     1     -39.959  22.927   2.027  0.00  0.00    +0.029 C 
ATOM     17  C   UNL     1     -38.762  22.508  -0.153  0.00  0.00    +0.029 C 
ATOM     18  C   UNL     1     -39.895  22.067   0.768  0.00  0.00    +0.111 C 
ENDROOT
BRANCH   9  21
ATOM     19  O   UNL     1     -32.809  27.688   6.850  0.00  0.00    -0.441 OA
ATOM     20  O   UNL     1     -31.627  29.433   5.929  0.00  0.00    -0.245 OA
ATOM     21  C   UNL     1     -33.271  26.640   4.868  0.00  0.00    +0.005 C 
ATOM     22  C   UNL     1     -33.480  26.536   6.326  0.00  0.00    +0.231 C 
ATOM     23  C   UNL     1     -32.563  27.723   4.558  0.00  0.00    +0.077 C 
ATOM     24  C   UNL     1     -32.263  28.399   5.821  0.00  0.00    +0.341 C 
ENDBRANCH   9  21
BRANCH   1  25
ATOM     25  O   UNL     1     -36.477  26.626   4.868  0.00  0.00    -0.387 OA
ATOM     26  H   UNL     1     -36.037  26.310   5.672  0.00  0.00    +0.210 HD
ENDBRANCH   1  25
BRANCH   7  27
ATOM     27  O   UNL     1     -35.975  24.472  -0.283  0.00  0.00    -0.384 OA
ATOM     28  H   UNL     1     -36.826  24.179  -0.646  0.00  0.00    +0.210 HD
ENDBRANCH   7  27
BRANCH  18  29
ATOM     29  O   UNL     1     -41.143  22.165   0.085  0.00  0.00    -0.384 OA
ATOM     30  H   UNL     1     -41.018  21.943  -0.850  0.00  0.00    +0.210 HD
ENDBRANCH  18  29
BRANCH   5  31
ATOM     31  C   UNL     1     -39.110  26.347   0.288  0.00  0.00    +0.137 C 
BRANCH  31  32
ATOM     32  O   UNL     1     -39.040  26.317  -1.117  0.00  0.00    -0.382 OA
ATOM     33  H   UNL     1     -38.479  25.577  -1.397  0.00  0.00    +0.210 HD
ENDBRANCH  31  32
ENDBRANCH   5  31
TORSDOF 6
ENDMDL
MODEL 8
REMARK VINA RESULT:      -5.8      4.959      7.924
REMARK  Name = 21123695
REMARK  6 active torsions:
REMARK  status: ('A' for Active; 'I' for Inactive)
REMARK    1  A    between atoms: C_1  and  O_25
REMARK    2  A    between atoms: C_5  and  C_31
REMARK    3  A    between atoms: C_7  and  O_27
REMARK    4  A    between atoms: C_9  and  C_21
REMARK    5  A    between atoms: C_18  and  O_29
REMARK    6  A    between atoms: C_31  and  O_32
REMARK                            x       y       z     vdW  Elec       q    Type
REMARK                         _______ _______ _______ _____ _____    ______ ____
ROOT
ATOM      1  C   UNL     1     -34.533  27.515   3.126  0.00  0.00    +0.089 C 
ATOM      2  C   UNL     1     -34.114  29.006   3.250  0.00  0.00    +0.027 C 
ATOM      3  C   UNL     1     -32.674  29.318   2.728  0.00  0.00    +0.031 C 
ATOM      4  C   UNL     1     -33.490  26.524   3.701  0.00  0.00    +0.028 C 
ATOM      5  C   UNL     1     -32.312  30.858   2.900  0.00  0.00    +0.030 C 
ATOM      6  C   UNL     1     -33.422  31.739   2.232  0.00  0.00    +0.005 C 
ATOM      7  C   UNL     1     -31.664  28.328   3.363  0.00  0.00    +0.111 C 
ATOM      8  C   UNL     1     -32.081  26.869   3.165  0.00  0.00    +0.032 C 
ATOM      9  C   UNL     1     -33.920  25.148   3.095  0.00  0.00    +0.024 C 
ATOM     10  C   UNL     1     -35.169  29.927   2.608  0.00  0.00    +0.002 C 
ATOM     11  C   UNL     1     -34.738  27.020   1.685  0.00  0.00    +0.027 C 
ATOM     12  C   UNL     1     -34.824  31.403   2.754  0.00  0.00    +0.000 C 
ATOM     13  C   UNL     1     -34.557  25.497   1.733  0.00  0.00    +0.007 C 
ATOM     14  C   UNL     1     -30.955  31.278   2.258  0.00  0.00    +0.005 C 
ATOM     15  C   UNL     1     -33.448  26.515   5.242  0.00  0.00    +0.003 C 
ATOM     16  C   UNL     1     -33.395  31.660   0.684  0.00  0.00    +0.029 C 
ATOM     17  C   UNL     1     -30.924  31.157   0.736  0.00  0.00    +0.029 C 
ATOM     18  C   UNL     1     -32.028  31.991   0.093  0.00  0.00    +0.111 C 
ENDROOT
BRANCH   9  21
ATOM     19  O   UNL     1     -36.794  23.303   4.595  0.00  0.00    -0.441 OA
ATOM     20  O   UNL     1     -35.903  22.283   6.455  0.00  0.00    -0.245 OA
ATOM     21  C   UNL     1     -34.852  24.314   3.924  0.00  0.00    +0.005 C 
ATOM     22  C   UNL     1     -36.277  24.155   3.566  0.00  0.00    +0.231 C 
ATOM     23  C   UNL     1     -34.556  23.640   5.032  0.00  0.00    +0.077 C 
ATOM     24  C   UNL     1     -35.793  22.990   5.468  0.00  0.00    +0.341 C 
ENDBRANCH   9  21
BRANCH   1  25
ATOM     25  O   UNL     1     -35.778  27.382   3.832  0.00  0.00    -0.387 OA
ATOM     26  H   UNL     1     -36.278  26.636   3.466  0.00  0.00    +0.210 HD
ENDBRANCH   1  25
BRANCH   7  27
ATOM     27  O   UNL     1     -30.383  28.461   2.754  0.00  0.00    -0.384 OA
ATOM     28  H   UNL     1     -29.699  28.478   3.441  0.00  0.00    +0.210 HD
ENDBRANCH   7  27
BRANCH  18  29
ATOM     29  O   UNL     1     -31.768  33.379   0.293  0.00  0.00    -0.384 OA
ATOM     30  H   UNL     1     -30.826  33.508   0.482  0.00  0.00    +0.210 HD
ENDBRANCH  18  29
BRANCH   5  31
ATOM     31  C   UNL     1     -32.194  31.232   4.402  0.00  0.00    +0.137 C 
BRANCH  31  32
ATOM     32  O   UNL     1     -30.845  31.539   4.659  0.00  0.00    -0.382 OA
ATOM     33  H   UNL     1     -30.794  32.313   5.242  0.00  0.00    +0.210 HD
ENDBRANCH  31  32
ENDBRANCH   5  31
TORSDOF 6
ENDMDL
MODEL 9
REMARK VINA RESULT:      -5.7      2.090      3.054
REMARK  Name = 21123695
REMARK  6 active torsions:
REMARK  status: ('A' for Active; 'I' for Inactive)
REMARK    1  A    between atoms: C_1  and  O_25
REMARK    2  A    between atoms: C_5  and  C_31
REMARK    3  A    between atoms: C_7  and  O_27
REMARK    4  A    between atoms: C_9  and  C_21
REMARK    5  A    between atoms: C_18  and  O_29
REMARK    6  A    between atoms: C_31  and  O_32
REMARK                            x       y       z     vdW  Elec       q    Type
REMARK                         _______ _______ _______ _____ _____    ______ ____
ROOT
ATOM      1  C   UNL     1     -36.195  22.504   1.017  0.00  0.00    +0.089 C 
ATOM      2  C   UNL     1     -35.731  23.933   1.413  0.00  0.00    +0.027 C 
ATOM      3  C   UNL     1     -36.338  24.461   2.753  0.00  0.00    +0.031 C 
ATOM      4  C   UNL     1     -37.733  22.312   1.061  0.00  0.00    +0.028 C 
ATOM      5  C   UNL     1     -35.829  25.932   3.085  0.00  0.00    +0.030 C 
ATOM      6  C   UNL     1     -34.263  25.967   3.052  0.00  0.00    +0.005 C 
ATOM      7  C   UNL     1     -37.879  24.286   2.731  0.00  0.00    +0.111 C 
ATOM      8  C   UNL     1     -38.294  22.850   2.398  0.00  0.00    +0.032 C 
ATOM      9  C   UNL     1     -37.908  20.759   1.049  0.00  0.00    +0.024 C 
ATOM     10  C   UNL     1     -34.194  24.032   1.402  0.00  0.00    +0.002 C 
ATOM     11  C   UNL     1     -35.670  21.380   1.924  0.00  0.00    +0.027 C 
ATOM     12  C   UNL     1     -33.696  25.432   1.732  0.00  0.00    +0.000 C 
ATOM     13  C   UNL     1     -36.652  20.212   1.760  0.00  0.00    +0.007 C 
ATOM     14  C   UNL     1     -36.265  26.466   4.482  0.00  0.00    +0.005 C 
ATOM     15  C   UNL     1     -38.464  23.010  -0.103  0.00  0.00    +0.003 C 
ATOM     16  C   UNL     1     -33.625  25.219   4.251  0.00  0.00    +0.029 C 
ATOM     17  C   UNL     1     -35.664  25.696   5.657  0.00  0.00    +0.029 C 
ATOM     18  C   UNL     1     -34.139  25.706   5.602  0.00  0.00    +0.111 C 
ENDROOT
BRANCH   9  21
ATOM     19  O   UNL     1     -39.129  19.373  -2.192  0.00  0.00    -0.441 OA
ATOM     20  O   UNL     1     -37.245  18.496  -3.179  0.00  0.00    -0.245 OA
ATOM     21  C   UNL     1     -38.083  20.117  -0.297  0.00  0.00    +0.005 C 
ATOM     22  C   UNL     1     -39.401  20.049  -0.959  0.00  0.00    +0.231 C 
ATOM     23  C   UNL     1     -37.139  19.550  -1.044  0.00  0.00    +0.077 C 
ATOM     24  C   UNL     1     -37.800  19.071  -2.258  0.00  0.00    +0.341 C 
ENDBRANCH   9  21
BRANCH   1  25
ATOM     25  O   UNL     1     -35.711  22.274  -0.316  0.00  0.00    -0.387 OA
ATOM     26  H   UNL     1     -36.255  22.769  -0.948  0.00  0.00    +0.210 HD
ENDBRANCH   1  25
BRANCH   7  27
ATOM     27  O   UNL     1     -38.433  24.573   4.012  0.00  0.00    -0.384 OA
ATOM     28  H   UNL     1     -39.283  25.026   3.902  0.00  0.00    +0.210 HD
ENDBRANCH   7  27
BRANCH  18  29
ATOM     29  O   UNL     1     -33.653  27.029   5.825  0.00  0.00    -0.384 OA
ATOM     30  H   UNL     1     -33.064  27.031   6.595  0.00  0.00    +0.210 HD
ENDBRANCH  18  29
BRANCH   5  31
ATOM     31  C   UNL     1     -36.387  26.953   2.058  0.00  0.00    +0.137 C 
BRANCH  31  32
ATOM     32  O   UNL     1     -36.009  28.239   2.486  0.00  0.00    -0.382 OA
ATOM     33  H   UNL     1     -36.728  28.864   2.310  0.00  0.00    +0.210 HD
ENDBRANCH  31  32
ENDBRANCH   5  31
TORSDOF 6
ENDMDL
