MODEL 1
REMARK VINA RESULT:      -7.0      0.000      0.000
REMARK  Name = 5489605
REMARK  4 active torsions:
REMARK  status: ('A' for Active; 'I' for Inactive)
REMARK    1  A    between atoms: C_12  and  O_19
REMARK    2  A    between atoms: C_15  and  O_21
REMARK    3  A    between atoms: C_16  and  O_23
REMARK    4  A    between atoms: C_18  and  O_25
REMARK                            x       y       z     vdW  Elec       q    Type
REMARK                         _______ _______ _______ _____ _____    ______ ____
ROOT
ATOM      1  O   UNL     1     -33.718  25.193   5.615  0.00  0.00    -0.453 OA
ATOM      2  O   UNL     1     -33.825  27.813   2.483  0.00  0.00    -0.421 OA
ATOM      3  O   UNL     1     -35.001  26.214   1.299  0.00  0.00    -0.244 OA
ATOM      4  C   UNL     1     -34.352  25.683   3.501  0.00  0.00    +0.114 A 
ATOM      5  C   UNL     1     -33.708  26.117   4.631  0.00  0.00    +0.157 A 
ATOM      6  C   UNL     1     -34.809  24.374   3.796  0.00  0.00    +0.047 A 
ATOM      7  C   UNL     1     -33.080  27.397   4.795  0.00  0.00    +0.103 A 
ATOM      8  C   UNL     1     -34.395  24.119   5.106  0.00  0.00    +0.149 A 
ATOM      9  C   UNL     1     -33.157  28.241   3.676  0.00  0.00    +0.158 A 
ATOM     10  C   UNL     1     -34.442  26.539   2.339  0.00  0.00    +0.349 A 
ATOM     11  C   UNL     1     -35.523  23.372   3.115  0.00  0.00    +0.043 C 
ATOM     12  C   UNL     1     -32.426  27.836   5.942  0.00  0.00    +0.143 C 
ATOM     13  C   UNL     1     -34.646  22.928   5.785  0.00  0.00    +0.077 C 
ATOM     14  C   UNL     1     -32.596  29.513   3.682  0.00  0.00    +0.074 C 
ATOM     15  C   UNL     1     -35.788  22.164   3.774  0.00  0.00    +0.168 C 
ATOM     16  C   UNL     1     -35.357  21.949   5.085  0.00  0.00    +0.171 C 
ATOM     17  C   UNL     1     -31.858  29.114   5.958  0.00  0.00    +0.073 C 
ATOM     18  C   UNL     1     -31.943  29.947   4.836  0.00  0.00    +0.140 C 
ENDROOT
BRANCH  12  19
ATOM     19  O   UNL     1     -32.318  27.063   7.057  0.00  0.00    -0.505 OA
ATOM     20  H   UNL     1     -32.497  26.145   7.010  0.00  0.00    +0.292 HD
ENDBRANCH  12  19
BRANCH  15  21
ATOM     21  O   UNL     1     -36.481  21.192   3.113  0.00  0.00    -0.503 OA
ATOM     22  H   UNL     1     -37.061  21.423   2.415  0.00  0.00    +0.292 HD
ENDBRANCH  15  21
BRANCH  16  23
ATOM     23  O   UNL     1     -35.628  20.764   5.707  0.00  0.00    -0.503 OA
ATOM     24  H   UNL     1     -34.971  20.349   6.231  0.00  0.00    +0.292 HD
ENDBRANCH  16  23
BRANCH  18  25
ATOM     25  O   UNL     1     -31.384  31.189   4.871  0.00  0.00    -0.505 OA
ATOM     26  H   UNL     1     -31.831  31.915   4.484  0.00  0.00    +0.292 HD
ENDBRANCH  18  25
TORSDOF 4
ENDMDL
MODEL 2
REMARK VINA RESULT:      -6.8      1.034      1.063
REMARK  Name = 5489605
REMARK  4 active torsions:
REMARK  status: ('A' for Active; 'I' for Inactive)
REMARK    1  A    between atoms: C_12  and  O_19
REMARK    2  A    between atoms: C_15  and  O_21
REMARK    3  A    between atoms: C_16  and  O_23
REMARK    4  A    between atoms: C_18  and  O_25
REMARK                            x       y       z     vdW  Elec       q    Type
REMARK                         _______ _______ _______ _____ _____    ______ ____
ROOT
ATOM      1  O   UNL     1     -33.484  25.859   5.547  0.00  0.00    -0.453 OA
ATOM      2  O   UNL     1     -33.895  28.857   2.805  0.00  0.00    -0.421 OA
ATOM      3  O   UNL     1     -35.547  27.593   1.798  0.00  0.00    -0.244 OA
ATOM      4  C   UNL     1     -34.501  26.698   3.711  0.00  0.00    +0.114 A 
ATOM      5  C   UNL     1     -33.555  26.895   4.684  0.00  0.00    +0.157 A 
ATOM      6  C   UNL     1     -35.077  25.432   3.982  0.00  0.00    +0.047 A 
ATOM      7  C   UNL     1     -32.713  28.050   4.810  0.00  0.00    +0.103 A 
ATOM      8  C   UNL     1     -34.418  24.956   5.119  0.00  0.00    +0.149 A 
ATOM      9  C   UNL     1     -32.913  29.037   3.832  0.00  0.00    +0.158 A 
ATOM     10  C   UNL     1     -34.720  27.704   2.694  0.00  0.00    +0.349 A 
ATOM     11  C   UNL     1     -36.076  24.628   3.404  0.00  0.00    +0.043 C 
ATOM     12  C   UNL     1     -31.754  28.247   5.798  0.00  0.00    +0.143 C 
ATOM     13  C   UNL     1     -34.690  23.729   5.720  0.00  0.00    +0.077 C 
ATOM     14  C   UNL     1     -32.173  30.214   3.822  0.00  0.00    +0.074 C 
ATOM     15  C   UNL     1     -36.369  23.389   3.989  0.00  0.00    +0.168 C 
ATOM     16  C   UNL     1     -35.687  22.950   5.126  0.00  0.00    +0.171 C 
ATOM     17  C   UNL     1     -31.004  29.428   5.797  0.00  0.00    +0.073 C 
ATOM     18  C   UNL     1     -31.213  30.405   4.816  0.00  0.00    +0.140 C 
ENDROOT
BRANCH  12  19
ATOM     19  O   UNL     1     -31.515  27.327   6.773  0.00  0.00    -0.505 OA
ATOM     20  H   UNL     1     -30.807  27.453   7.373  0.00  0.00    +0.292 HD
ENDBRANCH  12  19
BRANCH  15  21
ATOM     21  O   UNL     1     -37.338  22.609   3.428  0.00  0.00    -0.503 OA
ATOM     22  H   UNL     1     -37.235  21.678   3.406  0.00  0.00    +0.292 HD
ENDBRANCH  15  21
BRANCH  16  23
ATOM     23  O   UNL     1     -35.990  21.738   5.679  0.00  0.00    -0.503 OA
ATOM     24  H   UNL     1     -36.095  21.660   6.607  0.00  0.00    +0.292 HD
ENDBRANCH  16  23
BRANCH  18  25
ATOM     25  O   UNL     1     -30.473  31.549   4.832  0.00  0.00    -0.505 OA
ATOM     26  H   UNL     1     -30.892  32.379   4.715  0.00  0.00    +0.292 HD
ENDBRANCH  18  25
TORSDOF 4
ENDMDL
MODEL 3
REMARK VINA RESULT:      -6.5      1.533      3.281
REMARK  Name = 5489605
REMARK  4 active torsions:
REMARK  status: ('A' for Active; 'I' for Inactive)
REMARK    1  A    between atoms: C_12  and  O_19
REMARK    2  A    between atoms: C_15  and  O_21
REMARK    3  A    between atoms: C_16  and  O_23
REMARK    4  A    between atoms: C_18  and  O_25
REMARK                            x       y       z     vdW  Elec       q    Type
REMARK                         _______ _______ _______ _____ _____    ______ ____
ROOT
ATOM      1  O   UNL     1     -34.603  24.920   2.186  0.00  0.00    -0.453 OA
ATOM      2  O   UNL     1     -33.392  27.774   4.845  0.00  0.00    -0.421 OA
ATOM      3  O   UNL     1     -33.741  26.230   6.529  0.00  0.00    -0.244 OA
ATOM      4  C   UNL     1     -34.184  25.551   4.316  0.00  0.00    +0.114 A 
ATOM      5  C   UNL     1     -34.191  25.920   2.995  0.00  0.00    +0.157 A 
ATOM      6  C   UNL     1     -34.629  24.205   4.344  0.00  0.00    +0.047 A 
ATOM      7  C   UNL     1     -33.813  27.206   2.485  0.00  0.00    +0.103 A 
ATOM      8  C   UNL     1     -34.874  23.864   3.011  0.00  0.00    +0.149 A 
ATOM      9  C   UNL     1     -33.409  28.133   3.458  0.00  0.00    +0.158 A 
ATOM     10  C   UNL     1     -33.770  26.492   5.333  0.00  0.00    +0.349 A 
ATOM     11  C   UNL     1     -34.855  23.233   5.335  0.00  0.00    +0.043 C 
ATOM     12  C   UNL     1     -33.821  27.578   1.144  0.00  0.00    +0.143 C 
ATOM     13  C   UNL     1     -35.330  22.613   2.598  0.00  0.00    +0.077 C 
ATOM     14  C   UNL     1     -33.014  29.422   3.118  0.00  0.00    +0.074 C 
ATOM     15  C   UNL     1     -35.314  21.967   4.947  0.00  0.00    +0.168 C 
ATOM     16  C   UNL     1     -35.547  21.665   3.602  0.00  0.00    +0.171 C 
ATOM     17  C   UNL     1     -33.425  28.873   0.792  0.00  0.00    +0.073 C 
ATOM     18  C   UNL     1     -33.024  29.788   1.772  0.00  0.00    +0.140 C 
ENDROOT
BRANCH  12  19
ATOM     19  O   UNL     1     -34.203  26.724   0.155  0.00  0.00    -0.505 OA
ATOM     20  H   UNL     1     -33.818  26.791  -0.696  0.00  0.00    +0.292 HD
ENDBRANCH  12  19
BRANCH  15  21
ATOM     21  O   UNL     1     -35.534  21.024   5.908  0.00  0.00    -0.503 OA
ATOM     22  H   UNL     1     -35.333  21.212   6.803  0.00  0.00    +0.292 HD
ENDBRANCH  15  21
BRANCH  16  23
ATOM     23  O   UNL     1     -35.995  20.425   3.249  0.00  0.00    -0.503 OA
ATOM     24  H   UNL     1     -35.398  19.795   2.895  0.00  0.00    +0.292 HD
ENDBRANCH  16  23
BRANCH  18  25
ATOM     25  O   UNL     1     -32.641  31.044   1.409  0.00  0.00    -0.505 OA
ATOM     26  H   UNL     1     -32.404  31.223   0.521  0.00  0.00    +0.292 HD
ENDBRANCH  18  25
TORSDOF 4
ENDMDL
MODEL 4
REMARK VINA RESULT:      -6.3      2.009      3.988
REMARK  Name = 5489605
REMARK  4 active torsions:
REMARK  status: ('A' for Active; 'I' for Inactive)
REMARK    1  A    between atoms: C_12  and  O_19
REMARK    2  A    between atoms: C_15  and  O_21
REMARK    3  A    between atoms: C_16  and  O_23
REMARK    4  A    between atoms: C_18  and  O_25
REMARK                            x       y       z     vdW  Elec       q    Type
REMARK                         _______ _______ _______ _____ _____    ______ ____
ROOT
ATOM      1  O   UNL     1     -34.377  23.938   1.803  0.00  0.00    -0.453 OA
ATOM      2  O   UNL     1     -34.876  24.384   5.832  0.00  0.00    -0.421 OA
ATOM      3  O   UNL     1     -36.024  22.378   5.824  0.00  0.00    -0.244 OA
ATOM      4  C   UNL     1     -35.187  23.165   3.767  0.00  0.00    +0.114 A 
ATOM      5  C   UNL     1     -34.496  24.163   3.129  0.00  0.00    +0.157 A 
ATOM      6  C   UNL     1     -35.533  22.230   2.759  0.00  0.00    +0.047 A 
ATOM      7  C   UNL     1     -33.946  25.330   3.756  0.00  0.00    +0.103 A 
ATOM      8  C   UNL     1     -35.013  22.750   1.571  0.00  0.00    +0.149 A 
ATOM      9  C   UNL     1     -34.158  25.413   5.141  0.00  0.00    +0.158 A 
ATOM     10  C   UNL     1     -35.415  23.233   5.194  0.00  0.00    +0.349 A 
ATOM     11  C   UNL     1     -36.223  21.005   2.706  0.00  0.00    +0.043 C 
ATOM     12  C   UNL     1     -33.246  26.342   3.107  0.00  0.00    +0.143 C 
ATOM     13  C   UNL     1     -35.135  22.129   0.329  0.00  0.00    +0.077 C 
ATOM     14  C   UNL     1     -33.685  26.486   5.888  0.00  0.00    +0.074 C 
ATOM     15  C   UNL     1     -36.361  20.360   1.470  0.00  0.00    +0.168 C 
ATOM     16  C   UNL     1     -35.825  20.913   0.304  0.00  0.00    +0.171 C 
ATOM     17  C   UNL     1     -32.765  27.426   3.850  0.00  0.00    +0.073 C 
ATOM     18  C   UNL     1     -32.983  27.497   5.232  0.00  0.00    +0.140 C 
ENDROOT
BRANCH  12  19
ATOM     19  O   UNL     1     -33.009  26.318   1.767  0.00  0.00    -0.505 OA
ATOM     20  H   UNL     1     -33.716  26.179   1.169  0.00  0.00    +0.292 HD
ENDBRANCH  12  19
BRANCH  15  21
ATOM     21  O   UNL     1     -37.031  19.172   1.419  0.00  0.00    -0.503 OA
ATOM     22  H   UNL     1     -37.171  18.749   0.595  0.00  0.00    +0.292 HD
ENDBRANCH  15  21
BRANCH  16  23
ATOM     23  O   UNL     1     -35.972  20.266  -0.889  0.00  0.00    -0.503 OA
ATOM     24  H   UNL     1     -35.548  20.597  -1.656  0.00  0.00    +0.292 HD
ENDBRANCH  16  23
BRANCH  18  25
ATOM     25  O   UNL     1     -32.507  28.560   5.937  0.00  0.00    -0.505 OA
ATOM     26  H   UNL     1     -31.588  28.743   5.945  0.00  0.00    +0.292 HD
ENDBRANCH  18  25
TORSDOF 4
ENDMDL
MODEL 5
REMARK VINA RESULT:      -6.3      3.443      5.804
REMARK  Name = 5489605
REMARK  4 active torsions:
REMARK  status: ('A' for Active; 'I' for Inactive)
REMARK    1  A    between atoms: C_12  and  O_19
REMARK    2  A    between atoms: C_15  and  O_21
REMARK    3  A    between atoms: C_16  and  O_23
REMARK    4  A    between atoms: C_18  and  O_25
REMARK                            x       y       z     vdW  Elec       q    Type
REMARK                         _______ _______ _______ _____ _____    ______ ____
ROOT
ATOM      1  O   UNL     1     -38.445  23.907   2.335  0.00  0.00    -0.453 OA
ATOM      2  O   UNL     1     -35.055  22.235   3.881  0.00  0.00    -0.421 OA
ATOM      3  O   UNL     1     -35.547  20.329   2.669  0.00  0.00    -0.244 OA
ATOM      4  C   UNL     1     -37.033  22.149   2.491  0.00  0.00    +0.114 A 
ATOM      5  C   UNL     1     -37.311  23.431   2.891  0.00  0.00    +0.157 A 
ATOM      6  C   UNL     1     -38.080  21.785   1.608  0.00  0.00    +0.047 A 
ATOM      7  C   UNL     1     -36.518  24.216   3.793  0.00  0.00    +0.103 A 
ATOM      8  C   UNL     1     -38.922  22.898   1.544  0.00  0.00    +0.149 A 
ATOM      9  C   UNL     1     -35.369  23.573   4.282  0.00  0.00    +0.158 A 
ATOM     10  C   UNL     1     -35.854  21.471   2.984  0.00  0.00    +0.349 A 
ATOM     11  C   UNL     1     -38.419  20.647   0.853  0.00  0.00    +0.043 C 
ATOM     12  C   UNL     1     -36.802  25.516   4.198  0.00  0.00    +0.143 C 
ATOM     13  C   UNL     1     -40.083  22.953   0.777  0.00  0.00    +0.077 C 
ATOM     14  C   UNL     1     -34.501  24.205   5.166  0.00  0.00    +0.074 C 
ATOM     15  C   UNL     1     -39.582  20.676   0.072  0.00  0.00    +0.168 C 
ATOM     16  C   UNL     1     -40.398  21.810   0.036  0.00  0.00    +0.171 C 
ATOM     17  C   UNL     1     -35.934  26.160   5.086  0.00  0.00    +0.073 C 
ATOM     18  C   UNL     1     -34.792  25.509   5.567  0.00  0.00    +0.140 C 
ENDROOT
BRANCH  12  19
ATOM     19  O   UNL     1     -37.900  26.190   3.758  0.00  0.00    -0.505 OA
ATOM     20  H   UNL     1     -38.552  25.745   3.254  0.00  0.00    +0.292 HD
ENDBRANCH  12  19
BRANCH  15  21
ATOM     21  O   UNL     1     -39.911  19.573  -0.661  0.00  0.00    -0.503 OA
ATOM     22  H   UNL     1     -40.300  19.672  -1.507  0.00  0.00    +0.292 HD
ENDBRANCH  15  21
BRANCH  16  23
ATOM     23  O   UNL     1     -41.526  21.815  -0.733  0.00  0.00    -0.503 OA
ATOM     24  H   UNL     1     -41.829  21.020  -1.125  0.00  0.00    +0.292 HD
ENDBRANCH  16  23
BRANCH  18  25
ATOM     25  O   UNL     1     -33.959  26.153   6.431  0.00  0.00    -0.505 OA
ATOM     26  H   UNL     1     -33.709  27.040   6.266  0.00  0.00    +0.292 HD
ENDBRANCH  18  25
TORSDOF 4
ENDMDL
MODEL 6
REMARK VINA RESULT:      -6.2      1.161      6.320
REMARK  Name = 5489605
REMARK  4 active torsions:
REMARK  status: ('A' for Active; 'I' for Inactive)
REMARK    1  A    between atoms: C_12  and  O_19
REMARK    2  A    between atoms: C_15  and  O_21
REMARK    3  A    between atoms: C_16  and  O_23
REMARK    4  A    between atoms: C_18  and  O_25
REMARK                            x       y       z     vdW  Elec       q    Type
REMARK                         _______ _______ _______ _____ _____    ______ ____
ROOT
ATOM      1  O   UNL     1     -33.735  25.535   5.662  0.00  0.00    -0.453 OA
ATOM      2  O   UNL     1     -34.525  24.970   1.694  0.00  0.00    -0.421 OA
ATOM      3  O   UNL     1     -33.514  27.009   1.292  0.00  0.00    -0.244 OA
ATOM      4  C   UNL     1     -33.621  26.266   3.525  0.00  0.00    +0.114 A 
ATOM      5  C   UNL     1     -34.035  25.270   4.372  0.00  0.00    +0.157 A 
ATOM      6  C   UNL     1     -33.009  27.244   4.350  0.00  0.00    +0.047 A 
ATOM      7  C   UNL     1     -34.711  24.067   3.979  0.00  0.00    +0.103 A 
ATOM      8  C   UNL     1     -33.104  26.748   5.653  0.00  0.00    +0.149 A 
ATOM      9  C   UNL     1     -34.947  23.944   2.601  0.00  0.00    +0.158 A 
ATOM     10  C   UNL     1     -33.856  26.157   2.102  0.00  0.00    +0.349 A 
ATOM     11  C   UNL     1     -32.385  28.489   4.152  0.00  0.00    +0.043 C 
ATOM     12  C   UNL     1     -35.130  23.057   4.839  0.00  0.00    +0.143 C 
ATOM     13  C   UNL     1     -32.617  27.413   6.776  0.00  0.00    +0.077 C 
ATOM     14  C   UNL     1     -35.592  22.834   2.067  0.00  0.00    +0.074 C 
ATOM     15  C   UNL     1     -31.886  29.178   5.266  0.00  0.00    +0.168 C 
ATOM     16  C   UNL     1     -32.002  28.648   6.553  0.00  0.00    +0.171 C 
ATOM     17  C   UNL     1     -35.780  21.936   4.312  0.00  0.00    +0.073 C 
ATOM     18  C   UNL     1     -36.009  21.825   2.935  0.00  0.00    +0.140 C 
ENDROOT
BRANCH  12  19
ATOM     19  O   UNL     1     -34.929  23.119   6.184  0.00  0.00    -0.505 OA
ATOM     20  H   UNL     1     -34.530  22.400   6.632  0.00  0.00    +0.292 HD
ENDBRANCH  12  19
BRANCH  15  21
ATOM     21  O   UNL     1     -31.280  30.386   5.075  0.00  0.00    -0.503 OA
ATOM     22  H   UNL     1     -30.351  30.462   5.159  0.00  0.00    +0.292 HD
ENDBRANCH  15  21
BRANCH  16  23
ATOM     23  O   UNL     1     -31.508  29.339   7.623  0.00  0.00    -0.503 OA
ATOM     24  H   UNL     1     -31.305  28.887   8.418  0.00  0.00    +0.292 HD
ENDBRANCH  16  23
BRANCH  18  25
ATOM     25  O   UNL     1     -36.643  20.726   2.441  0.00  0.00    -0.505 OA
ATOM     26  H   UNL     1     -37.039  20.755   1.593  0.00  0.00    +0.292 HD
ENDBRANCH  18  25
TORSDOF 4
ENDMDL
MODEL 7
REMARK VINA RESULT:      -6.1      1.356      3.168
REMARK  Name = 5489605
REMARK  4 active torsions:
REMARK  status: ('A' for Active; 'I' for Inactive)
REMARK    1  A    between atoms: C_12  and  O_19
REMARK    2  A    between atoms: C_15  and  O_21
REMARK    3  A    between atoms: C_16  and  O_23
REMARK    4  A    between atoms: C_18  and  O_25
REMARK                            x       y       z     vdW  Elec       q    Type
REMARK                         _______ _______ _______ _____ _____    ______ ____
ROOT
ATOM      1  O   UNL     1     -34.490  25.974   2.638  0.00  0.00    -0.453 OA
ATOM      2  O   UNL     1     -32.570  28.272   5.416  0.00  0.00    -0.421 OA
ATOM      3  O   UNL     1     -33.156  26.693   7.000  0.00  0.00    -0.244 OA
ATOM      4  C   UNL     1     -33.842  26.316   4.777  0.00  0.00    +0.114 A 
ATOM      5  C   UNL     1     -33.836  26.792   3.491  0.00  0.00    +0.157 A 
ATOM      6  C   UNL     1     -34.561  25.095   4.734  0.00  0.00    +0.047 A 
ATOM      7  C   UNL     1     -33.219  28.011   3.054  0.00  0.00    +0.103 A 
ATOM      8  C   UNL     1     -34.938  24.929   3.399  0.00  0.00    +0.149 A 
ATOM      9  C   UNL     1     -32.579  28.745   4.064  0.00  0.00    +0.158 A 
ATOM     10  C   UNL     1     -33.188  27.059   5.832  0.00  0.00    +0.349 A 
ATOM     11  C   UNL     1     -34.939  24.109   5.662  0.00  0.00    +0.043 C 
ATOM     12  C   UNL     1     -33.214  28.492   1.748  0.00  0.00    +0.143 C 
ATOM     13  C   UNL     1     -35.670  23.842   2.925  0.00  0.00    +0.077 C 
ATOM     14  C   UNL     1     -31.936  29.948   3.796  0.00  0.00    +0.074 C 
ATOM     15  C   UNL     1     -35.676  23.005   5.213  0.00  0.00    +0.168 C 
ATOM     16  C   UNL     1     -36.033  22.876   3.868  0.00  0.00    +0.171 C 
ATOM     17  C   UNL     1     -32.569  29.701   1.468  0.00  0.00    +0.073 C 
ATOM     18  C   UNL     1     -31.935  30.425   2.485  0.00  0.00    +0.140 C 
ENDROOT
BRANCH  12  19
ATOM     19  O   UNL     1     -33.817  27.825   0.726  0.00  0.00    -0.505 OA
ATOM     20  H   UNL     1     -34.601  28.164   0.344  0.00  0.00    +0.292 HD
ENDBRANCH  12  19
BRANCH  15  21
ATOM     21  O   UNL     1     -36.043  22.047   6.113  0.00  0.00    -0.503 OA
ATOM     22  H   UNL     1     -36.949  21.905   6.301  0.00  0.00    +0.292 HD
ENDBRANCH  15  21
BRANCH  16  23
ATOM     23  O   UNL     1     -36.751  21.791   3.453  0.00  0.00    -0.503 OA
ATOM     24  H   UNL     1     -36.402  20.929   3.564  0.00  0.00    +0.292 HD
ENDBRANCH  16  23
BRANCH  18  25
ATOM     25  O   UNL     1     -31.312  31.600   2.192  0.00  0.00    -0.505 OA
ATOM     26  H   UNL     1     -31.819  32.360   1.986  0.00  0.00    +0.292 HD
ENDBRANCH  18  25
TORSDOF 4
ENDMDL
MODEL 8
REMARK VINA RESULT:      -6.1      3.587      5.282
REMARK  Name = 5489605
REMARK  4 active torsions:
REMARK  status: ('A' for Active; 'I' for Inactive)
REMARK    1  A    between atoms: C_12  and  O_19
REMARK    2  A    between atoms: C_15  and  O_21
REMARK    3  A    between atoms: C_16  and  O_23
REMARK    4  A    between atoms: C_18  and  O_25
REMARK                            x       y       z     vdW  Elec       q    Type
REMARK                         _______ _______ _______ _____ _____    ______ ____
ROOT
ATOM      1  O   UNL     1     -37.946  22.869   3.048  0.00  0.00    -0.453 OA
ATOM      2  O   UNL     1     -36.692  26.730   2.592  0.00  0.00    -0.421 OA
ATOM      3  O   UNL     1     -38.108  26.883   0.771  0.00  0.00    -0.244 OA
ATOM      4  C   UNL     1     -38.033  24.830   1.926  0.00  0.00    +0.114 A 
ATOM      5  C   UNL     1     -37.478  24.134   2.968  0.00  0.00    +0.157 A 
ATOM      6  C   UNL     1     -38.928  23.931   1.293  0.00  0.00    +0.047 A 
ATOM      7  C   UNL     1     -36.509  24.646   3.894  0.00  0.00    +0.103 A 
ATOM      8  C   UNL     1     -38.838  22.740   2.019  0.00  0.00    +0.149 A 
ATOM      9  C   UNL     1     -36.128  25.979   3.673  0.00  0.00    +0.158 A 
ATOM     10  C   UNL     1     -37.653  26.205   1.683  0.00  0.00    +0.349 A 
ATOM     11  C   UNL     1     -39.803  23.978   0.193  0.00  0.00    +0.043 C 
ATOM     12  C   UNL     1     -35.947  23.938   4.951  0.00  0.00    +0.143 C 
ATOM     13  C   UNL     1     -39.565  21.589   1.720  0.00  0.00    +0.077 C 
ATOM     14  C   UNL     1     -35.198  26.615   4.487  0.00  0.00    +0.074 C 
ATOM     15  C   UNL     1     -40.546  22.835  -0.129  0.00  0.00    +0.168 C 
ATOM     16  C   UNL     1     -40.427  21.663   0.623  0.00  0.00    +0.171 C 
ATOM     17  C   UNL     1     -35.010  24.569   5.776  0.00  0.00    +0.073 C 
ATOM     18  C   UNL     1     -34.638  25.899   5.545  0.00  0.00    +0.140 C 
ENDROOT
BRANCH  12  19
ATOM     19  O   UNL     1     -36.277  22.643   5.215  0.00  0.00    -0.505 OA
ATOM     20  H   UNL     1     -36.572  22.401   6.070  0.00  0.00    +0.292 HD
ENDBRANCH  12  19
BRANCH  15  21
ATOM     21  O   UNL     1     -41.395  22.880  -1.196  0.00  0.00    -0.503 OA
ATOM     22  H   UNL     1     -42.321  22.845  -1.059  0.00  0.00    +0.292 HD
ENDBRANCH  15  21
BRANCH  16  23
ATOM     23  O   UNL     1     -41.162  20.561   0.290  0.00  0.00    -0.503 OA
ATOM     24  H   UNL     1     -42.097  20.587   0.345  0.00  0.00    +0.292 HD
ENDBRANCH  16  23
BRANCH  18  25
ATOM     25  O   UNL     1     -33.725  26.497   6.360  0.00  0.00    -0.505 OA
ATOM     26  H   UNL     1     -33.953  26.708   7.244  0.00  0.00    +0.292 HD
ENDBRANCH  18  25
TORSDOF 4
ENDMDL
MODEL 9
REMARK VINA RESULT:      -6.0      2.157      6.859
REMARK  Name = 5489605
REMARK  4 active torsions:
REMARK  status: ('A' for Active; 'I' for Inactive)
REMARK    1  A    between atoms: C_12  and  O_19
REMARK    2  A    between atoms: C_15  and  O_21
REMARK    3  A    between atoms: C_16  and  O_23
REMARK    4  A    between atoms: C_18  and  O_25
REMARK                            x       y       z     vdW  Elec       q    Type
REMARK                         _______ _______ _______ _____ _____    ______ ____
ROOT
ATOM      1  O   UNL     1     -36.250  26.310   2.218  0.00  0.00    -0.453 OA
ATOM      2  O   UNL     1     -33.805  25.430   5.369  0.00  0.00    -0.421 OA
ATOM      3  O   UNL     1     -33.061  27.617   5.291  0.00  0.00    -0.244 OA
ATOM      4  C   UNL     1     -34.689  26.961   3.719  0.00  0.00    +0.114 A 
ATOM      5  C   UNL     1     -35.474  25.935   3.258  0.00  0.00    +0.157 A 
ATOM      6  C   UNL     1     -34.994  28.078   2.901  0.00  0.00    +0.047 A 
ATOM      7  C   UNL     1     -35.503  24.602   3.788  0.00  0.00    +0.103 A 
ATOM      8  C   UNL     1     -35.958  27.628   1.995  0.00  0.00    +0.149 A 
ATOM      9  C   UNL     1     -34.637  24.376   4.868  0.00  0.00    +0.158 A 
ATOM     10  C   UNL     1     -33.790  26.747   4.831  0.00  0.00    +0.349 A 
ATOM     11  C   UNL     1     -34.572  29.417   2.816  0.00  0.00    +0.043 C 
ATOM     12  C   UNL     1     -36.301  23.563   3.319  0.00  0.00    +0.143 C 
ATOM     13  C   UNL     1     -36.531  28.425   1.007  0.00  0.00    +0.077 C 
ATOM     14  C   UNL     1     -34.552  23.135   5.488  0.00  0.00    +0.074 C 
ATOM     15  C   UNL     1     -35.133  30.241   1.831  0.00  0.00    +0.168 C 
ATOM     16  C   UNL     1     -36.094  29.752   0.944  0.00  0.00    +0.171 C 
ATOM     17  C   UNL     1     -36.223  22.310   3.936  0.00  0.00    +0.073 C 
ATOM     18  C   UNL     1     -35.354  22.097   5.014  0.00  0.00    +0.140 C 
ENDROOT
BRANCH  12  19
ATOM     19  O   UNL     1     -37.160  23.721   2.275  0.00  0.00    -0.505 OA
ATOM     20  H   UNL     1     -36.843  24.028   1.449  0.00  0.00    +0.292 HD
ENDBRANCH  12  19
BRANCH  15  21
ATOM     21  O   UNL     1     -34.723  31.540   1.749  0.00  0.00    -0.503 OA
ATOM     22  H   UNL     1     -35.098  32.109   1.105  0.00  0.00    +0.292 HD
ENDBRANCH  15  21
BRANCH  16  23
ATOM     23  O   UNL     1     -36.626  30.574  -0.008  0.00  0.00    -0.503 OA
ATOM     24  H   UNL     1     -37.434  31.020   0.157  0.00  0.00    +0.292 HD
ENDBRANCH  16  23
BRANCH  18  25
ATOM     25  O   UNL     1     -35.294  20.870   5.601  0.00  0.00    -0.505 OA
ATOM     26  H   UNL     1     -35.216  20.101   5.073  0.00  0.00    +0.292 HD
ENDBRANCH  18  25
TORSDOF 4
ENDMDL
