MODEL 1
REMARK VINA RESULT:      -6.2      0.000      0.000
REMARK  Name = 192785
REMARK  8 active torsions:
REMARK  status: ('A' for Active; 'I' for Inactive)
REMARK    1  A    between atoms: C_2  and  O_17
REMARK    2  A    between atoms: C_3  and  O_19
REMARK    3  A    between atoms: C_4  and  C_21
REMARK    4  A    between atoms: C_5  and  N_7
REMARK    5  A    between atoms: C_21  and  O_22
REMARK    6  A    between atoms: O_22  and  P_23
REMARK    7  A    between atoms: P_23  and  O_25
REMARK    8  A    between atoms: P_23  and  O_27
REMARK                            x       y       z     vdW  Elec       q    Type
REMARK                         _______ _______ _______ _____ _____    ______ ____
ROOT
ATOM      1  O   UNL     1     -36.870  24.176   4.330  0.00  0.00    -0.332 OA
ATOM      2  C   UNL     1     -35.554  26.141   4.214  0.00  0.00    +0.171 C 
ATOM      3  C   UNL     1     -34.711  24.967   3.761  0.00  0.00    +0.188 C 
ATOM      4  C   UNL     1     -36.967  25.593   4.071  0.00  0.00    +0.176 C 
ATOM      5  C   UNL     1     -35.487  23.788   4.321  0.00  0.00    +0.236 C 
ENDROOT
BRANCH   5   7
ATOM      6  O   UNL     1     -35.293  21.163   5.322  0.00  0.00    -0.193 OA
ATOM      7  N   UNL     1     -35.339  22.605   3.522  0.00  0.00    -0.178 N 
ATOM      8  N   UNL     1     -35.108  20.222   3.267  0.00  0.00    -0.306 NA
ATOM      9  N   UNL     1     -34.916  19.225   1.191  0.00  0.00    -0.332 N 
ATOM     10  C   UNL     1     -35.284  22.737   2.143  0.00  0.00    +0.079 C 
ATOM     11  C   UNL     1     -35.249  21.316   4.100  0.00  0.00    +0.275 C 
ATOM     12  C   UNL     1     -35.148  21.700   1.310  0.00  0.00    +0.038 C 
ATOM     13  C   UNL     1     -35.057  20.356   1.965  0.00  0.00    +0.189 C 
ATOM     14  C   UNL     1     -35.087  21.829  -0.175  0.00  0.00    +0.037 C 
ATOM     15  H   UNL     1     -34.856  18.341   1.619  0.00  0.00    +0.145 HD
ATOM     16  H   UNL     1     -34.876  19.302   0.210  0.00  0.00    +0.145 HD
ENDBRANCH   5   7
BRANCH   2  17
ATOM     17  O   UNL     1     -35.324  26.411   5.596  0.00  0.00    -0.379 OA
ATOM     18  H   UNL     1     -35.715  25.705   6.134  0.00  0.00    +0.211 HD
ENDBRANCH   2  17
BRANCH   3  19
ATOM     19  O   UNL     1     -33.390  25.033   4.258  0.00  0.00    -0.378 OA
ATOM     20  H   UNL     1     -33.375  24.729   5.178  0.00  0.00    +0.211 HD
ENDBRANCH   3  19
BRANCH   4  21
ATOM     21  C   UNL     1     -37.546  25.780   2.674  0.00  0.00    +0.186 C 
BRANCH  21  22
ATOM     22  O   UNL     1     -38.704  26.592   2.769  0.00  0.00    -0.271 OA
BRANCH  22  23
ATOM     23  P   UNL     1     -40.148  25.869   2.884  0.00  0.00    +0.473 P 
ATOM     24  O   UNL     1     -40.736  25.417   1.579  0.00  0.00    -0.227 OA
BRANCH  23  25
ATOM     25  O   UNL     1     -41.043  26.928   3.717  0.00  0.00    -0.303 OA
ATOM     26  H   UNL     1     -40.575  27.776   3.769  0.00  0.00    +0.222 HD
ENDBRANCH  23  25
BRANCH  23  27
ATOM     27  O   UNL     1     -39.876  24.689   3.956  0.00  0.00    -0.303 OA
ATOM     28  H   UNL     1     -39.591  25.076   4.799  0.00  0.00    +0.222 HD
ENDBRANCH  23  27
ENDBRANCH  22  23
ENDBRANCH  21  22
ENDBRANCH   4  21
TORSDOF 8
ENDMDL
MODEL 2
REMARK VINA RESULT:      -6.0      3.277      5.220
REMARK  Name = 192785
REMARK  8 active torsions:
REMARK  status: ('A' for Active; 'I' for Inactive)
REMARK    1  A    between atoms: C_2  and  O_17
REMARK    2  A    between atoms: C_3  and  O_19
REMARK    3  A    between atoms: C_4  and  C_21
REMARK    4  A    between atoms: C_5  and  N_7
REMARK    5  A    between atoms: C_21  and  O_22
REMARK    6  A    between atoms: O_22  and  P_23
REMARK    7  A    between atoms: P_23  and  O_25
REMARK    8  A    between atoms: P_23  and  O_27
REMARK                            x       y       z     vdW  Elec       q    Type
REMARK                         _______ _______ _______ _____ _____    ______ ____
ROOT
ATOM      1  O   UNL     1     -36.228  24.959   3.873  0.00  0.00    -0.332 OA
ATOM      2  C   UNL     1     -38.027  25.733   2.541  0.00  0.00    +0.171 C 
ATOM      3  C   UNL     1     -36.774  26.488   2.147  0.00  0.00    +0.188 C 
ATOM      4  C   UNL     1     -37.454  24.515   3.253  0.00  0.00    +0.176 C 
ATOM      5  C   UNL     1     -35.872  26.247   3.346  0.00  0.00    +0.236 C 
ENDROOT
BRANCH   5   7
ATOM      6  O   UNL     1     -33.805  27.430   4.848  0.00  0.00    -0.193 OA
ATOM      7  N   UNL     1     -34.481  26.238   2.993  0.00  0.00    -0.178 N 
ATOM      8  N   UNL     1     -32.177  26.808   3.397  0.00  0.00    -0.306 NA
ATOM      9  N   UNL     1     -30.490  26.193   1.944  0.00  0.00    -0.332 N 
ATOM     10  C   UNL     1     -34.097  25.604   1.821  0.00  0.00    +0.079 C 
ATOM     11  C   UNL     1     -33.498  26.857   3.801  0.00  0.00    +0.275 C 
ATOM     12  C   UNL     1     -32.829  25.539   1.402  0.00  0.00    +0.038 C 
ATOM     13  C   UNL     1     -31.823  26.206   2.290  0.00  0.00    +0.189 C 
ATOM     14  C   UNL     1     -32.402  24.860   0.144  0.00  0.00    +0.037 C 
ATOM     15  H   UNL     1     -29.826  26.630   2.525  0.00  0.00    +0.145 HD
ATOM     16  H   UNL     1     -30.200  25.746   1.116  0.00  0.00    +0.145 HD
ENDBRANCH   5   7
BRANCH   2  17
ATOM     17  O   UNL     1     -38.780  26.485   3.491  0.00  0.00    -0.379 OA
ATOM     18  H   UNL     1     -38.273  27.265   3.763  0.00  0.00    +0.211 HD
ENDBRANCH   2  17
BRANCH   3  19
ATOM     19  O   UNL     1     -37.024  27.860   1.923  0.00  0.00    -0.378 OA
ATOM     20  H   UNL     1     -36.219  28.284   1.587  0.00  0.00    +0.211 HD
ENDBRANCH   3  19
BRANCH   4  21
ATOM     21  C   UNL     1     -37.120  23.367   2.309  0.00  0.00    +0.186 C 
BRANCH  21  22
ATOM     22  O   UNL     1     -37.122  22.158   3.047  0.00  0.00    -0.271 OA
BRANCH  22  23
ATOM     23  P   UNL     1     -35.930  21.093   2.789  0.00  0.00    +0.473 P 
ATOM     24  O   UNL     1     -34.906  21.521   1.780  0.00  0.00    -0.227 OA
BRANCH  23  25
ATOM     25  O   UNL     1     -36.710  19.719   2.445  0.00  0.00    -0.303 OA
ATOM     26  H   UNL     1     -36.371  19.005   3.007  0.00  0.00    +0.222 HD
ENDBRANCH  23  25
BRANCH  23  27
ATOM     27  O   UNL     1     -35.354  20.829   4.277  0.00  0.00    -0.303 OA
ATOM     28  H   UNL     1     -35.396  21.651   4.792  0.00  0.00    +0.222 HD
ENDBRANCH  23  27
ENDBRANCH  22  23
ENDBRANCH  21  22
ENDBRANCH   4  21
TORSDOF 8
ENDMDL
MODEL 3
REMARK VINA RESULT:      -5.9      3.066      5.481
REMARK  Name = 192785
REMARK  8 active torsions:
REMARK  status: ('A' for Active; 'I' for Inactive)
REMARK    1  A    between atoms: C_2  and  O_17
REMARK    2  A    between atoms: C_3  and  O_19
REMARK    3  A    between atoms: C_4  and  C_21
REMARK    4  A    between atoms: C_5  and  N_7
REMARK    5  A    between atoms: C_21  and  O_22
REMARK    6  A    between atoms: O_22  and  P_23
REMARK    7  A    between atoms: P_23  and  O_25
REMARK    8  A    between atoms: P_23  and  O_27
REMARK                            x       y       z     vdW  Elec       q    Type
REMARK                         _______ _______ _______ _____ _____    ______ ____
ROOT
ATOM      1  O   UNL     1     -37.020  23.594   3.770  0.00  0.00    -0.332 OA
ATOM      2  C   UNL     1     -38.909  24.141   2.451  0.00  0.00    +0.171 C 
ATOM      3  C   UNL     1     -38.042  25.376   2.588  0.00  0.00    +0.188 C 
ATOM      4  C   UNL     1     -37.936  23.027   2.810  0.00  0.00    +0.176 C 
ATOM      5  C   UNL     1     -37.179  25.022   3.788  0.00  0.00    +0.236 C 
ENDROOT
BRANCH   5   7
ATOM      6  O   UNL     1     -35.883  26.281   5.948  0.00  0.00    -0.193 OA
ATOM      7  N   UNL     1     -35.885  25.637   3.733  0.00  0.00    -0.178 N 
ATOM      8  N   UNL     1     -34.045  26.825   4.736  0.00  0.00    -0.306 NA
ATOM      9  N   UNL     1     -32.156  27.397   3.535  0.00  0.00    -0.332 N 
ATOM     10  C   UNL     1     -35.194  25.627   2.531  0.00  0.00    +0.079 C 
ATOM     11  C   UNL     1     -35.297  26.252   4.864  0.00  0.00    +0.275 C 
ATOM     12  C   UNL     1     -33.984  26.171   2.373  0.00  0.00    +0.038 C 
ATOM     13  C   UNL     1     -33.401  26.809   3.596  0.00  0.00    +0.189 C 
ATOM     14  C   UNL     1     -33.231  26.166   1.084  0.00  0.00    +0.037 C 
ATOM     15  H   UNL     1     -31.771  27.817   4.337  0.00  0.00    +0.145 HD
ATOM     16  H   UNL     1     -31.653  27.397   2.689  0.00  0.00    +0.145 HD
ENDBRANCH   5   7
BRANCH   2  17
ATOM     17  O   UNL     1     -39.946  24.153   3.431  0.00  0.00    -0.379 OA
ATOM     18  H   UNL     1     -39.555  24.228   4.316  0.00  0.00    +0.211 HD
ENDBRANCH   2  17
BRANCH   3  19
ATOM     19  O   UNL     1     -38.806  26.546   2.794  0.00  0.00    -0.378 OA
ATOM     20  H   UNL     1     -38.719  27.128   2.023  0.00  0.00    +0.211 HD
ENDBRANCH   3  19
BRANCH   4  21
ATOM     21  C   UNL     1     -37.126  22.528   1.619  0.00  0.00    +0.186 C 
BRANCH  21  22
ATOM     22  O   UNL     1     -35.829  22.177   2.069  0.00  0.00    -0.271 OA
BRANCH  22  23
ATOM     23  P   UNL     1     -35.563  20.653   2.547  0.00  0.00    +0.473 P 
ATOM     24  O   UNL     1     -34.376  19.988   1.915  0.00  0.00    -0.227 OA
BRANCH  23  25
ATOM     25  O   UNL     1     -36.983  19.920   2.298  0.00  0.00    -0.303 OA
ATOM     26  H   UNL     1     -37.038  19.627   1.376  0.00  0.00    +0.222 HD
ENDBRANCH  23  25
BRANCH  23  27
ATOM     27  O   UNL     1     -35.493  20.788   4.158  0.00  0.00    -0.303 OA
ATOM     28  H   UNL     1     -34.883  21.503   4.397  0.00  0.00    +0.222 HD
ENDBRANCH  23  27
ENDBRANCH  22  23
ENDBRANCH  21  22
ENDBRANCH   4  21
TORSDOF 8
ENDMDL
MODEL 4
REMARK VINA RESULT:      -5.9      2.561      4.206
REMARK  Name = 192785
REMARK  8 active torsions:
REMARK  status: ('A' for Active; 'I' for Inactive)
REMARK    1  A    between atoms: C_2  and  O_17
REMARK    2  A    between atoms: C_3  and  O_19
REMARK    3  A    between atoms: C_4  and  C_21
REMARK    4  A    between atoms: C_5  and  N_7
REMARK    5  A    between atoms: C_21  and  O_22
REMARK    6  A    between atoms: O_22  and  P_23
REMARK    7  A    between atoms: P_23  and  O_25
REMARK    8  A    between atoms: P_23  and  O_27
REMARK                            x       y       z     vdW  Elec       q    Type
REMARK                         _______ _______ _______ _____ _____    ______ ____
ROOT
ATOM      1  O   UNL     1     -36.726  24.103   4.570  0.00  0.00    -0.332 OA
ATOM      2  C   UNL     1     -35.219  22.547   5.527  0.00  0.00    +0.171 C 
ATOM      3  C   UNL     1     -35.488  22.140   4.092  0.00  0.00    +0.188 C 
ATOM      4  C   UNL     1     -35.653  24.006   5.530  0.00  0.00    +0.176 C 
ATOM      5  C   UNL     1     -36.767  22.901   3.785  0.00  0.00    +0.236 C 
ENDROOT
BRANCH   5   7
ATOM      6  O   UNL     1     -39.180  23.319   2.396  0.00  0.00    -0.193 OA
ATOM      7  N   UNL     1     -36.875  23.252   2.398  0.00  0.00    -0.178 N 
ATOM      8  N   UNL     1     -38.154  23.784   0.428  0.00  0.00    -0.306 NA
ATOM      9  N   UNL     1     -37.146  24.263  -1.595  0.00  0.00    -0.332 N 
ATOM     10  C   UNL     1     -35.713  23.403   1.658  0.00  0.00    +0.079 C 
ATOM     11  C   UNL     1     -38.128  23.447   1.768  0.00  0.00    +0.275 C 
ATOM     12  C   UNL     1     -35.703  23.728   0.361  0.00  0.00    +0.038 C 
ATOM     13  C   UNL     1     -37.051  23.925  -0.263  0.00  0.00    +0.189 C 
ATOM     14  C   UNL     1     -34.459  23.893  -0.447  0.00  0.00    +0.037 C 
ATOM     15  H   UNL     1     -38.030  24.393  -2.007  0.00  0.00    +0.145 HD
ATOM     16  H   UNL     1     -36.330  24.375  -2.134  0.00  0.00    +0.145 HD
ENDBRANCH   5   7
BRANCH   2  17
ATOM     17  O   UNL     1     -36.076  21.830   6.414  0.00  0.00    -0.379 OA
ATOM     18  H   UNL     1     -36.873  21.549   5.938  0.00  0.00    +0.211 HD
ENDBRANCH   2  17
BRANCH   3  19
ATOM     19  O   UNL     1     -35.641  20.742   3.952  0.00  0.00    -0.378 OA
ATOM     20  H   UNL     1     -35.107  20.290   4.624  0.00  0.00    +0.211 HD
ENDBRANCH   3  19
BRANCH   4  21
ATOM     21  C   UNL     1     -34.547  24.964   5.104  0.00  0.00    +0.186 C 
BRANCH  21  22
ATOM     22  O   UNL     1     -35.108  26.252   4.923  0.00  0.00    -0.271 OA
BRANCH  22  23
ATOM     23  P   UNL     1     -35.121  26.887   3.433  0.00  0.00    +0.473 P 
ATOM     24  O   UNL     1     -34.080  26.339   2.501  0.00  0.00    -0.227 OA
BRANCH  23  25
ATOM     25  O   UNL     1     -35.047  28.481   3.694  0.00  0.00    -0.303 OA
ATOM     26  H   UNL     1     -35.734  28.737   4.330  0.00  0.00    +0.222 HD
ENDBRANCH  23  25
BRANCH  23  27
ATOM     27  O   UNL     1     -36.650  26.660   2.958  0.00  0.00    -0.303 OA
ATOM     28  H   UNL     1     -36.852  25.711   2.956  0.00  0.00    +0.222 HD
ENDBRANCH  23  27
ENDBRANCH  22  23
ENDBRANCH  21  22
ENDBRANCH   4  21
TORSDOF 8
ENDMDL
MODEL 5
REMARK VINA RESULT:      -5.8      3.347      5.403
REMARK  Name = 192785
REMARK  8 active torsions:
REMARK  status: ('A' for Active; 'I' for Inactive)
REMARK    1  A    between atoms: C_2  and  O_17
REMARK    2  A    between atoms: C_3  and  O_19
REMARK    3  A    between atoms: C_4  and  C_21
REMARK    4  A    between atoms: C_5  and  N_7
REMARK    5  A    between atoms: C_21  and  O_22
REMARK    6  A    between atoms: O_22  and  P_23
REMARK    7  A    between atoms: P_23  and  O_25
REMARK    8  A    between atoms: P_23  and  O_27
REMARK                            x       y       z     vdW  Elec       q    Type
REMARK                         _______ _______ _______ _____ _____    ______ ____
ROOT
ATOM      1  O   UNL     1     -37.035  23.258   3.757  0.00  0.00    -0.332 OA
ATOM      2  C   UNL     1     -35.513  21.625   2.966  0.00  0.00    +0.171 C 
ATOM      3  C   UNL     1     -36.741  21.611   2.079  0.00  0.00    +0.188 C 
ATOM      4  C   UNL     1     -35.623  22.986   3.639  0.00  0.00    +0.176 C 
ATOM      5  C   UNL     1     -37.765  22.321   2.949  0.00  0.00    +0.236 C 
ENDROOT
BRANCH   5   7
ATOM      6  O   UNL     1     -40.140  21.218   1.915  0.00  0.00    -0.193 OA
ATOM      7  N   UNL     1     -38.742  23.033   2.175  0.00  0.00    -0.178 N 
ATOM      8  N   UNL     1     -40.812  23.158   0.951  0.00  0.00    -0.306 NA
ATOM      9  N   UNL     1     -41.529  25.114  -0.046  0.00  0.00    -0.332 N 
ATOM     10  C   UNL     1     -38.522  24.374   1.899  0.00  0.00    +0.079 C 
ATOM     11  C   UNL     1     -39.915  22.408   1.689  0.00  0.00    +0.275 C 
ATOM     12  C   UNL     1     -39.368  25.126   1.188  0.00  0.00    +0.038 C 
ATOM     13  C   UNL     1     -40.596  24.424   0.695  0.00  0.00    +0.189 C 
ATOM     14  C   UNL     1     -39.143  26.570   0.884  0.00  0.00    +0.037 C 
ATOM     15  H   UNL     1     -42.337  24.655  -0.371  0.00  0.00    +0.145 HD
ATOM     16  H   UNL     1     -41.389  26.067  -0.250  0.00  0.00    +0.145 HD
ENDBRANCH   5   7
BRANCH   2  17
ATOM     17  O   UNL     1     -35.621  20.624   3.976  0.00  0.00    -0.379 OA
ATOM     18  H   UNL     1     -35.579  19.745   3.568  0.00  0.00    +0.211 HD
ENDBRANCH   2  17
BRANCH   3  19
ATOM     19  O   UNL     1     -37.138  20.300   1.734  0.00  0.00    -0.378 OA
ATOM     20  H   UNL     1     -36.952  20.143   0.795  0.00  0.00    +0.211 HD
ENDBRANCH   3  19
BRANCH   4  21
ATOM     21  C   UNL     1     -34.989  24.111   2.830  0.00  0.00    +0.186 C 
BRANCH  21  22
ATOM     22  O   UNL     1     -35.595  25.336   3.205  0.00  0.00    -0.271 OA
BRANCH  22  23
ATOM     23  P   UNL     1     -35.083  26.070   4.554  0.00  0.00    +0.473 P 
ATOM     24  O   UNL     1     -33.747  25.608   5.059  0.00  0.00    -0.227 OA
BRANCH  23  25
ATOM     25  O   UNL     1     -36.315  25.884   5.585  0.00  0.00    -0.303 OA
ATOM     26  H   UNL     1     -37.118  26.270   5.201  0.00  0.00    +0.222 HD
ENDBRANCH  23  25
BRANCH  23  27
ATOM     27  O   UNL     1     -35.159  27.638   4.163  0.00  0.00    -0.303 OA
ATOM     28  H   UNL     1     -35.511  28.142   4.914  0.00  0.00    +0.222 HD
ENDBRANCH  23  27
ENDBRANCH  22  23
ENDBRANCH  21  22
ENDBRANCH   4  21
TORSDOF 8
ENDMDL
MODEL 6
REMARK VINA RESULT:      -5.8      4.175      7.190
REMARK  Name = 192785
REMARK  8 active torsions:
REMARK  status: ('A' for Active; 'I' for Inactive)
REMARK    1  A    between atoms: C_2  and  O_17
REMARK    2  A    between atoms: C_3  and  O_19
REMARK    3  A    between atoms: C_4  and  C_21
REMARK    4  A    between atoms: C_5  and  N_7
REMARK    5  A    between atoms: C_21  and  O_22
REMARK    6  A    between atoms: O_22  and  P_23
REMARK    7  A    between atoms: P_23  and  O_25
REMARK    8  A    between atoms: P_23  and  O_27
REMARK                            x       y       z     vdW  Elec       q    Type
REMARK                         _______ _______ _______ _____ _____    ______ ____
ROOT
ATOM      1  O   UNL     1     -36.697  20.460   2.540  0.00  0.00    -0.332 OA
ATOM      2  C   UNL     1     -36.919  20.296   0.187  0.00  0.00    +0.171 C 
ATOM      3  C   UNL     1     -37.369  21.676   0.620  0.00  0.00    +0.188 C 
ATOM      4  C   UNL     1     -36.095  19.840   1.384  0.00  0.00    +0.176 C 
ATOM      5  C   UNL     1     -37.617  21.475   2.105  0.00  0.00    +0.236 C 
ENDROOT
BRANCH   5   7
ATOM      6  O   UNL     1     -39.465  23.574   2.430  0.00  0.00    -0.193 OA
ATOM      7  N   UNL     1     -37.389  22.670   2.866  0.00  0.00    -0.178 N 
ATOM      8  N   UNL     1     -38.078  24.807   3.734  0.00  0.00    -0.306 NA
ATOM      9  N   UNL     1     -36.695  26.093   5.064  0.00  0.00    -0.332 N 
ATOM     10  C   UNL     1     -36.167  22.829   3.501  0.00  0.00    +0.079 C 
ATOM     11  C   UNL     1     -38.369  23.683   2.984  0.00  0.00    +0.275 C 
ATOM     12  C   UNL     1     -35.854  23.903   4.233  0.00  0.00    +0.038 C 
ATOM     13  C   UNL     1     -36.921  24.949   4.331  0.00  0.00    +0.189 C 
ATOM     14  C   UNL     1     -34.542  24.087   4.922  0.00  0.00    +0.037 C 
ATOM     15  H   UNL     1     -37.394  26.783   5.130  0.00  0.00    +0.145 HD
ATOM     16  H   UNL     1     -35.833  26.222   5.522  0.00  0.00    +0.145 HD
ENDBRANCH   5   7
BRANCH   2  17
ATOM     17  O   UNL     1     -38.042  19.423   0.068  0.00  0.00    -0.379 OA
ATOM     18  H   UNL     1     -38.476  19.568  -0.787  0.00  0.00    +0.211 HD
ENDBRANCH   2  17
BRANCH   3  19
ATOM     19  O   UNL     1     -38.525  22.103  -0.071  0.00  0.00    -0.378 OA
ATOM     20  H   UNL     1     -39.210  21.420  -0.007  0.00  0.00    +0.211 HD
ENDBRANCH   3  19
BRANCH   4  21
ATOM     21  C   UNL     1     -34.638  20.282   1.314  0.00  0.00    +0.186 C 
BRANCH  21  22
ATOM     22  O   UNL     1     -33.836  19.299   1.945  0.00  0.00    -0.271 OA
BRANCH  22  23
ATOM     23  P   UNL     1     -33.005  18.267   1.014  0.00  0.00    +0.473 P 
ATOM     24  O   UNL     1     -31.752  17.722   1.635  0.00  0.00    -0.227 OA
BRANCH  23  25
ATOM     25  O   UNL     1     -32.796  19.080  -0.369  0.00  0.00    -0.303 OA
ATOM     26  H   UNL     1     -31.996  19.625  -0.305  0.00  0.00    +0.222 HD
ENDBRANCH  23  25
BRANCH  23  27
ATOM     27  O   UNL     1     -34.114  17.156   0.626  0.00  0.00    -0.303 OA
ATOM     28  H   UNL     1     -34.110  16.448   1.291  0.00  0.00    +0.222 HD
ENDBRANCH  23  27
ENDBRANCH  22  23
ENDBRANCH  21  22
ENDBRANCH   4  21
TORSDOF 8
ENDMDL
MODEL 7
REMARK VINA RESULT:      -5.8      3.604      5.639
REMARK  Name = 192785
REMARK  8 active torsions:
REMARK  status: ('A' for Active; 'I' for Inactive)
REMARK    1  A    between atoms: C_2  and  O_17
REMARK    2  A    between atoms: C_3  and  O_19
REMARK    3  A    between atoms: C_4  and  C_21
REMARK    4  A    between atoms: C_5  and  N_7
REMARK    5  A    between atoms: C_21  and  O_22
REMARK    6  A    between atoms: O_22  and  P_23
REMARK    7  A    between atoms: P_23  and  O_25
REMARK    8  A    between atoms: P_23  and  O_27
REMARK                            x       y       z     vdW  Elec       q    Type
REMARK                         _______ _______ _______ _____ _____    ______ ____
ROOT
ATOM      1  O   UNL     1     -35.341  24.401   2.995  0.00  0.00    -0.332 OA
ATOM      2  C   UNL     1     -35.284  24.540   5.358  0.00  0.00    +0.171 C 
ATOM      3  C   UNL     1     -36.395  25.435   4.848  0.00  0.00    +0.188 C 
ATOM      4  C   UNL     1     -35.048  23.617   4.171  0.00  0.00    +0.176 C 
ATOM      5  C   UNL     1     -36.013  25.608   3.388  0.00  0.00    +0.236 C 
ENDROOT
BRANCH   5   7
ATOM      6  O   UNL     1     -36.468  27.862   1.762  0.00  0.00    -0.193 OA
ATOM      7  N   UNL     1     -37.156  25.803   2.542  0.00  0.00    -0.178 N 
ATOM      8  N   UNL     1     -38.442  27.085   0.960  0.00  0.00    -0.306 NA
ATOM      9  N   UNL     1     -40.457  26.328   0.121  0.00  0.00    -0.332 N 
ATOM     10  C   UNL     1     -38.131  24.818   2.505  0.00  0.00    +0.079 C 
ATOM     11  C   UNL     1     -37.314  26.966   1.751  0.00  0.00    +0.275 C 
ATOM     12  C   UNL     1     -39.232  24.902   1.752  0.00  0.00    +0.038 C 
ATOM     13  C   UNL     1     -39.357  26.149   0.931  0.00  0.00    +0.189 C 
ATOM     14  C   UNL     1     -40.289  23.849   1.703  0.00  0.00    +0.037 C 
ATOM     15  H   UNL     1     -40.542  27.147  -0.419  0.00  0.00    +0.145 HD
ATOM     16  H   UNL     1     -41.158  25.638   0.082  0.00  0.00    +0.145 HD
ENDBRANCH   5   7
BRANCH   2  17
ATOM     17  O   UNL     1     -34.094  25.300   5.569  0.00  0.00    -0.379 OA
ATOM     18  H   UNL     1     -33.730  25.576   4.714  0.00  0.00    +0.211 HD
ENDBRANCH   2  17
BRANCH   3  19
ATOM     19  O   UNL     1     -36.455  26.663   5.544  0.00  0.00    -0.378 OA
ATOM     20  H   UNL     1     -35.720  27.230   5.262  0.00  0.00    +0.211 HD
ENDBRANCH   3  19
BRANCH   4  21
ATOM     21  C   UNL     1     -35.960  22.397   4.167  0.00  0.00    +0.186 C 
BRANCH  21  22
ATOM     22  O   UNL     1     -35.205  21.268   3.763  0.00  0.00    -0.271 OA
BRANCH  22  23
ATOM     23  P   UNL     1     -35.518  20.605   2.320  0.00  0.00    +0.473 P 
ATOM     24  O   UNL     1     -34.385  19.825   1.721  0.00  0.00    -0.227 OA
BRANCH  23  25
ATOM     25  O   UNL     1     -36.049  21.849   1.433  0.00  0.00    -0.303 OA
ATOM     26  H   UNL     1     -35.346  22.139   0.831  0.00  0.00    +0.222 HD
ENDBRANCH  23  25
BRANCH  23  27
ATOM     27  O   UNL     1     -36.863  19.749   2.600  0.00  0.00    -0.303 OA
ATOM     28  H   UNL     1     -37.035  19.161   1.847  0.00  0.00    +0.222 HD
ENDBRANCH  23  27
ENDBRANCH  22  23
ENDBRANCH  21  22
ENDBRANCH   4  21
TORSDOF 8
ENDMDL
MODEL 8
REMARK VINA RESULT:      -5.7      2.680      4.409
REMARK  Name = 192785
REMARK  8 active torsions:
REMARK  status: ('A' for Active; 'I' for Inactive)
REMARK    1  A    between atoms: C_2  and  O_17
REMARK    2  A    between atoms: C_3  and  O_19
REMARK    3  A    between atoms: C_4  and  C_21
REMARK    4  A    between atoms: C_5  and  N_7
REMARK    5  A    between atoms: C_21  and  O_22
REMARK    6  A    between atoms: O_22  and  P_23
REMARK    7  A    between atoms: P_23  and  O_25
REMARK    8  A    between atoms: P_23  and  O_27
REMARK                            x       y       z     vdW  Elec       q    Type
REMARK                         _______ _______ _______ _____ _____    ______ ____
ROOT
ATOM      1  O   UNL     1     -36.394  24.795   2.888  0.00  0.00    -0.332 OA
ATOM      2  C   UNL     1     -35.259  25.099   4.945  0.00  0.00    +0.171 C 
ATOM      3  C   UNL     1     -35.626  23.635   4.807  0.00  0.00    +0.188 C 
ATOM      4  C   UNL     1     -35.359  25.589   3.507  0.00  0.00    +0.176 C 
ATOM      5  C   UNL     1     -36.707  23.682   3.740  0.00  0.00    +0.236 C 
ENDROOT
BRANCH   5   7
ATOM      6  O   UNL     1     -38.983  22.685   2.417  0.00  0.00    -0.193 OA
ATOM      7  N   UNL     1     -36.748  22.485   2.949  0.00  0.00    -0.178 N 
ATOM      8  N   UNL     1     -37.898  20.885   1.565  0.00  0.00    -0.306 NA
ATOM      9  N   UNL     1     -36.828  19.039   0.680  0.00  0.00    -0.332 N 
ATOM     10  C   UNL     1     -35.588  21.740   2.810  0.00  0.00    +0.079 C 
ATOM     11  C   UNL     1     -37.934  22.047   2.312  0.00  0.00    +0.275 C 
ATOM     12  C   UNL     1     -35.519  20.612   2.096  0.00  0.00    +0.038 C 
ATOM     13  C   UNL     1     -36.797  20.188   1.439  0.00  0.00    +0.189 C 
ATOM     14  C   UNL     1     -34.276  19.802   1.938  0.00  0.00    +0.037 C 
ATOM     15  H   UNL     1     -37.666  18.757   0.247  0.00  0.00    +0.145 HD
ATOM     16  H   UNL     1     -36.012  18.499   0.570  0.00  0.00    +0.145 HD
ENDBRANCH   5   7
BRANCH   2  17
ATOM     17  O   UNL     1     -36.246  25.785   5.715  0.00  0.00    -0.379 OA
ATOM     18  H   UNL     1     -36.817  25.140   6.159  0.00  0.00    +0.211 HD
ENDBRANCH   2  17
BRANCH   3  19
ATOM     19  O   UNL     1     -36.085  23.081   6.023  0.00  0.00    -0.378 OA
ATOM     20  H   UNL     1     -36.691  22.347   5.835  0.00  0.00    +0.211 HD
ENDBRANCH   3  19
BRANCH   4  21
ATOM     21  C   UNL     1     -34.073  25.394   2.714  0.00  0.00    +0.186 C 
BRANCH  21  22
ATOM     22  O   UNL     1     -32.986  25.865   3.492  0.00  0.00    -0.271 OA
BRANCH  22  23
ATOM     23  P   UNL     1     -32.592  27.432   3.401  0.00  0.00    +0.473 P 
ATOM     24  O   UNL     1     -33.103  28.144   2.182  0.00  0.00    -0.227 OA
BRANCH  23  25
ATOM     25  O   UNL     1     -30.985  27.436   3.582  0.00  0.00    -0.303 OA
ATOM     26  H   UNL     1     -30.612  28.215   3.141  0.00  0.00    +0.222 HD
ENDBRANCH  23  25
BRANCH  23  27
ATOM     27  O   UNL     1     -33.126  28.021   4.810  0.00  0.00    -0.303 OA
ATOM     28  H   UNL     1     -32.370  28.288   5.356  0.00  0.00    +0.222 HD
ENDBRANCH  23  27
ENDBRANCH  22  23
ENDBRANCH  21  22
ENDBRANCH   4  21
TORSDOF 8
ENDMDL
MODEL 9
REMARK VINA RESULT:      -5.7      2.860      4.979
REMARK  Name = 192785
REMARK  8 active torsions:
REMARK  status: ('A' for Active; 'I' for Inactive)
REMARK    1  A    between atoms: C_2  and  O_17
REMARK    2  A    between atoms: C_3  and  O_19
REMARK    3  A    between atoms: C_4  and  C_21
REMARK    4  A    between atoms: C_5  and  N_7
REMARK    5  A    between atoms: C_21  and  O_22
REMARK    6  A    between atoms: O_22  and  P_23
REMARK    7  A    between atoms: P_23  and  O_25
REMARK    8  A    between atoms: P_23  and  O_27
REMARK                            x       y       z     vdW  Elec       q    Type
REMARK                         _______ _______ _______ _____ _____    ______ ____
ROOT
ATOM      1  O   UNL     1     -34.791  23.100   2.325  0.00  0.00    -0.332 OA
ATOM      2  C   UNL     1     -36.208  21.743   3.651  0.00  0.00    +0.171 C 
ATOM      3  C   UNL     1     -36.151  23.127   4.265  0.00  0.00    +0.188 C 
ATOM      4  C   UNL     1     -35.727  22.005   2.231  0.00  0.00    +0.176 C 
ATOM      5  C   UNL     1     -34.900  23.704   3.624  0.00  0.00    +0.236 C 
ENDROOT
BRANCH   5   7
ATOM      6  O   UNL     1     -33.386  25.570   5.090  0.00  0.00    -0.193 OA
ATOM      7  N   UNL     1     -34.970  25.129   3.472  0.00  0.00    -0.178 N 
ATOM      8  N   UNL     1     -34.294  27.368   4.046  0.00  0.00    -0.306 NA
ATOM      9  N   UNL     1     -35.196  29.224   3.008  0.00  0.00    -0.332 N 
ATOM     10  C   UNL     1     -35.846  25.656   2.537  0.00  0.00    +0.079 C 
ATOM     11  C   UNL     1     -34.174  26.005   4.248  0.00  0.00    +0.275 C 
ATOM     12  C   UNL     1     -35.987  26.967   2.318  0.00  0.00    +0.038 C 
ATOM     13  C   UNL     1     -35.125  27.856   3.160  0.00  0.00    +0.189 C 
ATOM     14  C   UNL     1     -36.927  27.547   1.314  0.00  0.00    +0.037 C 
ATOM     15  H   UNL     1     -34.631  29.811   3.560  0.00  0.00    +0.145 HD
ATOM     16  H   UNL     1     -35.813  29.614   2.347  0.00  0.00    +0.145 HD
ENDBRANCH   5   7
BRANCH   2  17
ATOM     17  O   UNL     1     -35.264  20.881   4.285  0.00  0.00    -0.379 OA
ATOM     18  H   UNL     1     -35.688  20.035   4.497  0.00  0.00    +0.211 HD
ENDBRANCH   2  17
BRANCH   3  19
ATOM     19  O   UNL     1     -36.069  23.084   5.675  0.00  0.00    -0.378 OA
ATOM     20  H   UNL     1     -36.246  23.967   6.035  0.00  0.00    +0.211 HD
ENDBRANCH   3  19
BRANCH   4  21
ATOM     21  C   UNL     1     -36.846  22.416   1.282  0.00  0.00    +0.186 C 
BRANCH  21  22
ATOM     22  O   UNL     1     -37.939  21.533   1.461  0.00  0.00    -0.271 OA
BRANCH  22  23
ATOM     23  P   UNL     1     -39.438  22.145   1.444  0.00  0.00    +0.473 P 
ATOM     24  O   UNL     1     -39.942  22.550   0.090  0.00  0.00    -0.227 OA
BRANCH  23  25
ATOM     25  O   UNL     1     -39.382  23.328   2.545  0.00  0.00    -0.303 OA
ATOM     26  H   UNL     1     -39.209  22.948   3.420  0.00  0.00    +0.222 HD
ENDBRANCH  23  25
BRANCH  23  27
ATOM     27  O   UNL     1     -40.306  20.995   2.179  0.00  0.00    -0.303 OA
ATOM     28  H   UNL     1     -40.709  21.358   2.983  0.00  0.00    +0.222 HD
ENDBRANCH  23  27
ENDBRANCH  22  23
ENDBRANCH  21  22
ENDBRANCH   4  21
TORSDOF 8
ENDMDL
