MODEL 1
REMARK VINA RESULT:      -7.0      0.000      0.000
REMARK  Name = 21140277
REMARK  4 active torsions:
REMARK  status: ('A' for Active; 'I' for Inactive)
REMARK    1  A    between atoms: C_10  and  C_12
REMARK    2  A    between atoms: C_11  and  C_21
REMARK    3  A    between atoms: C_17  and  N_20
REMARK    4  A    between atoms: C_26  and  N_29
REMARK                            x       y       z     vdW  Elec       q    Type
REMARK                         _______ _______ _______ _____ _____    ______ ____
ROOT
ATOM      1  S   UNL     1     -37.850  21.987   0.629  0.00  0.00    -0.001 S 
ATOM      2  O   UNL     1     -38.206  23.074  -0.266  0.00  0.00    -0.172 OA
ATOM      3  O   UNL     1     -38.415  20.664   0.438  0.00  0.00    -0.172 OA
ATOM      4  O   UNL     1     -35.040  22.707   3.946  0.00  0.00    -0.287 OA
ATOM      5  C   UNL     1     -36.073  21.827   0.580  0.00  0.00    +0.181 C 
ATOM      6  C   UNL     1     -38.262  22.499   2.289  0.00  0.00    +0.181 C 
ATOM      7  C   UNL     1     -35.571  21.509   1.949  0.00  0.00    +0.040 C 
ATOM      8  C   UNL     1     -37.107  23.240   2.875  0.00  0.00    +0.040 C 
ATOM      9  C   UNL     1     -35.821  22.507   3.025  0.00  0.00    +0.191 C 
ATOM     10  C   UNL     1     -34.853  20.418   2.251  0.00  0.00    +0.001 C 
ATOM     11  C   UNL     1     -37.177  24.495   3.337  0.00  0.00    +0.001 C 
ENDROOT
BRANCH  10  12
ATOM     12  C   UNL     1     -34.511  19.333   1.320  0.00  0.00    -0.000 C 
ATOM     13  C   UNL     1     -35.453  18.887   0.393  0.00  0.00    +0.002 C 
ATOM     14  C   UNL     1     -33.244  18.750   1.365  0.00  0.00    +0.002 C 
ATOM     15  C   UNL     1     -35.127  17.858  -0.490  0.00  0.00    +0.024 C 
ATOM     16  C   UNL     1     -32.920  17.721   0.482  0.00  0.00    +0.024 C 
ATOM     17  C   UNL     1     -33.861  17.275  -0.446  0.00  0.00    +0.143 C 
BRANCH  17  20
ATOM     18  O   UNL     1     -33.925  15.062  -1.095  0.00  0.00    -0.126 OA
ATOM     19  O   UNL     1     -32.851  16.495  -2.367  0.00  0.00    -0.126 OA
ATOM     20  N   UNL     1     -33.530  16.227  -1.345  0.00  0.00    +0.058 N 
ENDBRANCH  17  20
ENDBRANCH  10  12
BRANCH  11  21
ATOM     21  C   UNL     1     -36.083  25.230   3.988  0.00  0.00    -0.000 C 
ATOM     22  C   UNL     1     -35.192  25.980   3.220  0.00  0.00    +0.002 C 
ATOM     23  C   UNL     1     -35.936  25.178   5.374  0.00  0.00    +0.002 C 
ATOM     24  C   UNL     1     -34.154  26.678   3.838  0.00  0.00    +0.024 C 
ATOM     25  C   UNL     1     -34.898  25.875   5.992  0.00  0.00    +0.024 C 
ATOM     26  C   UNL     1     -34.007  26.625   5.224  0.00  0.00    +0.143 C 
BRANCH  26  29
ATOM     27  O   UNL     1     -32.562  28.418   5.350  0.00  0.00    -0.126 OA
ATOM     28  O   UNL     1     -32.434  26.862   6.894  0.00  0.00    -0.126 OA
ATOM     29  N   UNL     1     -32.951  27.335   5.853  0.00  0.00    +0.058 N 
ENDBRANCH  26  29
ENDBRANCH  11  21
TORSDOF 4
ENDMDL
MODEL 2
REMARK VINA RESULT:      -7.0      0.077      1.396
REMARK  Name = 21140277
REMARK  4 active torsions:
REMARK  status: ('A' for Active; 'I' for Inactive)
REMARK    1  A    between atoms: C_10  and  C_12
REMARK    2  A    between atoms: C_11  and  C_21
REMARK    3  A    between atoms: C_17  and  N_20
REMARK    4  A    between atoms: C_26  and  N_29
REMARK                            x       y       z     vdW  Elec       q    Type
REMARK                         _______ _______ _______ _____ _____    ______ ____
ROOT
ATOM      1  S   UNL     1     -37.802  21.951   0.599  0.00  0.00    -0.001 S 
ATOM      2  O   UNL     1     -38.155  23.031  -0.304  0.00  0.00    -0.172 OA
ATOM      3  O   UNL     1     -38.363  20.625   0.412  0.00  0.00    -0.172 OA
ATOM      4  O   UNL     1     -35.015  22.698   3.930  0.00  0.00    -0.287 OA
ATOM      5  C   UNL     1     -36.025  21.795   0.563  0.00  0.00    +0.181 C 
ATOM      6  C   UNL     1     -38.226  22.472   2.254  0.00  0.00    +0.181 C 
ATOM      7  C   UNL     1     -35.531  21.486   1.937  0.00  0.00    +0.040 C 
ATOM      8  C   UNL     1     -37.077  23.220   2.842  0.00  0.00    +0.040 C 
ATOM      9  C   UNL     1     -35.790  22.490   3.005  0.00  0.00    +0.191 C 
ATOM     10  C   UNL     1     -34.813  20.399   2.250  0.00  0.00    +0.001 C 
ATOM     11  C   UNL     1     -37.153  24.477   3.296  0.00  0.00    +0.001 C 
ENDROOT
BRANCH  10  12
ATOM     12  C   UNL     1     -34.461  19.309   1.328  0.00  0.00    -0.000 C 
ATOM     13  C   UNL     1     -33.185  18.748   1.367  0.00  0.00    +0.002 C 
ATOM     14  C   UNL     1     -35.403  18.838   0.414  0.00  0.00    +0.002 C 
ATOM     15  C   UNL     1     -32.852  17.714   0.492  0.00  0.00    +0.024 C 
ATOM     16  C   UNL     1     -35.070  17.805  -0.461  0.00  0.00    +0.024 C 
ATOM     17  C   UNL     1     -33.794  17.243  -0.422  0.00  0.00    +0.143 C 
BRANCH  17  20
ATOM     18  O   UNL     1     -33.994  15.067  -1.161  0.00  0.00    -0.126 OA
ATOM     19  O   UNL     1     -32.622  16.411  -2.226  0.00  0.00    -0.126 OA
ATOM     20  N   UNL     1     -33.454  16.190  -1.312  0.00  0.00    +0.058 N 
ENDBRANCH  17  20
ENDBRANCH  10  12
BRANCH  11  21
ATOM     21  C   UNL     1     -36.064  25.219   3.950  0.00  0.00    -0.000 C 
ATOM     22  C   UNL     1     -35.923  25.172   5.337  0.00  0.00    +0.002 C 
ATOM     23  C   UNL     1     -35.173  25.969   3.182  0.00  0.00    +0.002 C 
ATOM     24  C   UNL     1     -34.890  25.875   5.956  0.00  0.00    +0.024 C 
ATOM     25  C   UNL     1     -34.140  26.672   3.802  0.00  0.00    +0.024 C 
ATOM     26  C   UNL     1     -33.999  26.625   5.189  0.00  0.00    +0.143 C 
BRANCH  26  29
ATOM     27  O   UNL     1     -32.431  26.868   6.863  0.00  0.00    -0.126 OA
ATOM     28  O   UNL     1     -32.563  28.425   5.320  0.00  0.00    -0.126 OA
ATOM     29  N   UNL     1     -32.947  27.340   5.821  0.00  0.00    +0.058 N 
ENDBRANCH  26  29
ENDBRANCH  11  21
TORSDOF 4
ENDMDL
MODEL 3
REMARK VINA RESULT:      -6.7      4.100      6.727
REMARK  Name = 21140277
REMARK  4 active torsions:
REMARK  status: ('A' for Active; 'I' for Inactive)
REMARK    1  A    between atoms: C_10  and  C_12
REMARK    2  A    between atoms: C_11  and  C_21
REMARK    3  A    between atoms: C_17  and  N_20
REMARK    4  A    between atoms: C_26  and  N_29
REMARK                            x       y       z     vdW  Elec       q    Type
REMARK                         _______ _______ _______ _____ _____    ______ ____
ROOT
ATOM      1  S   UNL     1     -34.404  28.269   1.649  0.00  0.00    -0.001 S 
ATOM      2  O   UNL     1     -33.531  28.617   0.542  0.00  0.00    -0.172 OA
ATOM      3  O   UNL     1     -35.841  28.194   1.455  0.00  0.00    -0.172 OA
ATOM      4  O   UNL     1     -32.686  27.436   5.620  0.00  0.00    -0.287 OA
ATOM      5  C   UNL     1     -33.860  26.686   2.269  0.00  0.00    +0.181 C 
ATOM      6  C   UNL     1     -34.111  29.448   2.958  0.00  0.00    +0.181 C 
ATOM      7  C   UNL     1     -33.974  26.677   3.757  0.00  0.00    +0.040 C 
ATOM      8  C   UNL     1     -32.986  28.965   3.810  0.00  0.00    +0.040 C 
ATOM      9  C   UNL     1     -33.163  27.667   4.517  0.00  0.00    +0.191 C 
ATOM     10  C   UNL     1     -34.704  25.791   4.450  0.00  0.00    +0.001 C 
ATOM     11  C   UNL     1     -31.862  29.658   4.033  0.00  0.00    +0.001 C 
ENDROOT
BRANCH  10  12
ATOM     12  C   UNL     1     -35.559  24.746   3.869  0.00  0.00    -0.000 C 
ATOM     13  C   UNL     1     -36.875  25.043   3.510  0.00  0.00    +0.002 C 
ATOM     14  C   UNL     1     -35.057  23.459   3.678  0.00  0.00    +0.002 C 
ATOM     15  C   UNL     1     -37.686  24.051   2.959  0.00  0.00    +0.024 C 
ATOM     16  C   UNL     1     -35.869  22.469   3.128  0.00  0.00    +0.024 C 
ATOM     17  C   UNL     1     -37.183  22.764   2.768  0.00  0.00    +0.143 C 
BRANCH  17  20
ATOM     18  O   UNL     1     -37.474  20.743   1.694  0.00  0.00    -0.126 OA
ATOM     19  O   UNL     1     -39.257  21.904   2.238  0.00  0.00    -0.126 OA
ATOM     20  N   UNL     1     -38.011  21.756   2.207  0.00  0.00    +0.058 N 
ENDBRANCH  17  20
ENDBRANCH  10  12
BRANCH  11  21
ATOM     21  C   UNL     1     -30.767  29.250   4.925  0.00  0.00    -0.000 C 
ATOM     22  C   UNL     1     -29.780  28.378   4.465  0.00  0.00    +0.002 C 
ATOM     23  C   UNL     1     -30.715  29.734   6.232  0.00  0.00    +0.002 C 
ATOM     24  C   UNL     1     -28.741  27.991   5.311  0.00  0.00    +0.024 C 
ATOM     25  C   UNL     1     -29.676  29.347   7.079  0.00  0.00    +0.024 C 
ATOM     26  C   UNL     1     -28.689  28.475   6.618  0.00  0.00    +0.143 C 
BRANCH  26  29
ATOM     27  O   UNL     1     -27.100  28.942   8.223  0.00  0.00    -0.126 OA
ATOM     28  O   UNL     1     -27.256  26.884   7.473  0.00  0.00    -0.126 OA
ATOM     29  N   UNL     1     -27.631  28.081   7.479  0.00  0.00    +0.058 N 
ENDBRANCH  26  29
ENDBRANCH  11  21
TORSDOF 4
ENDMDL
MODEL 4
REMARK VINA RESULT:      -6.7      2.222      9.027
REMARK  Name = 21140277
REMARK  4 active torsions:
REMARK  status: ('A' for Active; 'I' for Inactive)
REMARK    1  A    between atoms: C_10  and  C_12
REMARK    2  A    between atoms: C_11  and  C_21
REMARK    3  A    between atoms: C_17  and  N_20
REMARK    4  A    between atoms: C_26  and  N_29
REMARK                            x       y       z     vdW  Elec       q    Type
REMARK                         _______ _______ _______ _____ _____    ______ ____
ROOT
ATOM      1  S   UNL     1     -36.390  23.635   4.418  0.00  0.00    -0.001 S 
ATOM      2  O   UNL     1     -36.312  22.748   5.565  0.00  0.00    -0.172 OA
ATOM      3  O   UNL     1     -37.057  24.920   4.527  0.00  0.00    -0.172 OA
ATOM      4  O   UNL     1     -34.596  22.421   0.580  0.00  0.00    -0.287 OA
ATOM      5  C   UNL     1     -34.718  23.940   3.874  0.00  0.00    +0.181 C 
ATOM      6  C   UNL     1     -37.191  22.739   3.097  0.00  0.00    +0.181 C 
ATOM      7  C   UNL     1     -34.687  23.986   2.383  0.00  0.00    +0.040 C 
ATOM      8  C   UNL     1     -36.165  21.979   2.327  0.00  0.00    +0.040 C 
ATOM      9  C   UNL     1     -35.095  22.758   1.646  0.00  0.00    +0.191 C 
ATOM     10  C   UNL     1     -34.251  25.036   1.673  0.00  0.00    +0.001 C 
ATOM     11  C   UNL     1     -36.188  20.651   2.153  0.00  0.00    +0.001 C 
ENDROOT
BRANCH  10  12
ATOM     12  C   UNL     1     -33.809  26.323   2.230  0.00  0.00    -0.000 C 
ATOM     13  C   UNL     1     -32.460  26.531   2.516  0.00  0.00    +0.002 C 
ATOM     14  C   UNL     1     -34.739  27.333   2.472  0.00  0.00    +0.002 C 
ATOM     15  C   UNL     1     -32.041  27.752   3.044  0.00  0.00    +0.024 C 
ATOM     16  C   UNL     1     -34.320  28.554   3.000  0.00  0.00    +0.024 C 
ATOM     17  C   UNL     1     -32.971  28.763   3.286  0.00  0.00    +0.143 C 
BRANCH  17  20
ATOM     18  O   UNL     1     -31.784  30.736   3.141  0.00  0.00    -0.126 OA
ATOM     19  O   UNL     1     -32.937  30.341   4.968  0.00  0.00    -0.126 OA
ATOM     20  N   UNL     1     -32.544  30.006   3.824  0.00  0.00    +0.058 N 
ENDBRANCH  17  20
ENDBRANCH  10  12
BRANCH  11  21
ATOM     21  C   UNL     1     -35.237  19.878   1.339  0.00  0.00    -0.000 C 
ATOM     22  C   UNL     1     -35.567  19.523   0.030  0.00  0.00    +0.002 C 
ATOM     23  C   UNL     1     -34.007  19.500   1.875  0.00  0.00    +0.002 C 
ATOM     24  C   UNL     1     -34.666  18.790  -0.741  0.00  0.00    +0.024 C 
ATOM     25  C   UNL     1     -33.105  18.767   1.103  0.00  0.00    +0.024 C 
ATOM     26  C   UNL     1     -33.435  18.412  -0.205  0.00  0.00    +0.143 C 
BRANCH  26  29
ATOM     27  O   UNL     1     -31.301  17.681  -0.684  0.00  0.00    -0.126 OA
ATOM     28  O   UNL     1     -32.948  17.012  -1.972  0.00  0.00    -0.126 OA
ATOM     29  N   UNL     1     -32.518  17.666  -0.991  0.00  0.00    +0.058 N 
ENDBRANCH  26  29
ENDBRANCH  11  21
TORSDOF 4
ENDMDL
MODEL 5
REMARK VINA RESULT:      -6.7      4.125      6.760
REMARK  Name = 21140277
REMARK  4 active torsions:
REMARK  status: ('A' for Active; 'I' for Inactive)
REMARK    1  A    between atoms: C_10  and  C_12
REMARK    2  A    between atoms: C_11  and  C_21
REMARK    3  A    between atoms: C_17  and  N_20
REMARK    4  A    between atoms: C_26  and  N_29
REMARK                            x       y       z     vdW  Elec       q    Type
REMARK                         _______ _______ _______ _____ _____    ______ ____
ROOT
ATOM      1  S   UNL     1     -34.287  28.105   1.396  0.00  0.00    -0.001 S 
ATOM      2  O   UNL     1     -33.327  28.340   0.333  0.00  0.00    -0.172 OA
ATOM      3  O   UNL     1     -35.706  28.032   1.101  0.00  0.00    -0.172 OA
ATOM      4  O   UNL     1     -32.886  27.615   5.546  0.00  0.00    -0.287 OA
ATOM      5  C   UNL     1     -33.822  26.579   2.196  0.00  0.00    +0.181 C 
ATOM      6  C   UNL     1     -34.069  29.395   2.612  0.00  0.00    +0.181 C 
ATOM      7  C   UNL     1     -34.047  26.706   3.666  0.00  0.00    +0.040 C 
ATOM      8  C   UNL     1     -33.021  28.978   3.588  0.00  0.00    +0.040 C 
ATOM      9  C   UNL     1     -33.275  27.752   4.393  0.00  0.00    +0.191 C 
ATOM     10  C   UNL     1     -34.843  25.897   4.377  0.00  0.00    +0.001 C 
ATOM     11  C   UNL     1     -31.903  29.674   3.833  0.00  0.00    +0.001 C 
ENDROOT
BRANCH  10  12
ATOM     12  C   UNL     1     -35.673  24.814   3.829  0.00  0.00    -0.000 C 
ATOM     13  C   UNL     1     -35.175  23.512   3.777  0.00  0.00    +0.002 C 
ATOM     14  C   UNL     1     -36.958  25.090   3.361  0.00  0.00    +0.002 C 
ATOM     15  C   UNL     1     -35.963  22.486   3.257  0.00  0.00    +0.024 C 
ATOM     16  C   UNL     1     -37.745  24.063   2.841  0.00  0.00    +0.024 C 
ATOM     17  C   UNL     1     -37.248  22.761   2.789  0.00  0.00    +0.143 C 
BRANCH  17  20
ATOM     18  O   UNL     1     -39.297  21.850   2.249  0.00  0.00    -0.126 OA
ATOM     19  O   UNL     1     -37.488  20.683   1.818  0.00  0.00    -0.126 OA
ATOM     20  N   UNL     1     -38.049  21.715   2.260  0.00  0.00    +0.058 N 
ENDBRANCH  17  20
ENDBRANCH  10  12
BRANCH  11  21
ATOM     21  C   UNL     1     -30.886  29.334   4.839  0.00  0.00    -0.000 C 
ATOM     22  C   UNL     1     -30.915  29.943   6.094  0.00  0.00    +0.002 C 
ATOM     23  C   UNL     1     -29.892  28.403   4.538  0.00  0.00    +0.002 C 
ATOM     24  C   UNL     1     -29.951  29.620   7.048  0.00  0.00    +0.024 C 
ATOM     25  C   UNL     1     -28.927  28.080   5.493  0.00  0.00    +0.024 C 
ATOM     26  C   UNL     1     -28.957  28.689   6.748  0.00  0.00    +0.143 C 
BRANCH  26  29
ATOM     27  O   UNL     1     -27.705  29.195   8.617  0.00  0.00    -0.126 OA
ATOM     28  O   UNL     1     -27.405  27.245   7.655  0.00  0.00    -0.126 OA
ATOM     29  N   UNL     1     -27.975  28.361   7.719  0.00  0.00    +0.058 N 
ENDBRANCH  26  29
ENDBRANCH  11  21
TORSDOF 4
ENDMDL
MODEL 6
REMARK VINA RESULT:      -6.6      4.687      8.152
REMARK  Name = 21140277
REMARK  4 active torsions:
REMARK  status: ('A' for Active; 'I' for Inactive)
REMARK    1  A    between atoms: C_10  and  C_12
REMARK    2  A    between atoms: C_11  and  C_21
REMARK    3  A    between atoms: C_17  and  N_20
REMARK    4  A    between atoms: C_26  and  N_29
REMARK                            x       y       z     vdW  Elec       q    Type
REMARK                         _______ _______ _______ _____ _____    ______ ____
ROOT
ATOM      1  S   UNL     1     -39.205  22.701   1.598  0.00  0.00    -0.001 S 
ATOM      2  O   UNL     1     -38.816  21.461   2.243  0.00  0.00    -0.172 OA
ATOM      3  O   UNL     1     -40.249  22.708   0.589  0.00  0.00    -0.172 OA
ATOM      4  O   UNL     1     -37.208  26.471   2.704  0.00  0.00    -0.287 OA
ATOM      5  C   UNL     1     -39.695  23.833   2.888  0.00  0.00    +0.181 C 
ATOM      6  C   UNL     1     -37.744  23.400   0.846  0.00  0.00    +0.181 C 
ATOM      7  C   UNL     1     -39.229  25.208   2.538  0.00  0.00    +0.040 C 
ATOM      8  C   UNL     1     -37.034  24.248   1.847  0.00  0.00    +0.040 C 
ATOM      9  C   UNL     1     -37.763  25.424   2.397  0.00  0.00    +0.191 C 
ATOM     10  C   UNL     1     -40.041  26.267   2.413  0.00  0.00    +0.001 C 
ATOM     11  C   UNL     1     -35.764  24.057   2.227  0.00  0.00    +0.001 C 
ENDROOT
BRANCH  10  12
ATOM     12  C   UNL     1     -41.506  26.240   2.521  0.00  0.00    -0.000 C 
ATOM     13  C   UNL     1     -42.272  25.689   1.493  0.00  0.00    +0.002 C 
ATOM     14  C   UNL     1     -42.131  26.767   3.652  0.00  0.00    +0.002 C 
ATOM     15  C   UNL     1     -43.662  25.664   1.597  0.00  0.00    +0.024 C 
ATOM     16  C   UNL     1     -43.522  26.742   3.754  0.00  0.00    +0.024 C 
ATOM     17  C   UNL     1     -44.287  26.191   2.727  0.00  0.00    +0.143 C 
BRANCH  17  20
ATOM     18  O   UNL     1     -46.247  25.262   3.513  0.00  0.00    -0.126 OA
ATOM     19  O   UNL     1     -46.373  27.046   2.238  0.00  0.00    -0.126 OA
ATOM     20  N   UNL     1     -45.703  26.165   2.831  0.00  0.00    +0.058 N 
ENDBRANCH  17  20
ENDBRANCH  10  12
BRANCH  11  21
ATOM     21  C   UNL     1     -35.009  24.916   3.153  0.00  0.00    -0.000 C 
ATOM     22  C   UNL     1     -34.170  25.911   2.653  0.00  0.00    +0.002 C 
ATOM     23  C   UNL     1     -35.133  24.734   4.530  0.00  0.00    +0.002 C 
ATOM     24  C   UNL     1     -33.454  26.725   3.531  0.00  0.00    +0.024 C 
ATOM     25  C   UNL     1     -34.418  25.548   5.408  0.00  0.00    +0.024 C 
ATOM     26  C   UNL     1     -33.578  26.544   4.908  0.00  0.00    +0.143 C 
BRANCH  26  29
ATOM     27  O   UNL     1     -32.583  26.943   6.950  0.00  0.00    -0.126 OA
ATOM     28  O   UNL     1     -32.493  28.514   5.418  0.00  0.00    -0.126 OA
ATOM     29  N   UNL     1     -32.850  27.373   5.801  0.00  0.00    +0.058 N 
ENDBRANCH  26  29
ENDBRANCH  11  21
TORSDOF 4
ENDMDL
MODEL 7
REMARK VINA RESULT:      -6.6      2.456      3.301
REMARK  Name = 21140277
REMARK  4 active torsions:
REMARK  status: ('A' for Active; 'I' for Inactive)
REMARK    1  A    between atoms: C_10  and  C_12
REMARK    2  A    between atoms: C_11  and  C_21
REMARK    3  A    between atoms: C_17  and  N_20
REMARK    4  A    between atoms: C_26  and  N_29
REMARK                            x       y       z     vdW  Elec       q    Type
REMARK                         _______ _______ _______ _____ _____    ______ ____
ROOT
ATOM      1  S   UNL     1     -35.673  19.328  -1.234  0.00  0.00    -0.001 S 
ATOM      2  O   UNL     1     -35.917  20.294  -2.290  0.00  0.00    -0.172 OA
ATOM      3  O   UNL     1     -35.766  17.905  -1.505  0.00  0.00    -0.172 OA
ATOM      4  O   UNL     1     -34.645  20.721   2.818  0.00  0.00    -0.287 OA
ATOM      5  C   UNL     1     -34.038  19.649  -0.596  0.00  0.00    +0.181 C 
ATOM      6  C   UNL     1     -36.810  19.685   0.096  0.00  0.00    +0.181 C 
ATOM      7  C   UNL     1     -34.041  19.455   0.884  0.00  0.00    +0.040 C 
ATOM      8  C   UNL     1     -36.199  20.699   1.005  0.00  0.00    +0.040 C 
ATOM      9  C   UNL     1     -34.931  20.334   1.693  0.00  0.00    +0.191 C 
ATOM     10  C   UNL     1     -33.247  18.591   1.530  0.00  0.00    +0.001 C 
ATOM     11  C   UNL     1     -36.756  21.882   1.292  0.00  0.00    +0.001 C 
ENDROOT
BRANCH  10  12
ATOM     12  C   UNL     1     -32.309  17.652   0.898  0.00  0.00    -0.000 C 
ATOM     13  C   UNL     1     -32.793  16.524   0.235  0.00  0.00    +0.002 C 
ATOM     14  C   UNL     1     -30.936  17.889   0.962  0.00  0.00    +0.002 C 
ATOM     15  C   UNL     1     -31.903  15.634  -0.365  0.00  0.00    +0.024 C 
ATOM     16  C   UNL     1     -30.046  16.998   0.362  0.00  0.00    +0.024 C 
ATOM     17  C   UNL     1     -30.530  15.871  -0.301  0.00  0.00    +0.143 C 
BRANCH  17  20
ATOM     18  O   UNL     1     -30.082  13.980  -1.545  0.00  0.00    -0.126 OA
ATOM     19  O   UNL     1     -28.391  15.169  -0.803  0.00  0.00    -0.126 OA
ATOM     20  N   UNL     1     -29.624  14.963  -0.912  0.00  0.00    +0.058 N 
ENDBRANCH  17  20
ENDBRANCH  10  12
BRANCH  11  21
ATOM     21  C   UNL     1     -36.223  22.872   2.239  0.00  0.00    -0.000 C 
ATOM     22  C   UNL     1     -35.170  23.705   1.858  0.00  0.00    +0.002 C 
ATOM     23  C   UNL     1     -36.769  22.979   3.518  0.00  0.00    +0.002 C 
ATOM     24  C   UNL     1     -34.665  24.645   2.756  0.00  0.00    +0.024 C 
ATOM     25  C   UNL     1     -36.264  23.919   4.416  0.00  0.00    +0.024 C 
ATOM     26  C   UNL     1     -35.211  24.752   4.035  0.00  0.00    +0.143 C 
BRANCH  26  29
ATOM     27  O   UNL     1     -33.453  25.814   5.082  0.00  0.00    -0.126 OA
ATOM     28  O   UNL     1     -35.499  26.423   5.598  0.00  0.00    -0.126 OA
ATOM     29  N   UNL     1     -34.697  25.709   4.949  0.00  0.00    +0.058 N 
ENDBRANCH  26  29
ENDBRANCH  11  21
TORSDOF 4
ENDMDL
MODEL 8
REMARK VINA RESULT:      -6.5      1.047      1.438
REMARK  Name = 21140277
REMARK  4 active torsions:
REMARK  status: ('A' for Active; 'I' for Inactive)
REMARK    1  A    between atoms: C_10  and  C_12
REMARK    2  A    between atoms: C_11  and  C_21
REMARK    3  A    between atoms: C_17  and  N_20
REMARK    4  A    between atoms: C_26  and  N_29
REMARK                            x       y       z     vdW  Elec       q    Type
REMARK                         _______ _______ _______ _____ _____    ______ ____
ROOT
ATOM      1  S   UNL     1     -38.876  22.053   0.549  0.00  0.00    -0.001 S 
ATOM      2  O   UNL     1     -39.283  23.186  -0.263  0.00  0.00    -0.172 OA
ATOM      3  O   UNL     1     -39.517  20.761   0.381  0.00  0.00    -0.172 OA
ATOM      4  O   UNL     1     -35.677  22.535   3.541  0.00  0.00    -0.287 OA
ATOM      5  C   UNL     1     -37.125  21.823   0.290  0.00  0.00    +0.181 C 
ATOM      6  C   UNL     1     -39.073  22.518   2.261  0.00  0.00    +0.181 C 
ATOM      7  C   UNL     1     -36.485  21.434   1.581  0.00  0.00    +0.040 C 
ATOM      8  C   UNL     1     -37.828  23.190   2.734  0.00  0.00    +0.040 C 
ATOM      9  C   UNL     1     -36.566  22.401   2.710  0.00  0.00    +0.191 C 
ATOM     10  C   UNL     1     -35.787  20.305   1.763  0.00  0.00    +0.001 C 
ATOM     11  C   UNL     1     -37.789  24.429   3.241  0.00  0.00    +0.001 C 
ENDROOT
BRANCH  10  12
ATOM     12  C   UNL     1     -35.600  19.242   0.764  0.00  0.00    -0.000 C 
ATOM     13  C   UNL     1     -36.707  18.559   0.259  0.00  0.00    +0.002 C 
ATOM     14  C   UNL     1     -34.318  18.917   0.322  0.00  0.00    +0.002 C 
ATOM     15  C   UNL     1     -36.530  17.552  -0.689  0.00  0.00    +0.024 C 
ATOM     16  C   UNL     1     -34.142  17.910  -0.625  0.00  0.00    +0.024 C 
ATOM     17  C   UNL     1     -35.247  17.227  -1.131  0.00  0.00    +0.143 C 
BRANCH  17  20
ATOM     18  O   UNL     1     -35.821  15.196  -2.064  0.00  0.00    -0.126 OA
ATOM     19  O   UNL     1     -34.162  16.326  -2.956  0.00  0.00    -0.126 OA
ATOM     20  N   UNL     1     -35.068  16.201  -2.096  0.00  0.00    +0.058 N 
ENDBRANCH  17  20
ENDBRANCH  10  12
BRANCH  11  21
ATOM     21  C   UNL     1     -36.596  25.094   3.785  0.00  0.00    -0.000 C 
ATOM     22  C   UNL     1     -36.354  25.078   5.159  0.00  0.00    +0.002 C 
ATOM     23  C   UNL     1     -35.706  25.741   2.928  0.00  0.00    +0.002 C 
ATOM     24  C   UNL     1     -35.222  25.709   5.675  0.00  0.00    +0.024 C 
ATOM     25  C   UNL     1     -34.574  26.372   3.444  0.00  0.00    +0.024 C 
ATOM     26  C   UNL     1     -34.332  26.356   4.817  0.00  0.00    +0.143 C 
BRANCH  26  29
ATOM     27  O   UNL     1     -32.288  27.390   4.552  0.00  0.00    -0.126 OA
ATOM     28  O   UNL     1     -33.084  27.155   6.584  0.00  0.00    -0.126 OA
ATOM     29  N   UNL     1     -33.180  26.998   5.343  0.00  0.00    +0.058 N 
ENDBRANCH  26  29
ENDBRANCH  11  21
TORSDOF 4
ENDMDL
MODEL 9
REMARK VINA RESULT:      -6.4      4.039      5.006
REMARK  Name = 21140277
REMARK  4 active torsions:
REMARK  status: ('A' for Active; 'I' for Inactive)
REMARK    1  A    between atoms: C_10  and  C_12
REMARK    2  A    between atoms: C_11  and  C_21
REMARK    3  A    between atoms: C_17  and  N_20
REMARK    4  A    between atoms: C_26  and  N_29
REMARK                            x       y       z     vdW  Elec       q    Type
REMARK                         _______ _______ _______ _____ _____    ______ ____
ROOT
ATOM      1  S   UNL     1     -36.427  18.512  -1.434  0.00  0.00    -0.001 S 
ATOM      2  O   UNL     1     -36.986  18.839  -2.734  0.00  0.00    -0.172 OA
ATOM      3  O   UNL     1     -35.797  17.224  -1.209  0.00  0.00    -0.172 OA
ATOM      4  O   UNL     1     -36.650  21.443   1.849  0.00  0.00    -0.287 OA
ATOM      5  C   UNL     1     -35.229  19.775  -1.044  0.00  0.00    +0.181 C 
ATOM      6  C   UNL     1     -37.736  18.673  -0.230  0.00  0.00    +0.181 C 
ATOM      7  C   UNL     1     -35.303  20.090   0.413  0.00  0.00    +0.040 C 
ATOM      8  C   UNL     1     -37.791  20.085   0.249  0.00  0.00    +0.040 C 
ATOM      9  C   UNL     1     -36.589  20.628   0.937  0.00  0.00    +0.191 C 
ATOM     10  C   UNL     1     -34.269  19.983   1.258  0.00  0.00    +0.001 C 
ATOM     11  C   UNL     1     -38.875  20.866   0.160  0.00  0.00    +0.001 C 
ENDROOT
BRANCH  10  12
ATOM     12  C   UNL     1     -32.932  19.476   0.917  0.00  0.00    -0.000 C 
ATOM     13  C   UNL     1     -32.058  20.264   0.169  0.00  0.00    +0.002 C 
ATOM     14  C   UNL     1     -32.540  18.206   1.340  0.00  0.00    +0.002 C 
ATOM     15  C   UNL     1     -30.789  19.783  -0.154  0.00  0.00    +0.024 C 
ATOM     16  C   UNL     1     -31.272  17.725   1.016  0.00  0.00    +0.024 C 
ATOM     17  C   UNL     1     -30.397  18.513   0.269  0.00  0.00    +0.143 C 
BRANCH  17  20
ATOM     18  O   UNL     1     -28.781  17.927  -1.270  0.00  0.00    -0.126 OA
ATOM     19  O   UNL     1     -28.322  17.701   0.866  0.00  0.00    -0.126 OA
ATOM     20  N   UNL     1     -29.105  18.024  -0.061  0.00  0.00    +0.058 N 
ENDBRANCH  17  20
ENDBRANCH  10  12
BRANCH  11  21
ATOM     21  C   UNL     1     -38.991  22.234   0.687  0.00  0.00    -0.000 C 
ATOM     22  C   UNL     1     -39.579  22.454   1.933  0.00  0.00    +0.002 C 
ATOM     23  C   UNL     1     -38.512  23.311  -0.059  0.00  0.00    +0.002 C 
ATOM     24  C   UNL     1     -39.688  23.752   2.433  0.00  0.00    +0.024 C 
ATOM     25  C   UNL     1     -38.621  24.609   0.441  0.00  0.00    +0.024 C 
ATOM     26  C   UNL     1     -39.209  24.829   1.687  0.00  0.00    +0.143 C 
BRANCH  26  29
ATOM     27  O   UNL     1     -40.198  26.397   3.059  0.00  0.00    -0.126 OA
ATOM     28  O   UNL     1     -38.537  27.033   1.772  0.00  0.00    -0.126 OA
ATOM     29  N   UNL     1     -39.320  26.149   2.197  0.00  0.00    +0.058 N 
ENDBRANCH  26  29
ENDBRANCH  11  21
TORSDOF 4
ENDMDL
