MODEL 1
REMARK VINA RESULT:      -6.8      0.000      0.000
REMARK  Name = 21596360
REMARK  4 active torsions:
REMARK  status: ('A' for Active; 'I' for Inactive)
REMARK    1  A    between atoms: C_8  and  C_27
REMARK    2  A    between atoms: C_12  and  O_33
REMARK    3  A    between atoms: C_18  and  O_31
REMARK    4  A    between atoms: O_33  and  C_35
REMARK                            x       y       z     vdW  Elec       q    Type
REMARK                         _______ _______ _______ _____ _____    ______ ____
ROOT
ATOM      1  O   UNL     1     -38.264  27.081   0.716  0.00  0.00    -0.356 OA
ATOM      2  O   UNL     1     -38.738  23.841  -1.402  0.00  0.00    -0.288 OA
ATOM      3  O   UNL     1     -33.806  19.561   1.679  0.00  0.00    -0.291 OA
ATOM      4  C   UNL     1     -38.709  25.691   0.741  0.00  0.00    +0.124 C 
ATOM      5  C   UNL     1     -39.740  25.405   1.831  0.00  0.00    +0.033 C 
ATOM      6  C   UNL     1     -39.290  26.708  -0.194  0.00  0.00    +0.140 C 
ATOM      7  C   UNL     1     -37.540  24.721   0.500  0.00  0.00    +0.087 C 
ATOM      8  C   UNL     1     -40.654  26.702   1.791  0.00  0.00    +0.030 C 
ATOM      9  C   UNL     1     -37.328  23.847   1.791  0.00  0.00    +0.057 C 
ATOM     10  C   UNL     1     -40.664  27.096   0.282  0.00  0.00    +0.037 C 
ATOM     11  C   UNL     1     -38.997  25.226   3.175  0.00  0.00    +0.046 C 
ATOM     12  C   UNL     1     -37.521  24.757   3.038  0.00  0.00    +0.170 C 
ATOM     13  C   UNL     1     -36.101  22.859   1.705  0.00  0.00    +0.041 C 
ATOM     14  C   UNL     1     -40.599  24.167   1.471  0.00  0.00    +0.003 C 
ATOM     15  C   UNL     1     -37.819  23.713  -0.595  0.00  0.00    +0.207 C 
ATOM     16  C   UNL     1     -36.286  25.507   0.036  0.00  0.00    +0.010 C 
ATOM     17  C   UNL     1     -36.051  22.179   0.296  0.00  0.00    +0.002 C 
ATOM     18  C   UNL     1     -36.868  22.559  -0.722  0.00  0.00    +0.161 C 
ATOM     19  C   UNL     1     -34.774  23.570   2.071  0.00  0.00    +0.009 C 
ATOM     20  C   UNL     1     -36.293  21.736   2.726  0.00  0.00    -0.020 C 
ATOM     21  C   UNL     1     -35.064  20.986   0.156  0.00  0.00    +0.074 C 
ATOM     22  C   UNL     1     -35.674  20.556   2.649  0.00  0.00    +0.033 C 
ATOM     23  C   UNL     1     -34.756  20.328   1.517  0.00  0.00    +0.176 C 
ATOM     24  C   UNL     1     -33.744  21.478  -0.466  0.00  0.00    +0.012 C 
ATOM     25  C   UNL     1     -35.599  19.806  -0.696  0.00  0.00    +0.012 C 
ENDROOT
BRANCH   8  27
ATOM     26  O   UNL     1     -43.564  26.669   4.091  0.00  0.00    -0.448 OA
ATOM     27  C   UNL     1     -41.992  26.619   2.485  0.00  0.00    +0.018 C 
ATOM     28  C   UNL     1     -43.241  26.310   1.897  0.00  0.00    +0.040 C 
ATOM     29  C   UNL     1     -42.241  26.828   3.822  0.00  0.00    +0.175 C 
ATOM     30  C   UNL     1     -44.164  26.353   2.914  0.00  0.00    +0.179 C 
ENDBRANCH   8  27
BRANCH  18  31
ATOM     31  O   UNL     1     -36.853  21.950  -1.958  0.00  0.00    -0.503 OA
ATOM     32  H   UNL     1     -36.328  21.187  -2.098  0.00  0.00    +0.292 HD
ENDBRANCH  18  31
BRANCH  12  33
ATOM     33  O   UNL     1     -37.152  24.125   4.257  0.00  0.00    -0.452 OA
BRANCH  33  35
ATOM     34  O   UNL     1     -36.235  26.017   5.215  0.00  0.00    -0.250 OA
ATOM     35  C   UNL     1     -36.256  24.807   5.035  0.00  0.00    +0.317 C 
ATOM     36  C   UNL     1     -35.284  23.849   5.653  0.00  0.00    +0.121 C 
ENDBRANCH  33  35
ENDBRANCH  12  33
TORSDOF 4
ENDMDL
MODEL 2
REMARK VINA RESULT:      -6.8      5.043      6.923
REMARK  Name = 21596360
REMARK  4 active torsions:
REMARK  status: ('A' for Active; 'I' for Inactive)
REMARK    1  A    between atoms: C_8  and  C_27
REMARK    2  A    between atoms: C_12  and  O_33
REMARK    3  A    between atoms: C_18  and  O_31
REMARK    4  A    between atoms: O_33  and  C_35
REMARK                            x       y       z     vdW  Elec       q    Type
REMARK                         _______ _______ _______ _____ _____    ______ ____
ROOT
ATOM      1  O   UNL     1     -32.573  29.198   0.144  0.00  0.00    -0.356 OA
ATOM      2  O   UNL     1     -36.220  27.840  -0.109  0.00  0.00    -0.288 OA
ATOM      3  O   UNL     1     -36.279  23.269   5.480  0.00  0.00    -0.291 OA
ATOM      4  C   UNL     1     -33.883  29.163   0.788  0.00  0.00    +0.124 C 
ATOM      5  C   UNL     1     -34.150  30.371   1.683  0.00  0.00    +0.033 C 
ATOM      6  C   UNL     1     -33.685  29.656  -0.614  0.00  0.00    +0.140 C 
ATOM      7  C   UNL     1     -34.238  27.745   1.266  0.00  0.00    +0.087 C 
ATOM      8  C   UNL     1     -33.527  31.567   0.845  0.00  0.00    +0.030 C 
ATOM      9  C   UNL     1     -34.347  27.749   2.835  0.00  0.00    +0.057 C 
ATOM     10  C   UNL     1     -33.799  31.157  -0.635  0.00  0.00    +0.037 C 
ATOM     11  C   UNL     1     -33.442  30.145   3.038  0.00  0.00    +0.046 C 
ATOM     12  C   UNL     1     -33.215  28.650   3.406  0.00  0.00    +0.170 C 
ATOM     13  C   UNL     1     -34.631  26.329   3.463  0.00  0.00    +0.041 C 
ATOM     14  C   UNL     1     -35.671  30.609   1.854  0.00  0.00    +0.003 C 
ATOM     15  C   UNL     1     -35.601  27.281   0.795  0.00  0.00    +0.207 C 
ATOM     16  C   UNL     1     -33.225  26.722   0.689  0.00  0.00    +0.010 C 
ATOM     17  C   UNL     1     -35.705  25.567   2.617  0.00  0.00    +0.002 C 
ATOM     18  C   UNL     1     -36.157  26.039   1.425  0.00  0.00    +0.161 C 
ATOM     19  C   UNL     1     -33.324  25.516   3.640  0.00  0.00    +0.009 C 
ATOM     20  C   UNL     1     -35.226  26.513   4.861  0.00  0.00    -0.020 C 
ATOM     21  C   UNL     1     -36.281  24.275   3.262  0.00  0.00    +0.074 C 
ATOM     22  C   UNL     1     -35.932  25.571   5.492  0.00  0.00    +0.033 C 
ATOM     23  C   UNL     1     -36.146  24.287   4.799  0.00  0.00    +0.176 C 
ATOM     24  C   UNL     1     -35.538  23.045   2.709  0.00  0.00    +0.012 C 
ATOM     25  C   UNL     1     -37.802  24.071   3.041  0.00  0.00    +0.012 C 
ENDROOT
BRANCH   8  27
ATOM     26  O   UNL     1     -33.946  34.947   2.314  0.00  0.00    -0.448 OA
ATOM     27  C   UNL     1     -33.920  32.966   1.251  0.00  0.00    +0.018 C 
ATOM     28  C   UNL     1     -34.972  33.746   0.716  0.00  0.00    +0.040 C 
ATOM     29  C   UNL     1     -33.327  33.741   2.221  0.00  0.00    +0.175 C 
ATOM     30  C   UNL     1     -34.947  34.941   1.394  0.00  0.00    +0.179 C 
ENDBRANCH   8  27
BRANCH  18  31
ATOM     31  O   UNL     1     -37.121  25.391   0.684  0.00  0.00    -0.503 OA
ATOM     32  H   UNL     1     -37.493  25.808  -0.069  0.00  0.00    +0.292 HD
ENDBRANCH  18  31
BRANCH  12  33
ATOM     33  O   UNL     1     -33.088  28.566   4.818  0.00  0.00    -0.452 OA
BRANCH  33  35
ATOM     34  O   UNL     1     -30.869  27.922   4.852  0.00  0.00    -0.250 OA
ATOM     35  C   UNL     1     -31.808  28.565   5.302  0.00  0.00    +0.317 C 
ATOM     36  C   UNL     1     -31.708  29.479   6.485  0.00  0.00    +0.121 C 
ENDBRANCH  33  35
ENDBRANCH  12  33
TORSDOF 4
ENDMDL
MODEL 3
REMARK VINA RESULT:      -6.5      4.018      6.840
REMARK  Name = 21596360
REMARK  4 active torsions:
REMARK  status: ('A' for Active; 'I' for Inactive)
REMARK    1  A    between atoms: C_8  and  C_27
REMARK    2  A    between atoms: C_12  and  O_33
REMARK    3  A    between atoms: C_18  and  O_31
REMARK    4  A    between atoms: O_33  and  C_35
REMARK                            x       y       z     vdW  Elec       q    Type
REMARK                         _______ _______ _______ _____ _____    ______ ____
ROOT
ATOM      1  O   UNL     1     -34.704  22.237  -0.290  0.00  0.00    -0.356 OA
ATOM      2  O   UNL     1     -38.039  20.322  -0.941  0.00  0.00    -0.288 OA
ATOM      3  O   UNL     1     -35.460  13.825  -2.748  0.00  0.00    -0.291 OA
ATOM      4  C   UNL     1     -35.580  21.168   0.180  0.00  0.00    +0.124 C 
ATOM      5  C   UNL     1     -35.442  20.884   1.675  0.00  0.00    +0.033 C 
ATOM      6  C   UNL     1     -36.048  22.582   0.015  0.00  0.00    +0.140 C 
ATOM      7  C   UNL     1     -35.648  20.010  -0.829  0.00  0.00    +0.087 C 
ATOM      8  C   UNL     1     -35.293  22.340   2.289  0.00  0.00    +0.030 C 
ATOM      9  C   UNL     1     -35.036  18.719  -0.168  0.00  0.00    +0.057 C 
ATOM     10  C   UNL     1     -36.195  23.220   1.371  0.00  0.00    +0.037 C 
ATOM     11  C   UNL     1     -34.193  20.001   1.893  0.00  0.00    +0.046 C 
ATOM     12  C   UNL     1     -33.790  19.137   0.664  0.00  0.00    +0.170 C 
ATOM     13  C   UNL     1     -34.973  17.471  -1.131  0.00  0.00    +0.041 C 
ATOM     14  C   UNL     1     -36.727  20.225   2.235  0.00  0.00    +0.003 C 
ATOM     15  C   UNL     1     -37.065  19.613  -1.187  0.00  0.00    +0.207 C 
ATOM     16  C   UNL     1     -34.982  20.431  -2.165  0.00  0.00    +0.010 C 
ATOM     17  C   UNL     1     -36.295  17.359  -1.961  0.00  0.00    +0.002 C 
ATOM     18  C   UNL     1     -37.248  18.329  -1.941  0.00  0.00    +0.161 C 
ATOM     19  C   UNL     1     -33.708  17.509  -2.025  0.00  0.00    +0.009 C 
ATOM     20  C   UNL     1     -34.876  16.197  -0.289  0.00  0.00    -0.020 C 
ATOM     21  C   UNL     1     -36.487  16.033  -2.750  0.00  0.00    +0.074 C 
ATOM     22  C   UNL     1     -35.199  14.985  -0.746  0.00  0.00    +0.033 C 
ATOM     23  C   UNL     1     -35.672  14.874  -2.139  0.00  0.00    +0.176 C 
ATOM     24  C   UNL     1     -36.046  16.232  -4.211  0.00  0.00    +0.012 C 
ATOM     25  C   UNL     1     -37.939  15.489  -2.744  0.00  0.00    +0.012 C 
ENDROOT
BRANCH   8  27
ATOM     26  O   UNL     1     -36.118  23.297   5.777  0.00  0.00    -0.448 OA
ATOM     27  C   UNL     1     -35.492  22.478   3.779  0.00  0.00    +0.018 C 
ATOM     28  C   UNL     1     -35.065  21.578   4.784  0.00  0.00    +0.040 C 
ATOM     29  C   UNL     1     -36.127  23.508   4.435  0.00  0.00    +0.175 C 
ATOM     30  C   UNL     1     -35.470  22.120   5.981  0.00  0.00    +0.179 C 
ENDBRANCH   8  27
BRANCH  18  31
ATOM     31  O   UNL     1     -38.427  18.230  -2.646  0.00  0.00    -0.503 OA
ATOM     32  H   UNL     1     -38.438  17.815  -3.486  0.00  0.00    +0.292 HD
ENDBRANCH  18  31
BRANCH  12  33
ATOM     33  O   UNL     1     -33.036  18.031   1.140  0.00  0.00    -0.452 OA
BRANCH  33  35
ATOM     34  O   UNL     1     -30.851  17.442   1.608  0.00  0.00    -0.250 OA
ATOM     35  C   UNL     1     -31.676  18.154   1.051  0.00  0.00    +0.317 C 
ATOM     36  C   UNL     1     -31.324  19.304   0.157  0.00  0.00    +0.121 C 
ENDBRANCH  33  35
ENDBRANCH  12  33
TORSDOF 4
ENDMDL
MODEL 4
REMARK VINA RESULT:      -6.5      3.126      5.865
REMARK  Name = 21596360
REMARK  4 active torsions:
REMARK  status: ('A' for Active; 'I' for Inactive)
REMARK    1  A    between atoms: C_8  and  C_27
REMARK    2  A    between atoms: C_12  and  O_33
REMARK    3  A    between atoms: C_18  and  O_31
REMARK    4  A    between atoms: O_33  and  C_35
REMARK                            x       y       z     vdW  Elec       q    Type
REMARK                         _______ _______ _______ _____ _____    ______ ____
ROOT
ATOM      1  O   UNL     1     -32.617  24.212   1.102  0.00  0.00    -0.356 OA
ATOM      2  O   UNL     1     -35.575  25.605  -1.023  0.00  0.00    -0.288 OA
ATOM      3  O   UNL     1     -40.775  20.938   0.796  0.00  0.00    -0.291 OA
ATOM      4  C   UNL     1     -33.922  24.864   1.153  0.00  0.00    +0.124 C 
ATOM      5  C   UNL     1     -34.134  25.699   2.414  0.00  0.00    +0.033 C 
ATOM      6  C   UNL     1     -32.760  25.440   0.402  0.00  0.00    +0.140 C 
ATOM      7  C   UNL     1     -35.035  23.937   0.636  0.00  0.00    +0.087 C 
ATOM      8  C   UNL     1     -32.714  26.379   2.619  0.00  0.00    +0.030 C 
ATOM      9  C   UNL     1     -36.029  23.626   1.816  0.00  0.00    +0.057 C 
ATOM     10  C   UNL     1     -32.208  26.615   1.164  0.00  0.00    +0.037 C 
ATOM     11  C   UNL     1     -34.526  24.750   3.570  0.00  0.00    +0.046 C 
ATOM     12  C   UNL     1     -35.200  23.424   3.116  0.00  0.00    +0.170 C 
ATOM     13  C   UNL     1     -37.181  22.616   1.437  0.00  0.00    +0.041 C 
ATOM     14  C   UNL     1     -35.197  26.800   2.179  0.00  0.00    +0.003 C 
ATOM     15  C   UNL     1     -35.902  24.582  -0.425  0.00  0.00    +0.207 C 
ATOM     16  C   UNL     1     -34.414  22.685  -0.035  0.00  0.00    +0.010 C 
ATOM     17  C   UNL     1     -37.749  22.950   0.018  0.00  0.00    +0.002 C 
ATOM     18  C   UNL     1     -37.173  23.875  -0.795  0.00  0.00    +0.161 C 
ATOM     19  C   UNL     1     -36.708  21.146   1.559  0.00  0.00    +0.009 C 
ATOM     20  C   UNL     1     -38.338  22.788   2.423  0.00  0.00    -0.020 C 
ATOM     21  C   UNL     1     -39.063  22.216  -0.374  0.00  0.00    +0.074 C 
ATOM     22  C   UNL     1     -39.588  22.396   2.169  0.00  0.00    +0.033 C 
ATOM     23  C   UNL     1     -39.863  21.763   0.865  0.00  0.00    +0.176 C 
ATOM     24  C   UNL     1     -38.728  20.978  -1.227  0.00  0.00    +0.012 C 
ATOM     25  C   UNL     1     -40.079  23.090  -1.153  0.00  0.00    +0.012 C 
ENDROOT
BRANCH   8  27
ATOM     26  O   UNL     1     -32.658  28.766   5.459  0.00  0.00    -0.448 OA
ATOM     27  C   UNL     1     -32.649  27.554   3.566  0.00  0.00    +0.018 C 
ATOM     28  C   UNL     1     -32.452  28.913   3.226  0.00  0.00    +0.040 C 
ATOM     29  C   UNL     1     -32.769  27.517   4.936  0.00  0.00    +0.175 C 
ATOM     30  C   UNL     1     -32.466  29.610   4.411  0.00  0.00    +0.179 C 
ENDBRANCH   8  27
BRANCH  18  31
ATOM     31  O   UNL     1     -37.679  24.197  -2.036  0.00  0.00    -0.503 OA
ATOM     32  H   UNL     1     -38.096  23.539  -2.557  0.00  0.00    +0.292 HD
ENDBRANCH  18  31
BRANCH  12  33
ATOM     33  O   UNL     1     -35.972  22.936   4.204  0.00  0.00    -0.452 OA
BRANCH  33  35
ATOM     34  O   UNL     1     -35.083  20.820   4.472  0.00  0.00    -0.250 OA
ATOM     35  C   UNL     1     -35.415  21.910   4.918  0.00  0.00    +0.317 C 
ATOM     36  C   UNL     1     -35.261  22.311   6.354  0.00  0.00    +0.121 C 
ENDBRANCH  33  35
ENDBRANCH  12  33
TORSDOF 4
ENDMDL
MODEL 5
REMARK VINA RESULT:      -6.3      3.242      5.570
REMARK  Name = 21596360
REMARK  4 active torsions:
REMARK  status: ('A' for Active; 'I' for Inactive)
REMARK    1  A    between atoms: C_8  and  C_27
REMARK    2  A    between atoms: C_12  and  O_33
REMARK    3  A    between atoms: C_18  and  O_31
REMARK    4  A    between atoms: O_33  and  C_35
REMARK                            x       y       z     vdW  Elec       q    Type
REMARK                         _______ _______ _______ _____ _____    ______ ____
ROOT
ATOM      1  O   UNL     1     -36.827  23.511  -0.231  0.00  0.00    -0.356 OA
ATOM      2  O   UNL     1     -36.740  19.983   1.429  0.00  0.00    -0.288 OA
ATOM      3  O   UNL     1     -30.694  17.335  -1.497  0.00  0.00    -0.291 OA
ATOM      4  C   UNL     1     -36.116  22.649   0.708  0.00  0.00    +0.124 C 
ATOM      5  C   UNL     1     -35.343  23.423   1.775  0.00  0.00    +0.033 C 
ATOM      6  C   UNL     1     -37.570  22.978   0.856  0.00  0.00    +0.140 C 
ATOM      7  C   UNL     1     -35.469  21.451  -0.006  0.00  0.00    +0.087 C 
ATOM      8  C   UNL     1     -36.338  24.609   2.128  0.00  0.00    +0.030 C 
ATOM      9  C   UNL     1     -33.905  21.556   0.135  0.00  0.00    +0.057 C 
ATOM     10  C   UNL     1     -37.748  23.961   1.982  0.00  0.00    +0.037 C 
ATOM     11  C   UNL     1     -34.011  23.909   1.161  0.00  0.00    +0.046 C 
ATOM     12  C   UNL     1     -33.496  23.048  -0.028  0.00  0.00    +0.170 C 
ATOM     13  C   UNL     1     -33.114  20.422  -0.626  0.00  0.00    +0.041 C 
ATOM     14  C   UNL     1     -35.120  22.554   3.038  0.00  0.00    +0.003 C 
ATOM     15  C   UNL     1     -35.815  20.121   0.630  0.00  0.00    +0.207 C 
ATOM     16  C   UNL     1     -35.984  21.363  -1.466  0.00  0.00    +0.010 C 
ATOM     17  C   UNL     1     -33.816  19.039  -0.419  0.00  0.00    +0.002 C 
ATOM     18  C   UNL     1     -35.026  18.924   0.188  0.00  0.00    +0.161 C 
ATOM     19  C   UNL     1     -32.918  20.774  -2.122  0.00  0.00    +0.009 C 
ATOM     20  C   UNL     1     -31.715  20.298  -0.018  0.00  0.00    -0.020 C 
ATOM     21  C   UNL     1     -33.005  17.795  -0.881  0.00  0.00    +0.074 C 
ATOM     22  C   UNL     1     -30.950  19.211  -0.144  0.00  0.00    +0.033 C 
ATOM     23  C   UNL     1     -31.488  18.072  -0.911  0.00  0.00    +0.176 C 
ATOM     24  C   UNL     1     -33.460  17.376  -2.291  0.00  0.00    +0.012 C 
ATOM     25  C   UNL     1     -33.123  16.567   0.059  0.00  0.00    +0.012 C 
ENDROOT
BRANCH   8  27
ATOM     26  O   UNL     1     -35.247  26.904   4.831  0.00  0.00    -0.448 OA
ATOM     27  C   UNL     1     -36.065  25.376   3.400  0.00  0.00    +0.018 C 
ATOM     28  C   UNL     1     -36.589  25.108   4.686  0.00  0.00    +0.040 C 
ATOM     29  C   UNL     1     -35.253  26.478   3.541  0.00  0.00    +0.175 C 
ATOM     30  C   UNL     1     -36.062  26.064   5.521  0.00  0.00    +0.179 C 
ENDBRANCH   8  27
BRANCH  18  31
ATOM     31  O   UNL     1     -35.642  17.709   0.400  0.00  0.00    -0.503 OA
ATOM     32  H   UNL     1     -35.899  17.459   1.266  0.00  0.00    +0.292 HD
ENDBRANCH  18  31
BRANCH  12  33
ATOM     33  O   UNL     1     -32.091  23.237  -0.124  0.00  0.00    -0.452 OA
BRANCH  33  35
ATOM     34  O   UNL     1     -31.114  25.328  -0.005  0.00  0.00    -0.250 OA
ATOM     35  C   UNL     1     -31.686  24.443  -0.628  0.00  0.00    +0.317 C 
ATOM     36  C   UNL     1     -32.042  24.536  -2.081  0.00  0.00    +0.121 C 
ENDBRANCH  33  35
ENDBRANCH  12  33
TORSDOF 4
ENDMDL
MODEL 6
REMARK VINA RESULT:      -6.3      2.671      5.272
REMARK  Name = 21596360
REMARK  4 active torsions:
REMARK  status: ('A' for Active; 'I' for Inactive)
REMARK    1  A    between atoms: C_8  and  C_27
REMARK    2  A    between atoms: C_12  and  O_33
REMARK    3  A    between atoms: C_18  and  O_31
REMARK    4  A    between atoms: O_33  and  C_35
REMARK                            x       y       z     vdW  Elec       q    Type
REMARK                         _______ _______ _______ _____ _____    ______ ____
ROOT
ATOM      1  O   UNL     1     -39.449  23.807   3.109  0.00  0.00    -0.356 OA
ATOM      2  O   UNL     1     -38.204  27.205   1.655  0.00  0.00    -0.288 OA
ATOM      3  O   UNL     1     -31.079  26.449   2.538  0.00  0.00    -0.291 OA
ATOM      4  C   UNL     1     -38.708  24.443   2.023  0.00  0.00    +0.124 C 
ATOM      5  C   UNL     1     -38.705  23.627   0.732  0.00  0.00    +0.033 C 
ATOM      6  C   UNL     1     -40.128  24.796   2.348  0.00  0.00    +0.140 C 
ATOM      7  C   UNL     1     -37.415  25.100   2.533  0.00  0.00    +0.087 C 
ATOM      8  C   UNL     1     -40.188  23.062   0.678  0.00  0.00    +0.030 C 
ATOM      9  C   UNL     1     -36.181  24.370   1.883  0.00  0.00    +0.057 C 
ATOM     10  C   UNL     1     -41.040  24.208   1.304  0.00  0.00    +0.037 C 
ATOM     11  C   UNL     1     -37.636  22.518   0.855  0.00  0.00    +0.046 C 
ATOM     12  C   UNL     1     -36.479  22.844   1.842  0.00  0.00    +0.170 C 
ATOM     13  C   UNL     1     -34.782  24.898   2.386  0.00  0.00    +0.041 C 
ATOM     14  C   UNL     1     -38.463  24.537  -0.498  0.00  0.00    +0.003 C 
ATOM     15  C   UNL     1     -37.268  26.543   2.099  0.00  0.00    +0.207 C 
ATOM     16  C   UNL     1     -37.408  25.126   4.084  0.00  0.00    +0.010 C 
ATOM     17  C   UNL     1     -34.794  26.461   2.477  0.00  0.00    +0.002 C 
ATOM     18  C   UNL     1     -35.929  27.188   2.305  0.00  0.00    +0.161 C 
ATOM     19  C   UNL     1     -34.370  24.227   3.720  0.00  0.00    +0.009 C 
ATOM     20  C   UNL     1     -33.711  24.528   1.358  0.00  0.00    -0.020 C 
ATOM     21  C   UNL     1     -33.410  27.135   2.696  0.00  0.00    +0.074 C 
ATOM     22  C   UNL     1     -32.530  25.144   1.269  0.00  0.00    +0.033 C 
ATOM     23  C   UNL     1     -32.249  26.240   2.216  0.00  0.00    +0.176 C 
ATOM     24  C   UNL     1     -33.214  27.438   4.193  0.00  0.00    +0.012 C 
ATOM     25  C   UNL     1     -33.202  28.447   1.897  0.00  0.00    +0.012 C 
ENDROOT
BRANCH   8  27
ATOM     26  O   UNL     1     -41.765  22.277  -2.587  0.00  0.00    -0.448 OA
ATOM     27  C   UNL     1     -40.659  22.503  -0.643  0.00  0.00    +0.018 C 
ATOM     28  C   UNL     1     -40.234  21.303  -1.261  0.00  0.00    +0.040 C 
ATOM     29  C   UNL     1     -41.592  23.058  -1.488  0.00  0.00    +0.175 C 
ATOM     30  C   UNL     1     -40.936  21.211  -2.440  0.00  0.00    +0.179 C 
ENDBRANCH   8  27
BRANCH  18  31
ATOM     31  O   UNL     1     -35.947  28.565   2.356  0.00  0.00    -0.503 OA
ATOM     32  H   UNL     1     -36.763  29.025   2.326  0.00  0.00    +0.292 HD
ENDBRANCH  18  31
BRANCH  12  33
ATOM     33  O   UNL     1     -35.354  22.062   1.464  0.00  0.00    -0.452 OA
BRANCH  33  35
ATOM     34  O   UNL     1     -35.545  20.705   3.326  0.00  0.00    -0.250 OA
ATOM     35  C   UNL     1     -35.156  20.915   2.184  0.00  0.00    +0.317 C 
ATOM     36  C   UNL     1     -34.381  19.926   1.367  0.00  0.00    +0.121 C 
ENDBRANCH  33  35
ENDBRANCH  12  33
TORSDOF 4
ENDMDL
MODEL 7
REMARK VINA RESULT:      -6.2      2.967      6.019
REMARK  Name = 21596360
REMARK  4 active torsions:
REMARK  status: ('A' for Active; 'I' for Inactive)
REMARK    1  A    between atoms: C_8  and  C_27
REMARK    2  A    between atoms: C_12  and  O_33
REMARK    3  A    between atoms: C_18  and  O_31
REMARK    4  A    between atoms: O_33  and  C_35
REMARK                            x       y       z     vdW  Elec       q    Type
REMARK                         _______ _______ _______ _____ _____    ______ ____
ROOT
ATOM      1  O   UNL     1     -37.287  25.685   3.783  0.00  0.00    -0.356 OA
ATOM      2  O   UNL     1     -36.078  22.003   4.216  0.00  0.00    -0.288 OA
ATOM      3  O   UNL     1     -36.164  19.804  -2.661  0.00  0.00    -0.291 OA
ATOM      4  C   UNL     1     -36.205  24.742   3.513  0.00  0.00    +0.124 C 
ATOM      5  C   UNL     1     -34.842  25.414   3.354  0.00  0.00    +0.033 C 
ATOM      6  C   UNL     1     -36.705  25.023   4.897  0.00  0.00    +0.140 C 
ATOM      7  C   UNL     1     -36.650  23.640   2.537  0.00  0.00    +0.087 C 
ATOM      8  C   UNL     1     -34.878  26.535   4.477  0.00  0.00    +0.030 C 
ATOM      9  C   UNL     1     -35.808  23.761   1.213  0.00  0.00    +0.057 C 
ATOM     10  C   UNL     1     -35.701  25.877   5.626  0.00  0.00    +0.037 C 
ATOM     11  C   UNL     1     -34.743  25.989   1.923  0.00  0.00    +0.046 C 
ATOM     12  C   UNL     1     -35.638  25.270   0.874  0.00  0.00    +0.170 C 
ATOM     13  C   UNL     1     -36.221  22.732   0.091  0.00  0.00    +0.041 C 
ATOM     14  C   UNL     1     -33.696  24.420   3.663  0.00  0.00    +0.003 C 
ATOM     15  C   UNL     1     -36.356  22.243   3.042  0.00  0.00    +0.207 C 
ATOM     16  C   UNL     1     -38.186  23.697   2.335  0.00  0.00    +0.010 C 
ATOM     17  C   UNL     1     -36.474  21.320   0.718  0.00  0.00    +0.002 C 
ATOM     18  C   UNL     1     -36.493  21.116   2.062  0.00  0.00    +0.161 C 
ATOM     19  C   UNL     1     -37.430  23.244  -0.731  0.00  0.00    +0.009 C 
ATOM     20  C   UNL     1     -35.059  22.572  -0.891  0.00  0.00    -0.020 C 
ATOM     21  C   UNL     1     -36.624  20.149  -0.294  0.00  0.00    +0.074 C 
ATOM     22  C   UNL     1     -34.918  21.520  -1.701  0.00  0.00    +0.033 C 
ATOM     23  C   UNL     1     -35.940  20.458  -1.642  0.00  0.00    +0.176 C 
ATOM     24  C   UNL     1     -38.117  19.873  -0.549  0.00  0.00    +0.012 C 
ATOM     25  C   UNL     1     -35.948  18.826   0.152  0.00  0.00    +0.012 C 
ENDROOT
BRANCH   8  27
ATOM     26  O   UNL     1     -31.740  27.750   6.038  0.00  0.00    -0.448 OA
ATOM     27  C   UNL     1     -33.560  27.167   4.855  0.00  0.00    +0.018 C 
ATOM     28  C   UNL     1     -32.754  28.007   4.050  0.00  0.00    +0.040 C 
ATOM     29  C   UNL     1     -32.899  27.042   6.055  0.00  0.00    +0.175 C 
ATOM     30  C   UNL     1     -31.660  28.335   4.814  0.00  0.00    +0.179 C 
ENDBRANCH   8  27
BRANCH  18  31
ATOM     31  O   UNL     1     -36.688  19.874   2.625  0.00  0.00    -0.503 OA
ATOM     32  H   UNL     1     -36.753  19.116   2.078  0.00  0.00    +0.292 HD
ENDBRANCH  18  31
BRANCH  12  33
ATOM     33  O   UNL     1     -35.072  25.497  -0.409  0.00  0.00    -0.452 OA
BRANCH  33  35
ATOM     34  O   UNL     1     -34.563  27.513  -1.418  0.00  0.00    -0.250 OA
ATOM     35  C   UNL     1     -35.371  26.700  -0.989  0.00  0.00    +0.317 C 
ATOM     36  C   UNL     1     -36.857  26.892  -1.029  0.00  0.00    +0.121 C 
ENDBRANCH  33  35
ENDBRANCH  12  33
TORSDOF 4
ENDMDL
MODEL 8
REMARK VINA RESULT:      -6.1      2.578      7.137
REMARK  Name = 21596360
REMARK  4 active torsions:
REMARK  status: ('A' for Active; 'I' for Inactive)
REMARK    1  A    between atoms: C_8  and  C_27
REMARK    2  A    between atoms: C_12  and  O_33
REMARK    3  A    between atoms: C_18  and  O_31
REMARK    4  A    between atoms: O_33  and  C_35
REMARK                            x       y       z     vdW  Elec       q    Type
REMARK                         _______ _______ _______ _____ _____    ______ ____
ROOT
ATOM      1  O   UNL     1     -36.078  24.219   0.274  0.00  0.00    -0.356 OA
ATOM      2  O   UNL     1     -37.756  27.550   1.414  0.00  0.00    -0.288 OA
ATOM      3  O   UNL     1     -44.543  26.378  -0.753  0.00  0.00    -0.291 OA
ATOM      4  C   UNL     1     -37.040  24.819   1.193  0.00  0.00    +0.124 C 
ATOM      5  C   UNL     1     -37.237  24.013   2.476  0.00  0.00    +0.033 C 
ATOM      6  C   UNL     1     -35.607  25.251   1.129  0.00  0.00    +0.140 C 
ATOM      7  C   UNL     1     -38.252  25.397   0.442  0.00  0.00    +0.087 C 
ATOM      8  C   UNL     1     -35.761  23.535   2.812  0.00  0.00    +0.030 C 
ATOM      9  C   UNL     1     -39.542  24.601   0.867  0.00  0.00    +0.057 C 
ATOM     10  C   UNL     1     -34.873  24.724   2.333  0.00  0.00    +0.037 C 
ATOM     11  C   UNL     1     -38.202  22.843   2.177  0.00  0.00    +0.046 C 
ATOM     12  C   UNL     1     -39.173  23.095   0.989  0.00  0.00    +0.170 C 
ATOM     13  C   UNL     1     -40.851  25.045   0.105  0.00  0.00    +0.041 C 
ATOM     14  C   UNL     1     -37.753  24.916   3.624  0.00  0.00    +0.003 C 
ATOM     15  C   UNL     1     -38.556  26.832   0.816  0.00  0.00    +0.207 C 
ATOM     16  C   UNL     1     -37.973  25.412  -1.083  0.00  0.00    +0.010 C 
ATOM     17  C   UNL     1     -40.909  26.605  -0.009  0.00  0.00    +0.002 C 
ATOM     18  C   UNL     1     -39.867  27.398   0.357  0.00  0.00    +0.161 C 
ATOM     19  C   UNL     1     -40.972  24.342  -1.269  0.00  0.00    +0.009 C 
ATOM     20  C   UNL     1     -42.071  24.620   0.925  0.00  0.00    -0.020 C 
ATOM     21  C   UNL     1     -42.263  27.196  -0.491  0.00  0.00    +0.074 C 
ATOM     22  C   UNL     1     -43.280  25.168   0.784  0.00  0.00    +0.033 C 
ATOM     23  C   UNL     1     -43.442  26.240  -0.217  0.00  0.00    +0.176 C 
ATOM     24  C   UNL     1     -42.196  27.478  -2.003  0.00  0.00    +0.012 C 
ATOM     25  C   UNL     1     -42.688  28.500   0.234  0.00  0.00    +0.012 C 
ENDROOT
BRANCH   8  27
ATOM     26  O   UNL     1     -35.114  22.952   6.418  0.00  0.00    -0.448 OA
ATOM     27  C   UNL     1     -35.511  23.013   4.206  0.00  0.00    +0.018 C 
ATOM     28  C   UNL     1     -35.441  21.658   4.610  0.00  0.00    +0.040 C 
ATOM     29  C   UNL     1     -35.305  23.760   5.343  0.00  0.00    +0.175 C 
ATOM     30  C   UNL     1     -35.198  21.674   5.963  0.00  0.00    +0.179 C 
ENDBRANCH   8  27
BRANCH  18  31
ATOM     31  O   UNL     1     -39.916  28.773   0.286  0.00  0.00    -0.503 OA
ATOM     32  H   UNL     1     -39.519  29.292   0.958  0.00  0.00    +0.292 HD
ENDBRANCH  18  31
BRANCH  12  33
ATOM     33  O   UNL     1     -40.303  22.253   1.166  0.00  0.00    -0.452 OA
BRANCH  33  35
ATOM     34  O   UNL     1     -41.430  20.526   0.121  0.00  0.00    -0.250 OA
ATOM     35  C   UNL     1     -40.452  21.252   0.245  0.00  0.00    +0.317 C 
ATOM     36  C   UNL     1     -39.227  21.163  -0.615  0.00  0.00    +0.121 C 
ENDBRANCH  33  35
ENDBRANCH  12  33
TORSDOF 4
ENDMDL
MODEL 9
REMARK VINA RESULT:      -6.1      3.062      7.445
REMARK  Name = 21596360
REMARK  4 active torsions:
REMARK  status: ('A' for Active; 'I' for Inactive)
REMARK    1  A    between atoms: C_8  and  C_27
REMARK    2  A    between atoms: C_12  and  O_33
REMARK    3  A    between atoms: C_18  and  O_31
REMARK    4  A    between atoms: O_33  and  C_35
REMARK                            x       y       z     vdW  Elec       q    Type
REMARK                         _______ _______ _______ _____ _____    ______ ____
ROOT
ATOM      1  O   UNL     1     -35.938  21.603  -2.033  0.00  0.00    -0.356 OA
ATOM      2  O   UNL     1     -32.842  22.891  -0.042  0.00  0.00    -0.288 OA
ATOM      3  O   UNL     1     -36.136  26.661   5.161  0.00  0.00    -0.291 OA
ATOM      4  C   UNL     1     -35.208  21.518  -0.771  0.00  0.00    +0.124 C 
ATOM      5  C   UNL     1     -35.416  20.193  -0.039  0.00  0.00    +0.033 C 
ATOM      6  C   UNL     1     -34.570  21.224  -2.095  0.00  0.00    +0.140 C 
ATOM      7  C   UNL     1     -35.255  22.849  -0.002  0.00  0.00    +0.087 C 
ATOM      8  C   UNL     1     -35.405  19.139  -1.226  0.00  0.00    +0.030 C 
ATOM      9  C   UNL     1     -36.033  22.631   1.348  0.00  0.00    +0.057 C 
ATOM     10  C   UNL     1     -34.381  19.737  -2.238  0.00  0.00    +0.037 C 
ATOM     11  C   UNL     1     -36.767  20.253   0.709  0.00  0.00    +0.046 C 
ATOM     12  C   UNL     1     -37.240  21.689   1.074  0.00  0.00    +0.170 C 
ATOM     13  C   UNL     1     -36.222  23.945   2.201  0.00  0.00    +0.041 C 
ATOM     14  C   UNL     1     -34.233  19.897   0.916  0.00  0.00    +0.003 C 
ATOM     15  C   UNL     1     -33.887  23.338   0.427  0.00  0.00    +0.207 C 
ATOM     16  C   UNL     1     -35.833  23.966  -0.910  0.00  0.00    +0.010 C 
ATOM     17  C   UNL     1     -34.903  24.787   2.198  0.00  0.00    +0.002 C 
ATOM     18  C   UNL     1     -33.841  24.469   1.411  0.00  0.00    +0.161 C 
ATOM     19  C   UNL     1     -37.450  24.758   1.723  0.00  0.00    +0.009 C 
ATOM     20  C   UNL     1     -36.491  23.559   3.657  0.00  0.00    -0.020 C 
ATOM     21  C   UNL     1     -34.852  25.965   3.212  0.00  0.00    +0.074 C 
ATOM     22  C   UNL     1     -36.305  24.388   4.686  0.00  0.00    +0.033 C 
ATOM     23  C   UNL     1     -35.814  25.749   4.398  0.00  0.00    +0.176 C 
ATOM     24  C   UNL     1     -35.231  27.277   2.499  0.00  0.00    +0.012 C 
ATOM     25  C   UNL     1     -33.476  26.159   3.901  0.00  0.00    +0.012 C 
ENDROOT
BRANCH   8  27
ATOM     26  O   UNL     1     -35.664  15.609  -0.113  0.00  0.00    -0.448 OA
ATOM     27  C   UNL     1     -35.226  17.687  -0.850  0.00  0.00    +0.018 C 
ATOM     28  C   UNL     1     -34.045  16.916  -0.960  0.00  0.00    +0.040 C 
ATOM     29  C   UNL     1     -36.183  16.847  -0.328  0.00  0.00    +0.175 C 
ATOM     30  C   UNL     1     -34.363  15.661  -0.500  0.00  0.00    +0.179 C 
ENDBRANCH   8  27
BRANCH  18  31
ATOM     31  O   UNL     1     -32.665  25.187   1.419  0.00  0.00    -0.503 OA
ATOM     32  H   UNL     1     -31.889  24.819   1.046  0.00  0.00    +0.292 HD
ENDBRANCH  18  31
BRANCH  12  33
ATOM     33  O   UNL     1     -38.133  21.584   2.174  0.00  0.00    -0.452 OA
BRANCH  33  35
ATOM     34  O   UNL     1     -40.356  21.052   2.508  0.00  0.00    -0.250 OA
ATOM     35  C   UNL     1     -39.465  21.590   1.864  0.00  0.00    +0.317 C 
ATOM     36  C   UNL     1     -39.692  22.362   0.600  0.00  0.00    +0.121 C 
ENDBRANCH  33  35
ENDBRANCH  12  33
TORSDOF 4
ENDMDL
