MODEL 1
REMARK VINA RESULT:      -6.3      0.000      0.000
REMARK  Name = 196468
REMARK  7 active torsions:
REMARK  status: ('A' for Active; 'I' for Inactive)
REMARK    1  A    between atoms: C_2  and  O_7
REMARK    2  A    between atoms: C_3  and  O_9
REMARK    3  A    between atoms: C_4  and  O_11
REMARK    4  A    between atoms: C_5  and  C_26
REMARK    5  A    between atoms: C_6  and  O_13
REMARK    6  A    between atoms: O_13  and  C_16
REMARK    7  A    between atoms: C_26  and  O_27
REMARK                            x       y       z     vdW  Elec       q    Type
REMARK                         _______ _______ _______ _____ _____    ______ ____
ROOT
ATOM      1  O   UNL     1     -35.586  23.409   3.414  0.00  0.00    -0.316 OA
ATOM      2  C   UNL     1     -37.137  25.814   3.165  0.00  0.00    +0.173 C 
ATOM      3  C   UNL     1     -36.754  25.221   4.521  0.00  0.00    +0.169 C 
ATOM      4  C   UNL     1     -37.095  24.752   2.066  0.00  0.00    +0.210 C 
ATOM      5  C   UNL     1     -35.455  24.418   4.416  0.00  0.00    +0.177 C 
ATOM      6  C   UNL     1     -35.792  23.953   2.112  0.00  0.00    +0.318 C 
ENDROOT
BRANCH   2   7
ATOM      7  O   UNL     1     -38.462  26.338   3.269  0.00  0.00    -0.379 OA
ATOM      8  H   UNL     1     -38.580  26.745   4.142  0.00  0.00    +0.211 HD
ENDBRANCH   2   7
BRANCH   3   9
ATOM      9  O   UNL     1     -36.581  26.276   5.464  0.00  0.00    -0.379 OA
ATOM     10  H   UNL     1     -37.449  26.605   5.745  0.00  0.00    +0.211 HD
ENDBRANCH   3   9
BRANCH   4  11
ATOM     11  O   UNL     1     -37.185  25.386   0.791  0.00  0.00    -0.377 OA
ATOM     12  H   UNL     1     -38.011  25.892   0.739  0.00  0.00    +0.211 HD
ENDBRANCH   4  11
BRANCH   6  13
ATOM     13  O   UNL     1     -35.889  22.897   1.158  0.00  0.00    -0.450 OA
BRANCH  13  16
ATOM     14  O   UNL     1     -32.186  22.367  -0.665  0.00  0.00    -0.421 OA
ATOM     15  O   UNL     1     -32.390  24.487  -1.500  0.00  0.00    -0.244 OA
ATOM     16  C   UNL     1     -34.711  22.691   0.524  0.00  0.00    +0.150 C 
ATOM     17  C   UNL     1     -34.000  21.417   0.674  0.00  0.00    +0.065 C 
ATOM     18  C   UNL     1     -34.174  23.683  -0.191  0.00  0.00    +0.119 C 
ATOM     19  C   UNL     1     -34.488  20.301   1.367  0.00  0.00    -0.016 C 
ATOM     20  C   UNL     1     -32.744  21.301   0.072  0.00  0.00    +0.151 C 
ATOM     21  C   UNL     1     -32.861  23.566  -0.843  0.00  0.00    +0.349 C 
ATOM     22  C   UNL     1     -33.732  19.125   1.456  0.00  0.00    -0.004 C 
ATOM     23  C   UNL     1     -31.978  20.136   0.153  0.00  0.00    +0.038 C 
ATOM     24  C   UNL     1     -35.839  20.244   2.009  0.00  0.00    +0.031 C 
ATOM     25  C   UNL     1     -32.480  19.043   0.852  0.00  0.00    +0.003 C 
ENDBRANCH  13  16
ENDBRANCH   6  13
BRANCH   5  26
ATOM     26  C   UNL     1     -35.115  23.720   5.730  0.00  0.00    +0.169 C 
BRANCH  26  27
ATOM     27  O   UNL     1     -36.070  22.702   5.960  0.00  0.00    -0.379 OA
ATOM     28  H   UNL     1     -35.752  21.869   5.576  0.00  0.00    +0.211 HD
ENDBRANCH  26  27
ENDBRANCH   5  26
TORSDOF 7
ENDMDL
MODEL 2
REMARK VINA RESULT:      -6.3      4.150      6.061
REMARK  Name = 196468
REMARK  7 active torsions:
REMARK  status: ('A' for Active; 'I' for Inactive)
REMARK    1  A    between atoms: C_2  and  O_7
REMARK    2  A    between atoms: C_3  and  O_9
REMARK    3  A    between atoms: C_4  and  O_11
REMARK    4  A    between atoms: C_5  and  C_26
REMARK    5  A    between atoms: C_6  and  O_13
REMARK    6  A    between atoms: O_13  and  C_16
REMARK    7  A    between atoms: C_26  and  O_27
REMARK                            x       y       z     vdW  Elec       q    Type
REMARK                         _______ _______ _______ _____ _____    ______ ____
ROOT
ATOM      1  O   UNL     1     -36.857  23.585   4.628  0.00  0.00    -0.316 OA
ATOM      2  C   UNL     1     -35.536  26.041   3.942  0.00  0.00    +0.173 C 
ATOM      3  C   UNL     1     -34.991  25.085   5.003  0.00  0.00    +0.169 C 
ATOM      4  C   UNL     1     -37.035  25.833   3.728  0.00  0.00    +0.210 C 
ATOM      5  C   UNL     1     -35.433  23.648   4.718  0.00  0.00    +0.177 C 
ATOM      6  C   UNL     1     -37.371  24.353   3.542  0.00  0.00    +0.318 C 
ENDROOT
BRANCH   2   7
ATOM      7  O   UNL     1     -35.300  27.378   4.387  0.00  0.00    -0.379 OA
ATOM      8  H   UNL     1     -34.467  27.412   4.883  0.00  0.00    +0.211 HD
ENDBRANCH   2   7
BRANCH   3   9
ATOM      9  O   UNL     1     -33.567  25.149   5.008  0.00  0.00    -0.379 OA
ATOM     10  H   UNL     1     -33.210  24.436   4.456  0.00  0.00    +0.211 HD
ENDBRANCH   3   9
BRANCH   4  11
ATOM     11  O   UNL     1     -37.449  26.535   2.556  0.00  0.00    -0.377 OA
ATOM     12  H   UNL     1     -36.759  26.467   1.877  0.00  0.00    +0.211 HD
ENDBRANCH   4  11
BRANCH   6  13
ATOM     13  O   UNL     1     -38.792  24.227   3.493  0.00  0.00    -0.450 OA
BRANCH  13  16
ATOM     14  O   UNL     1     -40.101  22.156   0.130  0.00  0.00    -0.421 OA
ATOM     15  O   UNL     1     -38.334  20.733   0.424  0.00  0.00    -0.244 OA
ATOM     16  C   UNL     1     -39.196  23.597   2.365  0.00  0.00    +0.150 C 
ATOM     17  C   UNL     1     -40.382  24.061   1.639  0.00  0.00    +0.065 C 
ATOM     18  C   UNL     1     -38.535  22.511   1.955  0.00  0.00    +0.119 C 
ATOM     19  C   UNL     1     -41.123  25.207   1.959  0.00  0.00    -0.016 C 
ATOM     20  C   UNL     1     -40.803  23.311   0.537  0.00  0.00    +0.151 C 
ATOM     21  C   UNL     1     -38.959  21.723   0.787  0.00  0.00    +0.349 C 
ATOM     22  C   UNL     1     -42.245  25.570   1.203  0.00  0.00    -0.004 C 
ATOM     23  C   UNL     1     -41.919  23.659  -0.225  0.00  0.00    +0.038 C 
ATOM     24  C   UNL     1     -40.765  26.148   3.066  0.00  0.00    +0.031 C 
ATOM     25  C   UNL     1     -42.644  24.796   0.116  0.00  0.00    +0.003 C 
ENDBRANCH  13  16
ENDBRANCH   6  13
BRANCH   5  26
ATOM     26  C   UNL     1     -34.999  22.694   5.827  0.00  0.00    +0.169 C 
BRANCH  26  27
ATOM     27  O   UNL     1     -36.123  21.937   6.235  0.00  0.00    -0.379 OA
ATOM     28  H   UNL     1     -36.930  22.459   6.102  0.00  0.00    +0.211 HD
ENDBRANCH  26  27
ENDBRANCH   5  26
TORSDOF 7
ENDMDL
MODEL 3
REMARK VINA RESULT:      -6.2      2.692      4.925
REMARK  Name = 196468
REMARK  7 active torsions:
REMARK  status: ('A' for Active; 'I' for Inactive)
REMARK    1  A    between atoms: C_2  and  O_7
REMARK    2  A    between atoms: C_3  and  O_9
REMARK    3  A    between atoms: C_4  and  O_11
REMARK    4  A    between atoms: C_5  and  C_26
REMARK    5  A    between atoms: C_6  and  O_13
REMARK    6  A    between atoms: O_13  and  C_16
REMARK    7  A    between atoms: C_26  and  O_27
REMARK                            x       y       z     vdW  Elec       q    Type
REMARK                         _______ _______ _______ _____ _____    ______ ____
ROOT
ATOM      1  O   UNL     1     -37.646  24.228   2.539  0.00  0.00    -0.316 OA
ATOM      2  C   UNL     1     -39.318  22.020   1.778  0.00  0.00    +0.173 C 
ATOM      3  C   UNL     1     -39.886  23.393   2.137  0.00  0.00    +0.169 C 
ATOM      4  C   UNL     1     -37.928  21.821   2.383  0.00  0.00    +0.210 C 
ATOM      5  C   UNL     1     -38.865  24.496   1.845  0.00  0.00    +0.177 C 
ATOM      6  C   UNL     1     -37.023  23.021   2.105  0.00  0.00    +0.318 C 
ENDROOT
BRANCH   2   7
ATOM      7  O   UNL     1     -40.207  21.026   2.292  0.00  0.00    -0.379 OA
ATOM      8  H   UNL     1     -40.905  20.849   1.642  0.00  0.00    +0.211 HD
ENDBRANCH   2   7
BRANCH   3   9
ATOM      9  O   UNL     1     -41.066  23.629   1.373  0.00  0.00    -0.379 OA
ATOM     10  H   UNL     1     -41.056  23.070   0.581  0.00  0.00    +0.211 HD
ENDBRANCH   3   9
BRANCH   4  11
ATOM     11  O   UNL     1     -37.323  20.662   1.810  0.00  0.00    -0.377 OA
ATOM     12  H   UNL     1     -36.469  20.498   2.238  0.00  0.00    +0.211 HD
ENDBRANCH   4  11
BRANCH   6  13
ATOM     13  O   UNL     1     -35.802  22.825   2.817  0.00  0.00    -0.450 OA
BRANCH  13  16
ATOM     14  O   UNL     1     -33.171  25.910   1.878  0.00  0.00    -0.421 OA
ATOM     15  O   UNL     1     -33.127  25.104  -0.263  0.00  0.00    -0.244 OA
ATOM     16  C   UNL     1     -34.903  23.798   2.539  0.00  0.00    +0.150 C 
ATOM     17  C   UNL     1     -34.482  24.740   3.582  0.00  0.00    +0.065 C 
ATOM     18  C   UNL     1     -34.450  23.927   1.289  0.00  0.00    +0.119 C 
ATOM     19  C   UNL     1     -34.864  24.673   4.928  0.00  0.00    -0.016 C 
ATOM     20  C   UNL     1     -33.625  25.780   3.208  0.00  0.00    +0.151 C 
ATOM     21  C   UNL     1     -33.535  25.008   0.889  0.00  0.00    +0.349 C 
ATOM     22  C   UNL     1     -34.409  25.622   5.852  0.00  0.00    -0.004 C 
ATOM     23  C   UNL     1     -33.163  26.734   4.116  0.00  0.00    +0.038 C 
ATOM     24  C   UNL     1     -35.722  23.586   5.497  0.00  0.00    +0.031 C 
ATOM     25  C   UNL     1     -33.562  26.652   5.446  0.00  0.00    +0.003 C 
ENDBRANCH  13  16
ENDBRANCH   6  13
BRANCH   5  26
ATOM     26  C   UNL     1     -39.364  25.863   2.303  0.00  0.00    +0.169 C 
BRANCH  26  27
ATOM     27  O   UNL     1     -38.551  26.304   3.373  0.00  0.00    -0.379 OA
ATOM     28  H   UNL     1     -37.628  26.061   3.199  0.00  0.00    +0.211 HD
ENDBRANCH  26  27
ENDBRANCH   5  26
TORSDOF 7
ENDMDL
MODEL 4
REMARK VINA RESULT:      -6.2      2.430      6.489
REMARK  Name = 196468
REMARK  7 active torsions:
REMARK  status: ('A' for Active; 'I' for Inactive)
REMARK    1  A    between atoms: C_2  and  O_7
REMARK    2  A    between atoms: C_3  and  O_9
REMARK    3  A    between atoms: C_4  and  O_11
REMARK    4  A    between atoms: C_5  and  C_26
REMARK    5  A    between atoms: C_6  and  O_13
REMARK    6  A    between atoms: O_13  and  C_16
REMARK    7  A    between atoms: C_26  and  O_27
REMARK                            x       y       z     vdW  Elec       q    Type
REMARK                         _______ _______ _______ _____ _____    ______ ____
ROOT
ATOM      1  O   UNL     1     -34.353  21.062   1.338  0.00  0.00    -0.316 OA
ATOM      2  C   UNL     1     -36.500  19.184   0.996  0.00  0.00    +0.173 C 
ATOM      3  C   UNL     1     -35.108  18.955   0.407  0.00  0.00    +0.169 C 
ATOM      4  C   UNL     1     -36.748  20.668   1.266  0.00  0.00    +0.210 C 
ATOM      5  C   UNL     1     -34.041  19.671   1.239  0.00  0.00    +0.177 C 
ATOM      6  C   UNL     1     -35.580  21.300   2.024  0.00  0.00    +0.318 C 
ENDROOT
BRANCH   2   7
ATOM      7  O   UNL     1     -37.463  18.704   0.056  0.00  0.00    -0.379 OA
ATOM      8  H   UNL     1     -38.181  19.351  -0.030  0.00  0.00    +0.211 HD
ENDBRANCH   2   7
BRANCH   3   9
ATOM      9  O   UNL     1     -34.829  17.557   0.387  0.00  0.00    -0.379 OA
ATOM     10  H   UNL     1     -34.287  17.346  -0.389  0.00  0.00    +0.211 HD
ENDBRANCH   3   9
BRANCH   4  11
ATOM     11  O   UNL     1     -37.926  20.815   2.059  0.00  0.00    -0.377 OA
ATOM     12  H   UNL     1     -38.628  20.249   1.702  0.00  0.00    +0.211 HD
ENDBRANCH   4  11
BRANCH   6  13
ATOM     13  O   UNL     1     -35.819  22.704   2.111  0.00  0.00    -0.450 OA
BRANCH  13  16
ATOM     14  O   UNL     1     -34.862  24.040   5.933  0.00  0.00    -0.421 OA
ATOM     15  O   UNL     1     -35.862  22.152   6.751  0.00  0.00    -0.244 OA
ATOM     16  C   UNL     1     -35.552  23.178   3.350  0.00  0.00    +0.150 C 
ATOM     17  C   UNL     1     -34.856  24.457   3.522  0.00  0.00    +0.065 C 
ATOM     18  C   UNL     1     -35.878  22.438   4.413  0.00  0.00    +0.119 C 
ATOM     19  C   UNL     1     -34.505  25.327   2.481  0.00  0.00    -0.016 C 
ATOM     20  C   UNL     1     -34.525  24.845   4.824  0.00  0.00    +0.151 C 
ATOM     21  C   UNL     1     -35.549  22.844   5.788  0.00  0.00    +0.349 C 
ATOM     22  C   UNL     1     -33.839  26.531   2.747  0.00  0.00    -0.004 C 
ATOM     23  C   UNL     1     -33.861  26.041   5.104  0.00  0.00    +0.038 C 
ATOM     24  C   UNL     1     -34.845  25.087   1.044  0.00  0.00    +0.031 C 
ATOM     25  C   UNL     1     -33.515  26.885   4.054  0.00  0.00    +0.003 C 
ENDBRANCH  13  16
ENDBRANCH   6  13
BRANCH   5  26
ATOM     26  C   UNL     1     -32.658  19.554   0.605  0.00  0.00    +0.169 C 
BRANCH  26  27
ATOM     27  O   UNL     1     -32.007  18.422   1.151  0.00  0.00    -0.379 OA
ATOM     28  H   UNL     1     -31.978  18.500   2.117  0.00  0.00    +0.211 HD
ENDBRANCH  26  27
ENDBRANCH   5  26
TORSDOF 7
ENDMDL
MODEL 5
REMARK VINA RESULT:      -6.0      2.512      4.502
REMARK  Name = 196468
REMARK  7 active torsions:
REMARK  status: ('A' for Active; 'I' for Inactive)
REMARK    1  A    between atoms: C_2  and  O_7
REMARK    2  A    between atoms: C_3  and  O_9
REMARK    3  A    between atoms: C_4  and  O_11
REMARK    4  A    between atoms: C_5  and  C_26
REMARK    5  A    between atoms: C_6  and  O_13
REMARK    6  A    between atoms: O_13  and  C_16
REMARK    7  A    between atoms: C_26  and  O_27
REMARK                            x       y       z     vdW  Elec       q    Type
REMARK                         _______ _______ _______ _____ _____    ______ ____
ROOT
ATOM      1  O   UNL     1     -36.107  24.197   2.278  0.00  0.00    -0.316 OA
ATOM      2  C   UNL     1     -35.883  24.525   5.123  0.00  0.00    +0.173 C 
ATOM      3  C   UNL     1     -35.683  25.683   4.145  0.00  0.00    +0.169 C 
ATOM      4  C   UNL     1     -35.661  23.178   4.436  0.00  0.00    +0.210 C 
ATOM      5  C   UNL     1     -36.476  25.450   2.857  0.00  0.00    +0.177 C 
ATOM      6  C   UNL     1     -36.429  23.090   3.117  0.00  0.00    +0.318 C 
ENDROOT
BRANCH   2   7
ATOM      7  O   UNL     1     -34.943  24.677   6.188  0.00  0.00    -0.379 OA
ATOM      8  H   UNL     1     -34.161  25.152   5.863  0.00  0.00    +0.211 HD
ENDBRANCH   2   7
BRANCH   3   9
ATOM      9  O   UNL     1     -36.121  26.895   4.755  0.00  0.00    -0.379 OA
ATOM     10  H   UNL     1     -36.898  27.232   4.283  0.00  0.00    +0.211 HD
ENDBRANCH   3   9
BRANCH   4  11
ATOM     11  O   UNL     1     -36.119  22.129   5.290  0.00  0.00    -0.377 OA
ATOM     12  H   UNL     1     -36.558  22.512   6.065  0.00  0.00    +0.211 HD
ENDBRANCH   4  11
BRANCH   6  13
ATOM     13  O   UNL     1     -36.060  21.872   2.472  0.00  0.00    -0.450 OA
BRANCH  13  16
ATOM     14  O   UNL     1     -39.260  20.349   0.291  0.00  0.00    -0.421 OA
ATOM     15  O   UNL     1     -40.585  21.914   1.306  0.00  0.00    -0.244 OA
ATOM     16  C   UNL     1     -37.102  21.330   1.800  0.00  0.00    +0.150 C 
ATOM     17  C   UNL     1     -36.892  20.197   0.893  0.00  0.00    +0.065 C 
ATOM     18  C   UNL     1     -38.314  21.878   1.927  0.00  0.00    +0.119 C 
ATOM     19  C   UNL     1     -35.676  19.525   0.715  0.00  0.00    -0.016 C 
ATOM     20  C   UNL     1     -37.991  19.745   0.156  0.00  0.00    +0.151 C 
ATOM     21  C   UNL     1     -39.480  21.400   1.169  0.00  0.00    +0.349 C 
ATOM     22  C   UNL     1     -35.575  18.450  -0.178  0.00  0.00    -0.004 C 
ATOM     23  C   UNL     1     -37.906  18.675  -0.738  0.00  0.00    +0.038 C 
ATOM     24  C   UNL     1     -34.428  19.846   1.475  0.00  0.00    +0.031 C 
ATOM     25  C   UNL     1     -36.686  18.028  -0.904  0.00  0.00    +0.003 C 
ENDBRANCH  13  16
ENDBRANCH   6  13
BRANCH   5  26
ATOM     26  C   UNL     1     -36.200  26.535   1.820  0.00  0.00    +0.169 C 
BRANCH  26  27
ATOM     27  O   UNL     1     -37.092  27.610   2.045  0.00  0.00    -0.379 OA
ATOM     28  H   UNL     1     -38.005  27.284   2.017  0.00  0.00    +0.211 HD
ENDBRANCH  26  27
ENDBRANCH   5  26
TORSDOF 7
ENDMDL
MODEL 6
REMARK VINA RESULT:      -5.8      3.348      5.509
REMARK  Name = 196468
REMARK  7 active torsions:
REMARK  status: ('A' for Active; 'I' for Inactive)
REMARK    1  A    between atoms: C_2  and  O_7
REMARK    2  A    between atoms: C_3  and  O_9
REMARK    3  A    between atoms: C_4  and  O_11
REMARK    4  A    between atoms: C_5  and  C_26
REMARK    5  A    between atoms: C_6  and  O_13
REMARK    6  A    between atoms: O_13  and  C_16
REMARK    7  A    between atoms: C_26  and  O_27
REMARK                            x       y       z     vdW  Elec       q    Type
REMARK                         _______ _______ _______ _____ _____    ______ ____
ROOT
ATOM      1  O   UNL     1     -38.499  25.968   0.718  0.00  0.00    -0.316 OA
ATOM      2  C   UNL     1     -40.816  26.197   2.399  0.00  0.00    +0.173 C 
ATOM      3  C   UNL     1     -40.706  26.912   1.052  0.00  0.00    +0.169 C 
ATOM      4  C   UNL     1     -39.436  25.849   2.954  0.00  0.00    +0.210 C 
ATOM      5  C   UNL     1     -39.777  26.147   0.105  0.00  0.00    +0.177 C 
ATOM      6  C   UNL     1     -38.564  25.170   1.898  0.00  0.00    +0.318 C 
ENDROOT
BRANCH   2   7
ATOM      7  O   UNL     1     -41.490  27.069   3.308  0.00  0.00    -0.379 OA
ATOM      8  H   UNL     1     -41.589  26.627   4.166  0.00  0.00    +0.211 HD
ENDBRANCH   2   7
BRANCH   3   9
ATOM      9  O   UNL     1     -42.000  27.010   0.463  0.00  0.00    -0.379 OA
ATOM     10  H   UNL     1     -41.951  26.756  -0.471  0.00  0.00    +0.211 HD
ENDBRANCH   3   9
BRANCH   4  11
ATOM     11  O   UNL     1     -39.580  24.953   4.057  0.00  0.00    -0.377 OA
ATOM     12  H   UNL     1     -39.616  24.041   3.729  0.00  0.00    +0.211 HD
ENDBRANCH   4  11
BRANCH   6  13
ATOM     13  O   UNL     1     -37.256  25.008   2.444  0.00  0.00    -0.450 OA
BRANCH  13  16
ATOM     14  O   UNL     1     -36.127  21.015   2.754  0.00  0.00    -0.421 OA
ATOM     15  O   UNL     1     -37.079  20.676   0.702  0.00  0.00    -0.244 OA
ATOM     16  C   UNL     1     -36.933  23.702   2.583  0.00  0.00    +0.150 C 
ATOM     17  C   UNL     1     -36.236  23.232   3.785  0.00  0.00    +0.065 C 
ATOM     18  C   UNL     1     -37.205  22.855   1.586  0.00  0.00    +0.119 C 
ATOM     19  C   UNL     1     -35.938  24.024   4.902  0.00  0.00    -0.016 C 
ATOM     20  C   UNL     1     -35.846  21.890   3.826  0.00  0.00    +0.151 C 
ATOM     21  C   UNL     1     -36.815  21.437   1.626  0.00  0.00    +0.349 C 
ATOM     22  C   UNL     1     -35.266  23.483   6.005  0.00  0.00    -0.004 C 
ATOM     23  C   UNL     1     -35.175  21.337   4.918  0.00  0.00    +0.038 C 
ATOM     24  C   UNL     1     -36.344  25.458   5.038  0.00  0.00    +0.031 C 
ATOM     25  C   UNL     1     -34.883  22.144   6.012  0.00  0.00    +0.003 C 
ENDBRANCH  13  16
ENDBRANCH   6  13
BRANCH   5  26
ATOM     26  C   UNL     1     -39.558  26.902  -1.203  0.00  0.00    +0.169 C 
BRANCH  26  27
ATOM     27  O   UNL     1     -39.670  28.289  -0.947  0.00  0.00    -0.379 OA
ATOM     28  H   UNL     1     -39.310  28.485  -0.068  0.00  0.00    +0.211 HD
ENDBRANCH  26  27
ENDBRANCH   5  26
TORSDOF 7
ENDMDL
MODEL 7
REMARK VINA RESULT:      -5.8      2.471      6.540
REMARK  Name = 196468
REMARK  7 active torsions:
REMARK  status: ('A' for Active; 'I' for Inactive)
REMARK    1  A    between atoms: C_2  and  O_7
REMARK    2  A    between atoms: C_3  and  O_9
REMARK    3  A    between atoms: C_4  and  O_11
REMARK    4  A    between atoms: C_5  and  C_26
REMARK    5  A    between atoms: C_6  and  O_13
REMARK    6  A    between atoms: O_13  and  C_16
REMARK    7  A    between atoms: C_26  and  O_27
REMARK                            x       y       z     vdW  Elec       q    Type
REMARK                         _______ _______ _______ _____ _____    ______ ____
ROOT
ATOM      1  O   UNL     1     -35.237  23.608   1.498  0.00  0.00    -0.316 OA
ATOM      2  C   UNL     1     -35.627  21.049   2.744  0.00  0.00    +0.173 C 
ATOM      3  C   UNL     1     -35.185  21.194   1.287  0.00  0.00    +0.169 C 
ATOM      4  C   UNL     1     -36.333  22.313   3.235  0.00  0.00    +0.210 C 
ATOM      5  C   UNL     1     -34.429  22.508   1.076  0.00  0.00    +0.177 C 
ATOM      6  C   UNL     1     -35.531  23.569   2.893  0.00  0.00    +0.318 C 
ENDROOT
BRANCH   2   7
ATOM      7  O   UNL     1     -36.525  19.941   2.826  0.00  0.00    -0.379 OA
ATOM      8  H   UNL     1     -36.062  19.178   3.206  0.00  0.00    +0.211 HD
ENDBRANCH   2   7
BRANCH   3   9
ATOM      9  O   UNL     1     -34.338  20.102   0.941  0.00  0.00    -0.379 OA
ATOM     10  H   UNL     1     -34.880  19.332   0.708  0.00  0.00    +0.211 HD
ENDBRANCH   3   9
BRANCH   4  11
ATOM     11  O   UNL     1     -36.483  22.251   4.653  0.00  0.00    -0.377 OA
ATOM     12  H   UNL     1     -36.698  23.133   4.994  0.00  0.00    +0.211 HD
ENDBRANCH   4  11
BRANCH   6  13
ATOM     13  O   UNL     1     -36.316  24.704   3.252  0.00  0.00    -0.450 OA
BRANCH  13  16
ATOM     14  O   UNL     1     -33.784  27.871   4.190  0.00  0.00    -0.421 OA
ATOM     15  O   UNL     1     -32.904  26.563   5.848  0.00  0.00    -0.244 OA
ATOM     16  C   UNL     1     -35.539  25.762   3.583  0.00  0.00    +0.150 C 
ATOM     17  C   UNL     1     -35.628  27.015   2.827  0.00  0.00    +0.065 C 
ATOM     18  C   UNL     1     -34.647  25.630   4.569  0.00  0.00    +0.119 C 
ATOM     19  C   UNL     1     -36.550  27.273   1.804  0.00  0.00    -0.016 C 
ATOM     20  C   UNL     1     -34.731  28.036   3.157  0.00  0.00    +0.151 C 
ATOM     21  C   UNL     1     -33.710  26.703   4.935  0.00  0.00    +0.349 C 
ATOM     22  C   UNL     1     -36.557  28.505   1.138  0.00  0.00    -0.004 C 
ATOM     23  C   UNL     1     -34.725  29.269   2.501  0.00  0.00    +0.038 C 
ATOM     24  C   UNL     1     -37.613  26.309   1.379  0.00  0.00    +0.031 C 
ATOM     25  C   UNL     1     -35.645  29.500   1.484  0.00  0.00    +0.003 C 
ENDBRANCH  13  16
ENDBRANCH   6  13
BRANCH   5  26
ATOM     26  C   UNL     1     -34.080  22.729  -0.393  0.00  0.00    +0.169 C 
BRANCH  26  27
ATOM     27  O   UNL     1     -32.834  22.113  -0.657  0.00  0.00    -0.379 OA
ATOM     28  H   UNL     1     -32.372  22.604  -1.355  0.00  0.00    +0.211 HD
ENDBRANCH  26  27
ENDBRANCH   5  26
TORSDOF 7
ENDMDL
MODEL 8
REMARK VINA RESULT:      -5.7      2.636      5.674
REMARK  Name = 196468
REMARK  7 active torsions:
REMARK  status: ('A' for Active; 'I' for Inactive)
REMARK    1  A    between atoms: C_2  and  O_7
REMARK    2  A    between atoms: C_3  and  O_9
REMARK    3  A    between atoms: C_4  and  O_11
REMARK    4  A    between atoms: C_5  and  C_26
REMARK    5  A    between atoms: C_6  and  O_13
REMARK    6  A    between atoms: O_13  and  C_16
REMARK    7  A    between atoms: C_26  and  O_27
REMARK                            x       y       z     vdW  Elec       q    Type
REMARK                         _______ _______ _______ _____ _____    ______ ____
ROOT
ATOM      1  O   UNL     1     -37.263  21.936   1.741  0.00  0.00    -0.316 OA
ATOM      2  C   UNL     1     -36.934  19.467   0.311  0.00  0.00    +0.173 C 
ATOM      3  C   UNL     1     -38.307  20.004   0.715  0.00  0.00    +0.169 C 
ATOM      4  C   UNL     1     -35.830  20.055   1.190  0.00  0.00    +0.210 C 
ATOM      5  C   UNL     1     -38.282  21.531   0.825  0.00  0.00    +0.177 C 
ATOM      6  C   UNL     1     -35.956  21.575   1.300  0.00  0.00    +0.318 C 
ENDROOT
BRANCH   2   7
ATOM      7  O   UNL     1     -36.954  18.046   0.460  0.00  0.00    -0.379 OA
ATOM      8  H   UNL     1     -37.863  17.751   0.624  0.00  0.00    +0.211 HD
ENDBRANCH   2   7
BRANCH   3   9
ATOM      9  O   UNL     1     -39.270  19.618  -0.263  0.00  0.00    -0.379 OA
ATOM     10  H   UNL     1     -38.891  19.723  -1.149  0.00  0.00    +0.211 HD
ENDBRANCH   3   9
BRANCH   4  11
ATOM     11  O   UNL     1     -34.557  19.753   0.618  0.00  0.00    -0.377 OA
ATOM     12  H   UNL     1     -33.890  20.360   0.975  0.00  0.00    +0.211 HD
ENDBRANCH   4  11
BRANCH   6  13
ATOM     13  O   UNL     1     -34.986  22.029   2.243  0.00  0.00    -0.450 OA
BRANCH  13  16
ATOM     14  O   UNL     1     -34.660  26.169   1.977  0.00  0.00    -0.421 OA
ATOM     15  O   UNL     1     -34.118  25.898  -0.229  0.00  0.00    -0.244 OA
ATOM     16  C   UNL     1     -34.828  23.372   2.185  0.00  0.00    +0.150 C 
ATOM     17  C   UNL     1     -35.058  24.200   3.374  0.00  0.00    +0.065 C 
ATOM     18  C   UNL     1     -34.518  23.940   1.016  0.00  0.00    +0.119 C 
ATOM     19  C   UNL     1     -35.347  23.706   4.653  0.00  0.00    -0.016 C 
ATOM     20  C   UNL     1     -34.971  25.587   3.225  0.00  0.00    +0.151 C 
ATOM     21  C   UNL     1     -34.409  25.398   0.852  0.00  0.00    +0.349 C 
ATOM     22  C   UNL     1     -35.552  24.579   5.729  0.00  0.00    -0.004 C 
ATOM     23  C   UNL     1     -35.173  26.469   4.288  0.00  0.00    +0.038 C 
ATOM     24  C   UNL     1     -35.410  22.249   4.989  0.00  0.00    +0.031 C 
ATOM     25  C   UNL     1     -35.467  25.957   5.547  0.00  0.00    +0.003 C 
ENDBRANCH  13  16
ENDBRANCH   6  13
BRANCH   5  26
ATOM     26  C   UNL     1     -39.609  22.081   1.340  0.00  0.00    +0.169 C 
BRANCH  26  27
ATOM     27  O   UNL     1     -40.230  21.089   2.135  0.00  0.00    -0.379 OA
ATOM     28  H   UNL     1     -41.072  20.830   1.730  0.00  0.00    +0.211 HD
ENDBRANCH  26  27
ENDBRANCH   5  26
TORSDOF 7
ENDMDL
MODEL 9
REMARK VINA RESULT:      -5.7      1.856      2.922
REMARK  Name = 196468
REMARK  7 active torsions:
REMARK  status: ('A' for Active; 'I' for Inactive)
REMARK    1  A    between atoms: C_2  and  O_7
REMARK    2  A    between atoms: C_3  and  O_9
REMARK    3  A    between atoms: C_4  and  O_11
REMARK    4  A    between atoms: C_5  and  C_26
REMARK    5  A    between atoms: C_6  and  O_13
REMARK    6  A    between atoms: O_13  and  C_16
REMARK    7  A    between atoms: C_26  and  O_27
REMARK                            x       y       z     vdW  Elec       q    Type
REMARK                         _______ _______ _______ _____ _____    ______ ____
ROOT
ATOM      1  O   UNL     1     -35.081  22.220   2.574  0.00  0.00    -0.316 OA
ATOM      2  C   UNL     1     -37.825  21.796   1.839  0.00  0.00    +0.173 C 
ATOM      3  C   UNL     1     -37.421  22.621   3.061  0.00  0.00    +0.169 C 
ATOM      4  C   UNL     1     -36.712  20.831   1.432  0.00  0.00    +0.210 C 
ATOM      5  C   UNL     1     -36.036  23.242   2.864  0.00  0.00    +0.177 C 
ATOM      6  C   UNL     1     -35.360  21.541   1.352  0.00  0.00    +0.318 C 
ENDROOT
BRANCH   2   7
ATOM      7  O   UNL     1     -38.999  21.054   2.175  0.00  0.00    -0.379 OA
ATOM      8  H   UNL     1     -39.276  21.278   3.077  0.00  0.00    +0.211 HD
ENDBRANCH   2   7
BRANCH   3   9
ATOM      9  O   UNL     1     -38.377  23.658   3.266  0.00  0.00    -0.379 OA
ATOM     10  H   UNL     1     -39.230  23.391   2.890  0.00  0.00    +0.211 HD
ENDBRANCH   3   9
BRANCH   4  11
ATOM     11  O   UNL     1     -37.005  20.284   0.146  0.00  0.00    -0.377 OA
ATOM     12  H   UNL     1     -36.817  19.333   0.149  0.00  0.00    +0.211 HD
ENDBRANCH   4  11
BRANCH   6  13
ATOM     13  O   UNL     1     -34.358  20.554   1.110  0.00  0.00    -0.450 OA
BRANCH  13  16
ATOM     14  O   UNL     1     -31.240  22.167  -1.124  0.00  0.00    -0.421 OA
ATOM     15  O   UNL     1     -32.575  23.982  -1.519  0.00  0.00    -0.244 OA
ATOM     16  C   UNL     1     -33.358  21.041   0.339  0.00  0.00    +0.150 C 
ATOM     17  C   UNL     1     -32.111  20.286   0.177  0.00  0.00    +0.065 C 
ATOM     18  C   UNL     1     -33.496  22.244  -0.223  0.00  0.00    +0.119 C 
ATOM     19  C   UNL     1     -31.876  19.003   0.689  0.00  0.00    -0.016 C 
ATOM     20  C   UNL     1     -31.080  20.886  -0.553  0.00  0.00    +0.151 C 
ATOM     21  C   UNL     1     -32.425  22.878  -1.006  0.00  0.00    +0.349 C 
ATOM     22  C   UNL     1     -30.647  18.362   0.480  0.00  0.00    -0.004 C 
ATOM     23  C   UNL     1     -29.851  20.260  -0.768  0.00  0.00    +0.038 C 
ATOM     24  C   UNL     1     -32.897  18.203   1.434  0.00  0.00    +0.031 C 
ATOM     25  C   UNL     1     -29.637  18.990  -0.244  0.00  0.00    +0.003 C 
ENDBRANCH  13  16
ENDBRANCH   6  13
BRANCH   5  26
ATOM     26  C   UNL     1     -35.562  23.974   4.116  0.00  0.00    +0.169 C 
BRANCH  26  27
ATOM     27  O   UNL     1     -36.287  23.481   5.227  0.00  0.00    -0.379 OA
ATOM     28  H   UNL     1     -37.237  23.599   5.071  0.00  0.00    +0.211 HD
ENDBRANCH  26  27
ENDBRANCH   5  26
TORSDOF 7
ENDMDL
