MODEL 1
REMARK VINA RESULT:      -6.6      0.000      0.000
REMARK  Name = 51050290
REMARK  9 active torsions:
REMARK  status: ('A' for Active; 'I' for Inactive)
REMARK    1  A    between atoms: C_1  and  C_12
REMARK    2  A    between atoms: C_2  and  N_29
REMARK    3  A    between atoms: C_13  and  C_18
REMARK    4  A    between atoms: C_18  and  C_19
REMARK    5  A    between atoms: C_19  and  C_20
REMARK    6  A    between atoms: C_20  and  N_21
REMARK    7  A    between atoms: N_21  and  C_24
REMARK    8  A    between atoms: N_29  and  C_32
REMARK    9  A    between atoms: C_37  and  C_43
REMARK                            x       y       z     vdW  Elec       q    Type
REMARK                         _______ _______ _______ _____ _____    ______ ____
ROOT
ATOM      1  C   UNL     1     -33.390  21.020   0.175  0.00  0.00    +0.048 C 
ATOM      2  C   UNL     1     -34.197  20.219   0.982  0.00  0.00    +0.051 C 
ATOM      3  C   UNL     1     -32.087  20.621  -0.123  0.00  0.00    +0.004 C 
ATOM      4  C   UNL     1     -33.701  19.018   1.491  0.00  0.00    +0.015 C 
ATOM      5  C   UNL     1     -31.591  19.421   0.386  0.00  0.00    +0.000 C 
ATOM      6  C   UNL     1     -32.398  18.619   1.193  0.00  0.00    +0.001 C 
ENDROOT
BRANCH   1  12
ATOM      7  O   UNL     1     -33.854  23.314   0.501  0.00  0.00    -0.429 OA
ATOM      8  O   UNL     1     -35.800  27.140  -2.597  0.00  0.00    -0.268 OA
ATOM      9  N   UNL     1     -35.168  24.926  -2.339  0.00  0.00    -0.288 N 
ATOM     10  N   UNL     1     -34.475  25.635   0.358  0.00  0.00    -0.369 NA
ATOM     11  C   UNL     1     -34.656  24.007  -1.458  0.00  0.00    +0.188 C 
ATOM     12  C   UNL     1     -33.870  22.261  -0.363  0.00  0.00    +0.147 C 
ATOM     13  C   UNL     1     -34.958  26.527  -0.460  0.00  0.00    +0.165 C 
ATOM     14  C   UNL     1     -34.341  24.399  -0.177  0.00  0.00    +0.280 C 
ATOM     15  C   UNL     1     -34.362  22.641  -1.592  0.00  0.00    +0.041 C 
ATOM     16  C   UNL     1     -35.353  26.231  -1.912  0.00  0.00    +0.272 C 
ATOM     17  H   UNL     1     -35.398  24.663  -3.259  0.00  0.00    +0.151 HD
BRANCH  13  18
ATOM     18  C   UNL     1     -35.154  27.940   0.017  0.00  0.00    +0.066 C 
BRANCH  18  19
ATOM     19  C   UNL     1     -34.276  28.224   1.228  0.00  0.00    +0.034 C 
BRANCH  19  20
ATOM     20  C   UNL     1     -35.057  28.608   2.483  0.00  0.00    +0.129 C 
BRANCH  20  21
ATOM     21  N   UNL     1     -34.493  27.924   3.648  0.00  0.00    -0.240 NA
BRANCH  21  24
ATOM     22  N   UNL     1     -34.503  25.535   3.390  0.00  0.00    -0.370 N 
ATOM     23  N   UNL     1     -35.991  26.563   4.777  0.00  0.00    -0.370 N 
ATOM     24  C   UNL     1     -34.945  26.735   3.902  0.00  0.00    +0.189 C 
ATOM     25  H   UNL     1     -33.756  25.518   2.750  0.00  0.00    +0.159 HD
ATOM     26  H   UNL     1     -34.934  24.694   3.665  0.00  0.00    +0.159 HD
ATOM     27  H   UNL     1     -36.401  27.345   5.214  0.00  0.00    +0.159 HD
ATOM     28  H   UNL     1     -36.332  25.659   4.967  0.00  0.00    +0.159 HD
ENDBRANCH  21  24
ENDBRANCH  20  21
ENDBRANCH  19  20
ENDBRANCH  18  19
ENDBRANCH  13  18
ENDBRANCH   1  12
BRANCH   2  29
ATOM     29  N   UNL     1     -35.521  20.598   1.302  0.00  0.00    -0.312 N 
ATOM     30  H   UNL     1     -36.208  20.051   0.857  0.00  0.00    +0.152 HD
BRANCH  29  32
ATOM     31  N   UNL     1     -37.036  23.571   3.832  0.00  0.00    -0.401 NA
ATOM     32  C   UNL     1     -36.047  21.604   2.131  0.00  0.00    +0.053 C 
ATOM     33  C   UNL     1     -37.041  22.484   1.681  0.00  0.00    +0.039 C 
ATOM     34  C   UNL     1     -37.513  23.466   2.578  0.00  0.00    +0.115 C 
ATOM     35  C   UNL     1     -35.554  21.711   3.423  0.00  0.00    +0.051 C 
ATOM     36  C   UNL     1     -37.563  22.403   0.379  0.00  0.00    +0.003 C 
ATOM     37  C   UNL     1     -36.077  22.703   4.227  0.00  0.00    +0.185 C 
ATOM     38  C   UNL     1     -38.501  24.341   2.132  0.00  0.00    +0.085 C 
ATOM     39  C   UNL     1     -38.549  23.290  -0.041  0.00  0.00    -0.004 C 
ATOM     40  C   UNL     1     -39.018  24.260   0.836  0.00  0.00    -0.019 C 
BRANCH  37  43
ATOM     41  O   UNL     1     -34.940  23.865   5.931  0.00  0.00    -0.268 OA
ATOM     42  N   UNL     1     -35.928  21.879   6.515  0.00  0.00    -0.323 N 
ATOM     43  C   UNL     1     -35.602  22.868   5.590  0.00  0.00    +0.273 C 
ATOM     44  H   UNL     1     -35.623  21.959   7.447  0.00  0.00    +0.145 HD
ATOM     45  H   UNL     1     -36.463  21.101   6.237  0.00  0.00    +0.145 HD
ENDBRANCH  37  43
ENDBRANCH  29  32
ENDBRANCH   2  29
TORSDOF 9
ENDMDL
MODEL 2
REMARK VINA RESULT:      -6.3      4.432      6.804
REMARK  Name = 51050290
REMARK  9 active torsions:
REMARK  status: ('A' for Active; 'I' for Inactive)
REMARK    1  A    between atoms: C_1  and  C_12
REMARK    2  A    between atoms: C_2  and  N_29
REMARK    3  A    between atoms: C_13  and  C_18
REMARK    4  A    between atoms: C_18  and  C_19
REMARK    5  A    between atoms: C_19  and  C_20
REMARK    6  A    between atoms: C_20  and  N_21
REMARK    7  A    between atoms: N_21  and  C_24
REMARK    8  A    between atoms: N_29  and  C_32
REMARK    9  A    between atoms: C_37  and  C_43
REMARK                            x       y       z     vdW  Elec       q    Type
REMARK                         _______ _______ _______ _____ _____    ______ ____
ROOT
ATOM      1  C   UNL     1     -36.413  25.136   3.520  0.00  0.00    +0.048 C 
ATOM      2  C   UNL     1     -36.197  23.828   3.953  0.00  0.00    +0.051 C 
ATOM      3  C   UNL     1     -35.434  26.109   3.724  0.00  0.00    +0.004 C 
ATOM      4  C   UNL     1     -35.001  23.493   4.590  0.00  0.00    +0.015 C 
ATOM      5  C   UNL     1     -34.239  25.774   4.361  0.00  0.00    +0.000 C 
ATOM      6  C   UNL     1     -34.023  24.465   4.794  0.00  0.00    +0.001 C 
ENDROOT
BRANCH   1  12
ATOM      7  O   UNL     1     -38.731  25.566   3.666  0.00  0.00    -0.429 OA
ATOM      8  O   UNL     1     -42.421  27.016   0.157  0.00  0.00    -0.268 OA
ATOM      9  N   UNL     1     -40.211  26.485   0.607  0.00  0.00    -0.288 N 
ATOM     10  N   UNL     1     -41.054  26.099   3.326  0.00  0.00    -0.369 NA
ATOM     11  C   UNL     1     -39.331  26.110   1.591  0.00  0.00    +0.188 C 
ATOM     12  C   UNL     1     -37.632  25.513   2.863  0.00  0.00    +0.147 C 
ATOM     13  C   UNL     1     -41.909  26.456   2.410  0.00  0.00    +0.165 C 
ATOM     14  C   UNL     1     -39.787  25.938   2.877  0.00  0.00    +0.280 C 
ATOM     15  C   UNL     1     -37.953  25.840   1.565  0.00  0.00    +0.041 C 
ATOM     16  C   UNL     1     -41.541  26.682   0.938  0.00  0.00    +0.272 C 
ATOM     17  H   UNL     1     -39.902  26.613  -0.319  0.00  0.00    +0.151 HD
BRANCH  13  18
ATOM     18  C   UNL     1     -43.350  26.667   2.784  0.00  0.00    +0.066 C 
BRANCH  18  19
ATOM     19  C   UNL     1     -43.459  27.330   4.151  0.00  0.00    +0.034 C 
BRANCH  19  20
ATOM     20  C   UNL     1     -43.591  28.850   4.094  0.00  0.00    +0.129 C 
BRANCH  20  21
ATOM     21  N   UNL     1     -42.843  29.455   5.198  0.00  0.00    -0.240 NA
BRANCH  21  24
ATOM     22  N   UNL     1     -43.439  30.380   7.333  0.00  0.00    -0.370 N 
ATOM     23  N   UNL     1     -44.364  31.190   5.414  0.00  0.00    -0.370 N 
ATOM     24  C   UNL     1     -43.494  30.277   5.961  0.00  0.00    +0.189 C 
ATOM     25  H   UNL     1     -42.853  29.781   7.849  0.00  0.00    +0.159 HD
ATOM     26  H   UNL     1     -43.988  31.052   7.799  0.00  0.00    +0.159 HD
ATOM     27  H   UNL     1     -44.496  31.222   4.439  0.00  0.00    +0.159 HD
ATOM     28  H   UNL     1     -44.856  31.812   5.998  0.00  0.00    +0.159 HD
ENDBRANCH  21  24
ENDBRANCH  20  21
ENDBRANCH  19  20
ENDBRANCH  18  19
ENDBRANCH  13  18
ENDBRANCH   1  12
BRANCH   2  29
ATOM     29  N   UNL     1     -37.171  22.822   3.761  0.00  0.00    -0.312 N 
ATOM     30  H   UNL     1     -37.670  22.593   4.578  0.00  0.00    +0.152 HD
BRANCH  29  32
ATOM     31  N   UNL     1     -38.418  20.665   0.395  0.00  0.00    -0.401 NA
ATOM     32  C   UNL     1     -37.565  22.084   2.631  0.00  0.00    +0.053 C 
ATOM     33  C   UNL     1     -36.707  21.162   2.018  0.00  0.00    +0.039 C 
ATOM     34  C   UNL     1     -37.181  20.464   0.886  0.00  0.00    +0.115 C 
ATOM     35  C   UNL     1     -38.840  22.294   2.126  0.00  0.00    +0.051 C 
ATOM     36  C   UNL     1     -35.410  20.926   2.504  0.00  0.00    +0.003 C 
ATOM     37  C   UNL     1     -39.215  21.565   1.016  0.00  0.00    +0.185 C 
ATOM     38  C   UNL     1     -36.329  19.547   0.277  0.00  0.00    +0.085 C 
ATOM     39  C   UNL     1     -34.579  20.004   1.875  0.00  0.00    -0.004 C 
ATOM     40  C   UNL     1     -35.039  19.314   0.760  0.00  0.00    -0.019 C 
BRANCH  37  43
ATOM     41  O   UNL     1     -41.218  20.763   0.071  0.00  0.00    -0.268 OA
ATOM     42  N   UNL     1     -41.031  23.035   0.322  0.00  0.00    -0.323 N 
ATOM     43  C   UNL     1     -40.537  21.738   0.438  0.00  0.00    +0.273 C 
ATOM     44  H   UNL     1     -41.922  23.189  -0.065  0.00  0.00    +0.145 HD
ATOM     45  H   UNL     1     -40.488  23.797   0.627  0.00  0.00    +0.145 HD
ENDBRANCH  37  43
ENDBRANCH  29  32
ENDBRANCH   2  29
TORSDOF 9
ENDMDL
MODEL 3
REMARK VINA RESULT:      -6.3      4.470      6.785
REMARK  Name = 51050290
REMARK  9 active torsions:
REMARK  status: ('A' for Active; 'I' for Inactive)
REMARK    1  A    between atoms: C_1  and  C_12
REMARK    2  A    between atoms: C_2  and  N_29
REMARK    3  A    between atoms: C_13  and  C_18
REMARK    4  A    between atoms: C_18  and  C_19
REMARK    5  A    between atoms: C_19  and  C_20
REMARK    6  A    between atoms: C_20  and  N_21
REMARK    7  A    between atoms: N_21  and  C_24
REMARK    8  A    between atoms: N_29  and  C_32
REMARK    9  A    between atoms: C_37  and  C_43
REMARK                            x       y       z     vdW  Elec       q    Type
REMARK                         _______ _______ _______ _____ _____    ______ ____
ROOT
ATOM      1  C   UNL     1     -37.234  23.298   2.992  0.00  0.00    +0.048 C 
ATOM      2  C   UNL     1     -36.236  23.747   3.857  0.00  0.00    +0.051 C 
ATOM      3  C   UNL     1     -37.208  21.986   2.518  0.00  0.00    +0.004 C 
ATOM      4  C   UNL     1     -35.212  22.883   4.247  0.00  0.00    +0.015 C 
ATOM      5  C   UNL     1     -36.184  21.123   2.909  0.00  0.00    +0.000 C 
ATOM      6  C   UNL     1     -35.186  21.572   3.774  0.00  0.00    +0.001 C 
ENDROOT
BRANCH   1  12
ATOM      7  O   UNL     1     -39.151  24.558   3.558  0.00  0.00    -0.429 OA
ATOM      8  O   UNL     1     -42.496  27.591   0.795  0.00  0.00    -0.268 OA
ATOM      9  N   UNL     1     -40.623  26.228   0.831  0.00  0.00    -0.288 N 
ATOM     10  N   UNL     1     -41.108  25.955   3.650  0.00  0.00    -0.369 NA
ATOM     11  C   UNL     1     -39.813  25.464   1.635  0.00  0.00    +0.188 C 
ATOM     12  C   UNL     1     -38.300  24.162   2.571  0.00  0.00    +0.147 C 
ATOM     13  C   UNL     1     -41.891  26.687   2.909  0.00  0.00    +0.165 C 
ATOM     14  C   UNL     1     -40.091  25.367   2.979  0.00  0.00    +0.280 C 
ATOM     15  C   UNL     1     -38.670  24.698   1.358  0.00  0.00    +0.041 C 
ATOM     16  C   UNL     1     -41.702  26.884   1.399  0.00  0.00    +0.272 C 
ATOM     17  H   UNL     1     -40.439  26.309  -0.132  0.00  0.00    +0.151 HD
BRANCH  13  18
ATOM     18  C   UNL     1     -43.059  27.394   3.539  0.00  0.00    +0.066 C 
BRANCH  18  19
ATOM     19  C   UNL     1     -42.581  28.539   4.423  0.00  0.00    +0.034 C 
BRANCH  19  20
ATOM     20  C   UNL     1     -43.709  29.301   5.114  0.00  0.00    +0.129 C 
BRANCH  20  21
ATOM     21  N   UNL     1     -43.153  30.389   5.920  0.00  0.00    -0.240 NA
BRANCH  21  24
ATOM     22  N   UNL     1     -43.433  30.282   8.303  0.00  0.00    -0.370 N 
ATOM     23  N   UNL     1     -44.906  31.443   7.008  0.00  0.00    -0.370 N 
ATOM     24  C   UNL     1     -43.770  30.670   7.026  0.00  0.00    +0.189 C 
ATOM     25  H   UNL     1     -42.638  29.723   8.454  0.00  0.00    +0.159 HD
ATOM     26  H   UNL     1     -43.988  30.564   9.066  0.00  0.00    +0.159 HD
ATOM     27  H   UNL     1     -45.256  31.787   6.154  0.00  0.00    +0.159 HD
ATOM     28  H   UNL     1     -45.371  31.654   7.851  0.00  0.00    +0.159 HD
ENDBRANCH  21  24
ENDBRANCH  20  21
ENDBRANCH  19  20
ENDBRANCH  18  19
ENDBRANCH  13  18
ENDBRANCH   1  12
BRANCH   2  29
ATOM     29  N   UNL     1     -36.236  25.071   4.352  0.00  0.00    -0.312 N 
ATOM     30  H   UNL     1     -37.048  25.305   4.856  0.00  0.00    +0.152 HD
BRANCH  29  32
ATOM     31  N   UNL     1     -33.413  28.159   4.164  0.00  0.00    -0.401 NA
ATOM     32  C   UNL     1     -35.301  26.117   4.266  0.00  0.00    +0.053 C 
ATOM     33  C   UNL     1     -35.331  27.047   3.218  0.00  0.00    +0.039 C 
ATOM     34  C   UNL     1     -34.354  28.065   3.206  0.00  0.00    +0.115 C 
ATOM     35  C   UNL     1     -34.332  26.211   5.254  0.00  0.00    +0.051 C 
ATOM     36  C   UNL     1     -36.299  26.980   2.202  0.00  0.00    +0.003 C 
ATOM     37  C   UNL     1     -33.419  27.241   5.159  0.00  0.00    +0.185 C 
ATOM     38  C   UNL     1     -34.384  28.990   2.165  0.00  0.00    +0.085 C 
ATOM     39  C   UNL     1     -36.305  27.917   1.173  0.00  0.00    -0.004 C 
ATOM     40  C   UNL     1     -35.346  28.922   1.154  0.00  0.00    -0.019 C 
BRANCH  37  43
ATOM     41  O   UNL     1     -31.232  27.769   5.855  0.00  0.00    -0.268 OA
ATOM     42  N   UNL     1     -32.709  27.125   7.487  0.00  0.00    -0.323 N 
ATOM     43  C   UNL     1     -32.378  27.394   6.161  0.00  0.00    +0.273 C 
ATOM     44  H   UNL     1     -32.029  27.219   8.191  0.00  0.00    +0.145 HD
ATOM     45  H   UNL     1     -33.623  26.841   7.718  0.00  0.00    +0.145 HD
ENDBRANCH  37  43
ENDBRANCH  29  32
ENDBRANCH   2  29
TORSDOF 9
ENDMDL
MODEL 4
REMARK VINA RESULT:      -6.2      4.087      6.410
REMARK  Name = 51050290
REMARK  9 active torsions:
REMARK  status: ('A' for Active; 'I' for Inactive)
REMARK    1  A    between atoms: C_1  and  C_12
REMARK    2  A    between atoms: C_2  and  N_29
REMARK    3  A    between atoms: C_13  and  C_18
REMARK    4  A    between atoms: C_18  and  C_19
REMARK    5  A    between atoms: C_19  and  C_20
REMARK    6  A    between atoms: C_20  and  N_21
REMARK    7  A    between atoms: N_21  and  C_24
REMARK    8  A    between atoms: N_29  and  C_32
REMARK    9  A    between atoms: C_37  and  C_43
REMARK                            x       y       z     vdW  Elec       q    Type
REMARK                         _______ _______ _______ _____ _____    ______ ____
ROOT
ATOM      1  C   UNL     1     -36.367  24.814   4.014  0.00  0.00    +0.048 C 
ATOM      2  C   UNL     1     -36.138  23.452   4.213  0.00  0.00    +0.051 C 
ATOM      3  C   UNL     1     -35.490  25.755   4.554  0.00  0.00    +0.004 C 
ATOM      4  C   UNL     1     -35.031  23.033   4.952  0.00  0.00    +0.015 C 
ATOM      5  C   UNL     1     -34.384  25.335   5.293  0.00  0.00    +0.000 C 
ATOM      6  C   UNL     1     -34.154  23.973   5.491  0.00  0.00    +0.001 C 
ENDROOT
BRANCH   1  12
ATOM      7  O   UNL     1     -38.689  25.241   3.919  0.00  0.00    -0.429 OA
ATOM      8  O   UNL     1     -41.919  27.138   0.178  0.00  0.00    -0.268 OA
ATOM      9  N   UNL     1     -39.779  26.538   0.834  0.00  0.00    -0.288 N 
ATOM     10  N   UNL     1     -40.955  25.829   3.358  0.00  0.00    -0.369 NA
ATOM     11  C   UNL     1     -39.027  26.038   1.867  0.00  0.00    +0.188 C 
ATOM     12  C   UNL     1     -37.497  25.277   3.260  0.00  0.00    +0.147 C 
ATOM     13  C   UNL     1     -41.690  26.303   2.393  0.00  0.00    +0.165 C 
ATOM     14  C   UNL     1     -39.640  25.715   3.056  0.00  0.00    +0.280 C 
ATOM     15  C   UNL     1     -37.655  25.763   1.982  0.00  0.00    +0.041 C 
ATOM     16  C   UNL     1     -41.142  26.704   1.017  0.00  0.00    +0.272 C 
ATOM     17  H   UNL     1     -39.357  26.776  -0.023  0.00  0.00    +0.151 HD
BRANCH  13  18
ATOM     18  C   UNL     1     -43.168  26.478   2.606  0.00  0.00    +0.066 C 
BRANCH  18  19
ATOM     19  C   UNL     1     -43.439  27.221   3.907  0.00  0.00    +0.034 C 
BRANCH  19  20
ATOM     20  C   UNL     1     -43.290  28.737   3.799  0.00  0.00    +0.129 C 
BRANCH  20  21
ATOM     21  N   UNL     1     -42.763  29.275   5.054  0.00  0.00    -0.240 NA
BRANCH  21  24
ATOM     22  N   UNL     1     -43.395  30.472   7.039  0.00  0.00    -0.370 N 
ATOM     23  N   UNL     1     -44.736  30.483   5.196  0.00  0.00    -0.370 N 
ATOM     24  C   UNL     1     -43.561  30.029   5.746  0.00  0.00    +0.189 C 
ATOM     25  H   UNL     1     -42.593  30.216   7.548  0.00  0.00    +0.159 HD
ATOM     26  H   UNL     1     -44.079  31.044   7.455  0.00  0.00    +0.159 HD
ATOM     27  H   UNL     1     -44.976  30.238   4.273  0.00  0.00    +0.159 HD
ATOM     28  H   UNL     1     -45.339  31.055   5.725  0.00  0.00    +0.159 HD
ENDBRANCH  21  24
ENDBRANCH  20  21
ENDBRANCH  19  20
ENDBRANCH  18  19
ENDBRANCH  13  18
ENDBRANCH   1  12
BRANCH   2  29
ATOM     29  N   UNL     1     -37.009  22.476   3.679  0.00  0.00    -0.312 N 
ATOM     30  H   UNL     1     -37.840  22.363   4.194  0.00  0.00    +0.152 HD
BRANCH  29  32
ATOM     31  N   UNL     1     -36.668  19.948   0.358  0.00  0.00    -0.401 NA
ATOM     32  C   UNL     1     -36.920  21.635   2.555  0.00  0.00    +0.053 C 
ATOM     33  C   UNL     1     -37.965  21.534   1.627  0.00  0.00    +0.039 C 
ATOM     34  C   UNL     1     -37.794  20.666   0.527  0.00  0.00    +0.115 C 
ATOM     35  C   UNL     1     -35.759  20.896   2.383  0.00  0.00    +0.051 C 
ATOM     36  C   UNL     1     -39.153  22.269   1.772  0.00  0.00    +0.003 C 
ATOM     37  C   UNL     1     -35.683  20.074   1.277  0.00  0.00    +0.185 C 
ATOM     38  C   UNL     1     -38.832  20.565  -0.396  0.00  0.00    +0.085 C 
ATOM     39  C   UNL     1     -40.174  22.149   0.834  0.00  0.00    -0.004 C 
ATOM     40  C   UNL     1     -40.014  21.296  -0.250  0.00  0.00    -0.019 C 
BRANCH  37  43
ATOM     41  O   UNL     1     -33.357  19.705   1.297  0.00  0.00    -0.268 OA
ATOM     42  N   UNL     1     -34.670  17.989   0.527  0.00  0.00    -0.323 N 
ATOM     43  C   UNL     1     -34.495  19.272   1.039  0.00  0.00    +0.273 C 
ATOM     44  H   UNL     1     -33.887  17.419   0.353  0.00  0.00    +0.145 HD
ATOM     45  H   UNL     1     -35.576  17.653   0.339  0.00  0.00    +0.145 HD
ENDBRANCH  37  43
ENDBRANCH  29  32
ENDBRANCH   2  29
TORSDOF 9
ENDMDL
MODEL 5
REMARK VINA RESULT:      -6.2      3.024      5.808
REMARK  Name = 51050290
REMARK  9 active torsions:
REMARK  status: ('A' for Active; 'I' for Inactive)
REMARK    1  A    between atoms: C_1  and  C_12
REMARK    2  A    between atoms: C_2  and  N_29
REMARK    3  A    between atoms: C_13  and  C_18
REMARK    4  A    between atoms: C_18  and  C_19
REMARK    5  A    between atoms: C_19  and  C_20
REMARK    6  A    between atoms: C_20  and  N_21
REMARK    7  A    between atoms: N_21  and  C_24
REMARK    8  A    between atoms: N_29  and  C_32
REMARK    9  A    between atoms: C_37  and  C_43
REMARK                            x       y       z     vdW  Elec       q    Type
REMARK                         _______ _______ _______ _____ _____    ______ ____
ROOT
ATOM      1  C   UNL     1     -35.712  23.550   4.349  0.00  0.00    +0.048 C 
ATOM      2  C   UNL     1     -35.453  22.315   3.756  0.00  0.00    +0.051 C 
ATOM      3  C   UNL     1     -35.632  23.689   5.735  0.00  0.00    +0.004 C 
ATOM      4  C   UNL     1     -35.115  21.218   4.549  0.00  0.00    +0.015 C 
ATOM      5  C   UNL     1     -35.295  22.592   6.528  0.00  0.00    +0.000 C 
ATOM      6  C   UNL     1     -35.036  21.356   5.934  0.00  0.00    +0.001 C 
ENDROOT
BRANCH   1  12
ATOM      7  O   UNL     1     -37.072  24.500   2.667  0.00  0.00    -0.429 OA
ATOM      8  O   UNL     1     -37.381  29.312   0.481  0.00  0.00    -0.268 OA
ATOM      9  N   UNL     1     -36.376  27.887   2.007  0.00  0.00    -0.288 N 
ATOM     10  N   UNL     1     -38.195  25.882   1.046  0.00  0.00    -0.369 NA
ATOM     11  C   UNL     1     -36.375  26.610   2.509  0.00  0.00    +0.188 C 
ATOM     12  C   UNL     1     -36.063  24.697   3.561  0.00  0.00    +0.147 C 
ATOM     13  C   UNL     1     -38.216  27.087   0.554  0.00  0.00    +0.165 C 
ATOM     14  C   UNL     1     -37.268  25.687   2.013  0.00  0.00    +0.280 C 
ATOM     15  C   UNL     1     -35.597  25.991   3.499  0.00  0.00    +0.041 C 
ATOM     16  C   UNL     1     -37.280  28.214   1.010  0.00  0.00    +0.272 C 
ATOM     17  H   UNL     1     -35.744  28.560   2.350  0.00  0.00    +0.151 HD
BRANCH  13  18
ATOM     18  C   UNL     1     -39.203  27.429  -0.528  0.00  0.00    +0.066 C 
BRANCH  18  19
ATOM     19  C   UNL     1     -39.995  26.195  -0.941  0.00  0.00    +0.034 C 
BRANCH  19  20
ATOM     20  C   UNL     1     -41.479  26.264  -0.588  0.00  0.00    +0.129 C 
BRANCH  20  21
ATOM     21  N   UNL     1     -41.701  25.690   0.740  0.00  0.00    -0.240 NA
BRANCH  21  24
ATOM     22  N   UNL     1     -40.534  23.839   1.730  0.00  0.00    -0.370 N 
ATOM     23  N   UNL     1     -42.117  23.494   0.127  0.00  0.00    -0.370 N 
ATOM     24  C   UNL     1     -41.444  24.426   0.881  0.00  0.00    +0.189 C 
ATOM     25  H   UNL     1     -39.985  24.396   2.326  0.00  0.00    +0.159 HD
ATOM     26  H   UNL     1     -40.432  22.860   1.741  0.00  0.00    +0.159 HD
ATOM     27  H   UNL     1     -42.798  23.784  -0.523  0.00  0.00    +0.159 HD
ATOM     28  H   UNL     1     -41.918  22.536   0.236  0.00  0.00    +0.159 HD
ENDBRANCH  21  24
ENDBRANCH  20  21
ENDBRANCH  19  20
ENDBRANCH  18  19
ENDBRANCH  13  18
ENDBRANCH   1  12
BRANCH   2  29
ATOM     29  N   UNL     1     -35.527  22.144   2.354  0.00  0.00    -0.312 N 
ATOM     30  H   UNL     1     -34.994  22.798   1.847  0.00  0.00    +0.152 HD
BRANCH  29  32
ATOM     31  N   UNL     1     -37.638  19.448  -0.055  0.00  0.00    -0.401 NA
ATOM     32  C   UNL     1     -36.213  21.223   1.544  0.00  0.00    +0.053 C 
ATOM     33  C   UNL     1     -35.590  20.067   1.053  0.00  0.00    +0.039 C 
ATOM     34  C   UNL     1     -36.351  19.195   0.245  0.00  0.00    +0.115 C 
ATOM     35  C   UNL     1     -37.540  21.485   1.235  0.00  0.00    +0.051 C 
ATOM     36  C   UNL     1     -34.249  19.772   1.348  0.00  0.00    +0.003 C 
ATOM     37  C   UNL     1     -38.203  20.574   0.438  0.00  0.00    +0.185 C 
ATOM     38  C   UNL     1     -35.732  18.047  -0.243  0.00  0.00    +0.085 C 
ATOM     39  C   UNL     1     -33.655  18.618   0.846  0.00  0.00    -0.004 C 
ATOM     40  C   UNL     1     -34.398  17.755   0.050  0.00  0.00    -0.019 C 
BRANCH  37  43
ATOM     41  O   UNL     1     -40.477  20.916   0.944  0.00  0.00    -0.268 OA
ATOM     42  N   UNL     1     -39.907  20.871  -1.277  0.00  0.00    -0.323 N 
ATOM     43  C   UNL     1     -39.593  20.790   0.078  0.00  0.00    +0.273 C 
ATOM     44  H   UNL     1     -40.839  21.017  -1.557  0.00  0.00    +0.145 HD
ATOM     45  H   UNL     1     -39.197  20.782  -1.953  0.00  0.00    +0.145 HD
ENDBRANCH  37  43
ENDBRANCH  29  32
ENDBRANCH   2  29
TORSDOF 9
ENDMDL
MODEL 6
REMARK VINA RESULT:      -6.2      3.260      5.861
REMARK  Name = 51050290
REMARK  9 active torsions:
REMARK  status: ('A' for Active; 'I' for Inactive)
REMARK    1  A    between atoms: C_1  and  C_12
REMARK    2  A    between atoms: C_2  and  N_29
REMARK    3  A    between atoms: C_13  and  C_18
REMARK    4  A    between atoms: C_18  and  C_19
REMARK    5  A    between atoms: C_19  and  C_20
REMARK    6  A    between atoms: C_20  and  N_21
REMARK    7  A    between atoms: N_21  and  C_24
REMARK    8  A    between atoms: N_29  and  C_32
REMARK    9  A    between atoms: C_37  and  C_43
REMARK                            x       y       z     vdW  Elec       q    Type
REMARK                         _______ _______ _______ _____ _____    ______ ____
ROOT
ATOM      1  C   UNL     1     -39.298  26.577   1.158  0.00  0.00    +0.048 C 
ATOM      2  C   UNL     1     -39.827  25.941   2.281  0.00  0.00    +0.051 C 
ATOM      3  C   UNL     1     -40.148  27.050   0.158  0.00  0.00    +0.004 C 
ATOM      4  C   UNL     1     -41.208  25.777   2.403  0.00  0.00    +0.015 C 
ATOM      5  C   UNL     1     -41.528  26.885   0.280  0.00  0.00    +0.000 C 
ATOM      6  C   UNL     1     -42.057  26.249   1.403  0.00  0.00    +0.001 C 
ENDROOT
BRANCH   1  12
ATOM      7  O   UNL     1     -37.335  27.735   1.782  0.00  0.00    -0.429 OA
ATOM      8  O   UNL     1     -32.259  27.407   0.313  0.00  0.00    -0.268 OA
ATOM      9  N   UNL     1     -34.438  26.646   0.105  0.00  0.00    -0.288 N 
ATOM     10  N   UNL     1     -35.114  28.612   2.088  0.00  0.00    -0.369 NA
ATOM     11  C   UNL     1     -35.725  26.809   0.553  0.00  0.00    +0.188 C 
ATOM     12  C   UNL     1     -37.883  26.760   1.003  0.00  0.00    +0.147 C 
ATOM     13  C   UNL     1     -33.884  28.476   1.681  0.00  0.00    +0.165 C 
ATOM     14  C   UNL     1     -35.994  27.766   1.504  0.00  0.00    +0.280 C 
ATOM     15  C   UNL     1     -36.923  26.158   0.222  0.00  0.00    +0.041 C 
ATOM     16  C   UNL     1     -33.440  27.453   0.627  0.00  0.00    +0.272 C 
ATOM     17  H   UNL     1     -34.226  25.966  -0.574  0.00  0.00    +0.151 HD
BRANCH  13  18
ATOM     18  C   UNL     1     -32.811  29.359   2.256  0.00  0.00    +0.066 C 
BRANCH  18  19
ATOM     19  C   UNL     1     -32.781  29.247   3.775  0.00  0.00    +0.034 C 
BRANCH  19  20
ATOM     20  C   UNL     1     -32.476  27.842   4.287  0.00  0.00    +0.129 C 
BRANCH  20  21
ATOM     21  N   UNL     1     -31.434  27.902   5.314  0.00  0.00    -0.240 NA
BRANCH  21  24
ATOM     22  N   UNL     1     -31.637  29.326   7.237  0.00  0.00    -0.370 N 
ATOM     23  N   UNL     1     -32.505  27.219   7.252  0.00  0.00    -0.370 N 
ATOM     24  C   UNL     1     -31.822  28.164   6.524  0.00  0.00    +0.189 C 
ATOM     25  H   UNL     1     -31.160  30.084   6.830  0.00  0.00    +0.159 HD
ATOM     26  H   UNL     1     -31.982  29.400   8.156  0.00  0.00    +0.159 HD
ATOM     27  H   UNL     1     -32.703  26.339   6.856  0.00  0.00    +0.159 HD
ATOM     28  H   UNL     1     -32.797  27.421   8.171  0.00  0.00    +0.159 HD
ENDBRANCH  21  24
ENDBRANCH  20  21
ENDBRANCH  19  20
ENDBRANCH  18  19
ENDBRANCH  13  18
ENDBRANCH   1  12
BRANCH   2  29
ATOM     29  N   UNL     1     -38.990  25.452   3.310  0.00  0.00    -0.312 N 
ATOM     30  H   UNL     1     -39.118  25.906   4.174  0.00  0.00    +0.152 HD
BRANCH  29  32
ATOM     31  N   UNL     1     -36.121  22.401   3.345  0.00  0.00    -0.401 NA
ATOM     32  C   UNL     1     -38.012  24.443   3.339  0.00  0.00    +0.053 C 
ATOM     33  C   UNL     1     -36.828  24.586   4.076  0.00  0.00    +0.039 C 
ATOM     34  C   UNL     1     -35.897  23.526   4.050  0.00  0.00    +0.115 C 
ATOM     35  C   UNL     1     -38.244  23.285   2.611  0.00  0.00    +0.051 C 
ATOM     36  C   UNL     1     -36.562  25.745   4.824  0.00  0.00    +0.003 C 
ATOM     37  C   UNL     1     -37.276  22.303   2.646  0.00  0.00    +0.185 C 
ATOM     38  C   UNL     1     -34.721  23.668   4.782  0.00  0.00    +0.085 C 
ATOM     39  C   UNL     1     -35.378  25.861   5.547  0.00  0.00    -0.004 C 
ATOM     40  C   UNL     1     -34.457  24.821   5.525  0.00  0.00    -0.019 C 
BRANCH  37  43
ATOM     41  O   UNL     1     -38.193  21.013   0.903  0.00  0.00    -0.268 OA
ATOM     42  N   UNL     1     -36.766  19.940   2.342  0.00  0.00    -0.323 N 
ATOM     43  C   UNL     1     -37.458  21.067   1.905  0.00  0.00    +0.273 C 
ATOM     44  H   UNL     1     -36.867  19.086   1.864  0.00  0.00    +0.145 HD
ATOM     45  H   UNL     1     -36.178  19.997   3.129  0.00  0.00    +0.145 HD
ENDBRANCH  37  43
ENDBRANCH  29  32
ENDBRANCH   2  29
TORSDOF 9
ENDMDL
MODEL 7
REMARK VINA RESULT:      -6.2      2.737      7.570
REMARK  Name = 51050290
REMARK  9 active torsions:
REMARK  status: ('A' for Active; 'I' for Inactive)
REMARK    1  A    between atoms: C_1  and  C_12
REMARK    2  A    between atoms: C_2  and  N_29
REMARK    3  A    between atoms: C_13  and  C_18
REMARK    4  A    between atoms: C_18  and  C_19
REMARK    5  A    between atoms: C_19  and  C_20
REMARK    6  A    between atoms: C_20  and  N_21
REMARK    7  A    between atoms: N_21  and  C_24
REMARK    8  A    between atoms: N_29  and  C_32
REMARK    9  A    between atoms: C_37  and  C_43
REMARK                            x       y       z     vdW  Elec       q    Type
REMARK                         _______ _______ _______ _____ _____    ______ ____
ROOT
ATOM      1  C   UNL     1     -32.686  28.232   4.068  0.00  0.00    +0.048 C 
ATOM      2  C   UNL     1     -33.372  29.313   3.513  0.00  0.00    +0.051 C 
ATOM      3  C   UNL     1     -31.311  28.317   4.287  0.00  0.00    +0.004 C 
ATOM      4  C   UNL     1     -32.682  30.478   3.176  0.00  0.00    +0.015 C 
ATOM      5  C   UNL     1     -30.622  29.482   3.950  0.00  0.00    +0.000 C 
ATOM      6  C   UNL     1     -31.308  30.563   3.395  0.00  0.00    +0.001 C 
ENDROOT
BRANCH   1  12
ATOM      7  O   UNL     1     -33.607  26.165   3.391  0.00  0.00    -0.429 OA
ATOM      8  O   UNL     1     -36.076  22.237   5.942  0.00  0.00    -0.268 OA
ATOM      9  N   UNL     1     -35.041  24.309   6.016  0.00  0.00    -0.288 N 
ATOM     10  N   UNL     1     -34.659  24.009   3.185  0.00  0.00    -0.369 NA
ATOM     11  C   UNL     1     -34.412  25.270   5.265  0.00  0.00    +0.188 C 
ATOM     12  C   UNL     1     -33.367  27.020   4.424  0.00  0.00    +0.147 C 
ATOM     13  C   UNL     1     -35.257  23.081   3.876  0.00  0.00    +0.165 C 
ATOM     14  C   UNL     1     -34.255  25.077   3.912  0.00  0.00    +0.280 C 
ATOM     15  C   UNL     1     -33.850  26.510   5.608  0.00  0.00    +0.041 C 
ATOM     16  C   UNL     1     -35.502  23.164   5.388  0.00  0.00    +0.272 C 
ATOM     17  H   UNL     1     -35.161  24.430   6.986  0.00  0.00    +0.151 HD
BRANCH  13  18
ATOM     18  C   UNL     1     -35.753  21.843   3.181  0.00  0.00    +0.066 C 
BRANCH  18  19
ATOM     19  C   UNL     1     -36.746  22.204   2.084  0.00  0.00    +0.034 C 
BRANCH  19  20
ATOM     20  C   UNL     1     -38.063  22.775   2.604  0.00  0.00    +0.129 C 
BRANCH  20  21
ATOM     21  N   UNL     1     -38.154  24.197   2.272  0.00  0.00    -0.240 NA
BRANCH  21  24
ATOM     22  N   UNL     1     -37.727  26.028   3.768  0.00  0.00    -0.370 N 
ATOM     23  N   UNL     1     -39.696  24.883   3.861  0.00  0.00    -0.370 N 
ATOM     24  C   UNL     1     -38.476  25.002   3.237  0.00  0.00    +0.189 C 
ATOM     25  H   UNL     1     -36.831  26.220   3.410  0.00  0.00    +0.159 HD
ATOM     26  H   UNL     1     -38.089  26.571   4.506  0.00  0.00    +0.159 HD
ATOM     27  H   UNL     1     -40.329  24.185   3.576  0.00  0.00    +0.159 HD
ATOM     28  H   UNL     1     -39.936  25.495   4.594  0.00  0.00    +0.159 HD
ENDBRANCH  21  24
ENDBRANCH  20  21
ENDBRANCH  19  20
ENDBRANCH  18  19
ENDBRANCH  13  18
ENDBRANCH   1  12
BRANCH   2  29
ATOM     29  N   UNL     1     -34.765  29.255   3.279  0.00  0.00    -0.312 N 
ATOM     30  H   UNL     1     -35.308  29.355   4.094  0.00  0.00    +0.152 HD
BRANCH  29  32
ATOM     31  N   UNL     1     -37.007  28.663  -0.208  0.00  0.00    -0.401 NA
ATOM     32  C   UNL     1     -35.526  29.083   2.109  0.00  0.00    +0.053 C 
ATOM     33  C   UNL     1     -36.279  30.130   1.560  0.00  0.00    +0.039 C 
ATOM     34  C   UNL     1     -37.015  29.872   0.384  0.00  0.00    +0.115 C 
ATOM     35  C   UNL     1     -35.516  27.837   1.501  0.00  0.00    +0.051 C 
ATOM     36  C   UNL     1     -36.310  31.404   2.151  0.00  0.00    +0.003 C 
ATOM     37  C   UNL     1     -36.267  27.680   0.354  0.00  0.00    +0.185 C 
ATOM     38  C   UNL     1     -37.764  30.911  -0.162  0.00  0.00    +0.085 C 
ATOM     39  C   UNL     1     -37.067  32.425   1.584  0.00  0.00    -0.004 C 
ATOM     40  C   UNL     1     -37.795  32.178   0.427  0.00  0.00    -0.019 C 
BRANCH  37  43
ATOM     41  O   UNL     1     -36.604  26.314  -1.535  0.00  0.00    -0.268 OA
ATOM     42  N   UNL     1     -35.963  25.263   0.400  0.00  0.00    -0.323 N 
ATOM     43  C   UNL     1     -36.301  26.399  -0.331  0.00  0.00    +0.273 C 
ATOM     44  H   UNL     1     -35.975  24.379  -0.033  0.00  0.00    +0.145 HD
ATOM     45  H   UNL     1     -35.713  25.344   1.348  0.00  0.00    +0.145 HD
ENDBRANCH  37  43
ENDBRANCH  29  32
ENDBRANCH   2  29
TORSDOF 9
ENDMDL
MODEL 8
REMARK VINA RESULT:      -6.2      3.123      6.523
REMARK  Name = 51050290
REMARK  9 active torsions:
REMARK  status: ('A' for Active; 'I' for Inactive)
REMARK    1  A    between atoms: C_1  and  C_12
REMARK    2  A    between atoms: C_2  and  N_29
REMARK    3  A    between atoms: C_13  and  C_18
REMARK    4  A    between atoms: C_18  and  C_19
REMARK    5  A    between atoms: C_19  and  C_20
REMARK    6  A    between atoms: C_20  and  N_21
REMARK    7  A    between atoms: N_21  and  C_24
REMARK    8  A    between atoms: N_29  and  C_32
REMARK    9  A    between atoms: C_37  and  C_43
REMARK                            x       y       z     vdW  Elec       q    Type
REMARK                         _______ _______ _______ _____ _____    ______ ____
ROOT
ATOM      1  C   UNL     1     -35.488  21.949   3.991  0.00  0.00    +0.048 C 
ATOM      2  C   UNL     1     -35.579  23.340   3.933  0.00  0.00    +0.051 C 
ATOM      3  C   UNL     1     -35.253  21.315   5.211  0.00  0.00    +0.004 C 
ATOM      4  C   UNL     1     -35.434  24.096   5.097  0.00  0.00    +0.015 C 
ATOM      5  C   UNL     1     -35.108  22.071   6.374  0.00  0.00    +0.000 C 
ATOM      6  C   UNL     1     -35.199  23.462   6.317  0.00  0.00    +0.001 C 
ENDROOT
BRANCH   1  12
ATOM      7  O   UNL     1     -36.789  21.331   2.118  0.00  0.00    -0.429 OA
ATOM      8  O   UNL     1     -36.104  17.898  -1.854  0.00  0.00    -0.268 OA
ATOM      9  N   UNL     1     -35.298  18.872   0.088  0.00  0.00    -0.288 N 
ATOM     10  N   UNL     1     -37.734  20.395   0.111  0.00  0.00    -0.369 NA
ATOM     11  C   UNL     1     -35.570  19.787   1.074  0.00  0.00    +0.188 C 
ATOM     12  C   UNL     1     -35.632  21.143   2.812  0.00  0.00    +0.147 C 
ATOM     13  C   UNL     1     -37.499  19.533  -0.837  0.00  0.00    +0.165 C 
ATOM     14  C   UNL     1     -36.752  20.491   1.037  0.00  0.00    +0.280 C 
ATOM     15  C   UNL     1     -34.842  20.193   2.204  0.00  0.00    +0.041 C 
ATOM     16  C   UNL     1     -36.226  18.680  -0.922  0.00  0.00    +0.272 C 
ATOM     17  H   UNL     1     -34.457  18.360   0.098  0.00  0.00    +0.151 HD
BRANCH  13  18
ATOM     18  C   UNL     1     -38.515  19.336  -1.927  0.00  0.00    +0.066 C 
BRANCH  18  19
ATOM     19  C   UNL     1     -39.909  19.166  -1.337  0.00  0.00    +0.034 C 
BRANCH  19  20
ATOM     20  C   UNL     1     -40.776  20.420  -1.423  0.00  0.00    +0.129 C 
BRANCH  20  21
ATOM     21  N   UNL     1     -41.145  20.862  -0.078  0.00  0.00    -0.240 NA
BRANCH  21  24
ATOM     22  N   UNL     1     -39.818  22.863  -0.162  0.00  0.00    -0.370 N 
ATOM     23  N   UNL     1     -40.116  21.746   1.802  0.00  0.00    -0.370 N 
ATOM     24  C   UNL     1     -40.403  21.782   0.458  0.00  0.00    +0.189 C 
ATOM     25  H   UNL     1     -39.945  23.006  -1.127  0.00  0.00    +0.159 HD
ATOM     26  H   UNL     1     -39.273  23.495   0.360  0.00  0.00    +0.159 HD
ATOM     27  H   UNL     1     -40.474  21.020   2.363  0.00  0.00    +0.159 HD
ATOM     28  H   UNL     1     -39.552  22.446   2.204  0.00  0.00    +0.159 HD
ENDBRANCH  21  24
ENDBRANCH  20  21
ENDBRANCH  19  20
ENDBRANCH  18  19
ENDBRANCH  13  18
ENDBRANCH   1  12
BRANCH   2  29
ATOM     29  N   UNL     1     -35.817  24.010   2.711  0.00  0.00    -0.312 N 
ATOM     30  H   UNL     1     -35.208  23.739   1.987  0.00  0.00    +0.152 HD
BRANCH  29  32
ATOM     31  N   UNL     1     -38.664  26.876   1.611  0.00  0.00    -0.401 NA
ATOM     32  C   UNL     1     -36.752  24.987   2.330  0.00  0.00    +0.053 C 
ATOM     33  C   UNL     1     -36.363  26.162   1.671  0.00  0.00    +0.039 C 
ATOM     34  C   UNL     1     -37.367  27.092   1.325  0.00  0.00    +0.115 C 
ATOM     35  C   UNL     1     -38.089  24.763   2.626  0.00  0.00    +0.051 C 
ATOM     36  C   UNL     1     -35.019  26.419   1.357  0.00  0.00    +0.003 C 
ATOM     37  C   UNL     1     -38.998  25.730   2.248  0.00  0.00    +0.185 C 
ATOM     38  C   UNL     1     -36.981  28.258   0.670  0.00  0.00    +0.085 C 
ATOM     39  C   UNL     1     -34.661  27.594   0.702  0.00  0.00    -0.004 C 
ATOM     40  C   UNL     1     -35.643  28.514   0.359  0.00  0.00    -0.019 C 
BRANCH  37  43
ATOM     41  O   UNL     1     -41.138  24.855   1.801  0.00  0.00    -0.268 OA
ATOM     42  N   UNL     1     -40.933  26.188   3.656  0.00  0.00    -0.323 N 
ATOM     43  C   UNL     1     -40.413  25.556   2.529  0.00  0.00    +0.273 C 
ATOM     44  H   UNL     1     -41.887  26.092   3.876  0.00  0.00    +0.145 HD
ATOM     45  H   UNL     1     -40.347  26.730   4.232  0.00  0.00    +0.145 HD
ENDBRANCH  37  43
ENDBRANCH  29  32
ENDBRANCH   2  29
TORSDOF 9
ENDMDL
MODEL 9
REMARK VINA RESULT:      -6.2      2.768      4.471
REMARK  Name = 51050290
REMARK  9 active torsions:
REMARK  status: ('A' for Active; 'I' for Inactive)
REMARK    1  A    between atoms: C_1  and  C_12
REMARK    2  A    between atoms: C_2  and  N_29
REMARK    3  A    between atoms: C_13  and  C_18
REMARK    4  A    between atoms: C_18  and  C_19
REMARK    5  A    between atoms: C_19  and  C_20
REMARK    6  A    between atoms: C_20  and  N_21
REMARK    7  A    between atoms: N_21  and  C_24
REMARK    8  A    between atoms: N_29  and  C_32
REMARK    9  A    between atoms: C_37  and  C_43
REMARK                            x       y       z     vdW  Elec       q    Type
REMARK                         _______ _______ _______ _____ _____    ______ ____
ROOT
ATOM      1  C   UNL     1     -35.605  20.851   1.855  0.00  0.00    +0.048 C 
ATOM      2  C   UNL     1     -36.894  20.410   1.554  0.00  0.00    +0.051 C 
ATOM      3  C   UNL     1     -34.500  20.204   1.302  0.00  0.00    +0.004 C 
ATOM      4  C   UNL     1     -37.077  19.321   0.700  0.00  0.00    +0.015 C 
ATOM      5  C   UNL     1     -34.683  19.115   0.449  0.00  0.00    +0.000 C 
ATOM      6  C   UNL     1     -35.972  18.675   0.148  0.00  0.00    +0.001 C 
ENDROOT
BRANCH   1  12
ATOM      7  O   UNL     1     -35.109  23.146   2.108  0.00  0.00    -0.429 OA
ATOM      8  O   UNL     1     -34.524  26.334   6.295  0.00  0.00    -0.268 OA
ATOM      9  N   UNL     1     -34.964  24.218   5.458  0.00  0.00    -0.288 N 
ATOM     10  N   UNL     1     -34.640  25.387   2.854  0.00  0.00    -0.369 NA
ATOM     11  C   UNL     1     -35.096  23.477   4.311  0.00  0.00    +0.188 C 
ATOM     12  C   UNL     1     -35.385  21.966   2.730  0.00  0.00    +0.147 C 
ATOM     13  C   UNL     1     -34.511  26.113   3.928  0.00  0.00    +0.165 C 
ATOM     14  C   UNL     1     -34.931  24.086   3.088  0.00  0.00    +0.280 C 
ATOM     15  C   UNL     1     -35.386  22.120   4.099  0.00  0.00    +0.041 C 
ATOM     16  C   UNL     1     -34.667  25.567   5.353  0.00  0.00    +0.272 C 
ATOM     17  H   UNL     1     -35.080  23.799   6.341  0.00  0.00    +0.151 HD
BRANCH  13  18
ATOM     18  C   UNL     1     -34.189  27.576   3.799  0.00  0.00    +0.066 C 
BRANCH  18  19
ATOM     19  C   UNL     1     -32.808  27.769   3.185  0.00  0.00    +0.034 C 
BRANCH  19  20
ATOM     20  C   UNL     1     -31.732  28.168   4.193  0.00  0.00    +0.129 C 
BRANCH  20  21
ATOM     21  N   UNL     1     -32.341  28.890   5.311  0.00  0.00    -0.240 NA
BRANCH  21  24
ATOM     22  N   UNL     1     -32.321  27.675   7.383  0.00  0.00    -0.370 N 
ATOM     23  N   UNL     1     -30.822  29.349   6.999  0.00  0.00    -0.370 N 
ATOM     24  C   UNL     1     -31.879  28.630   6.494  0.00  0.00    +0.189 C 
ATOM     25  H   UNL     1     -33.075  27.091   7.143  0.00  0.00    +0.159 HD
ATOM     26  H   UNL     1     -31.882  27.577   8.258  0.00  0.00    +0.159 HD
ATOM     27  H   UNL     1     -30.411  30.065   6.462  0.00  0.00    +0.159 HD
ATOM     28  H   UNL     1     -30.474  29.148   7.899  0.00  0.00    +0.159 HD
ENDBRANCH  21  24
ENDBRANCH  20  21
ENDBRANCH  19  20
ENDBRANCH  18  19
ENDBRANCH  13  18
ENDBRANCH   1  12
BRANCH   2  29
ATOM     29  N   UNL     1     -38.033  21.045   2.100  0.00  0.00    -0.312 N 
ATOM     30  H   UNL     1     -38.405  20.584   2.886  0.00  0.00    +0.152 HD
BRANCH  29  32
ATOM     31  N   UNL     1     -40.080  24.552   1.074  0.00  0.00    -0.401 NA
ATOM     32  C   UNL     1     -38.737  22.208   1.739  0.00  0.00    +0.053 C 
ATOM     33  C   UNL     1     -39.787  22.174   0.811  0.00  0.00    +0.039 C 
ATOM     34  C   UNL     1     -40.440  23.387   0.504  0.00  0.00    +0.115 C 
ATOM     35  C   UNL     1     -38.364  23.407   2.327  0.00  0.00    +0.051 C 
ATOM     36  C   UNL     1     -40.190  20.976   0.198  0.00  0.00    +0.003 C 
ATOM     37  C   UNL     1     -39.061  24.541   1.964  0.00  0.00    +0.185 C 
ATOM     38  C   UNL     1     -41.484  23.354  -0.418  0.00  0.00    +0.085 C 
ATOM     39  C   UNL     1     -41.236  20.972  -0.720  0.00  0.00    -0.004 C 
ATOM     40  C   UNL     1     -41.883  22.162  -1.028  0.00  0.00    -0.019 C 
BRANCH  37  43
ATOM     41  O   UNL     1     -39.054  26.896   1.997  0.00  0.00    -0.268 OA
ATOM     42  N   UNL     1     -38.016  25.835   3.745  0.00  0.00    -0.323 N 
ATOM     43  C   UNL     1     -38.719  25.829   2.542  0.00  0.00    +0.273 C 
ATOM     44  H   UNL     1     -37.768  26.689   4.165  0.00  0.00    +0.145 HD
ATOM     45  H   UNL     1     -37.767  24.984   4.173  0.00  0.00    +0.145 HD
ENDBRANCH  37  43
ENDBRANCH  29  32
ENDBRANCH   2  29
TORSDOF 9
ENDMDL
