MODEL 1
REMARK VINA RESULT:      -6.0      0.000      0.000
REMARK  Name = 60199563
REMARK  5 active torsions:
REMARK  status: ('A' for Active; 'I' for Inactive)
REMARK    1  A    between atoms: C_7  and  O_19
REMARK    2  A    between atoms: C_8  and  O_17
REMARK    3  A    between atoms: C_14  and  O_23
REMARK    4  A    between atoms: C_15  and  C_25
REMARK    5  A    between atoms: C_16  and  O_21
REMARK                            x       y       z     vdW  Elec       q    Type
REMARK                         _______ _______ _______ _____ _____    ______ ____
ROOT
ATOM      1  O   UNL     1     -39.670  20.955   0.788  0.00  0.00    -0.442 OA
ATOM      2  O   UNL     1     -39.767  19.211  -0.700  0.00  0.00    -0.247 OA
ATOM      3  O   UNL     1     -39.190  25.617   3.324  0.00  0.00    -0.286 OA
ATOM      4  C   UNL     1     -39.182  22.317   0.789  0.00  0.00    +0.207 C 
ATOM      5  C   UNL     1     -38.514  22.492  -0.582  0.00  0.00    +0.093 C 
ATOM      6  C   UNL     1     -38.150  22.449   1.903  0.00  0.00    +0.030 C 
ATOM      7  C   UNL     1     -39.166  21.441  -1.452  0.00  0.00    +0.214 C 
ATOM      8  C   UNL     1     -40.363  23.255   0.969  0.00  0.00    +0.159 C 
ATOM      9  C   UNL     1     -38.155  23.545   2.779  0.00  0.00    +0.072 C 
ATOM     10  C   UNL     1     -39.554  20.387  -0.454  0.00  0.00    +0.345 C 
ATOM     11  C   UNL     1     -37.138  21.484   2.058  0.00  0.00    +0.036 C 
ATOM     12  C   UNL     1     -40.371  24.290   1.814  0.00  0.00    +0.078 C 
ATOM     13  C   UNL     1     -39.218  24.568   2.691  0.00  0.00    +0.201 C 
ATOM     14  C   UNL     1     -37.172  23.678   3.769  0.00  0.00    +0.135 C 
ATOM     15  C   UNL     1     -36.178  22.710   3.900  0.00  0.00    +0.045 C 
ATOM     16  C   UNL     1     -36.162  21.613   3.047  0.00  0.00    +0.137 C 
ENDROOT
BRANCH   8  17
ATOM     17  O   UNL     1     -41.495  23.016   0.207  0.00  0.00    -0.472 OA
ATOM     18  C   UNL     1     -42.070  24.232  -0.222  0.00  0.00    +0.252 C 
ENDBRANCH   8  17
BRANCH   7  19
ATOM     19  O   UNL     1     -38.275  20.947  -2.419  0.00  0.00    -0.374 OA
ATOM     20  H   UNL     1     -38.734  20.308  -2.986  0.00  0.00    +0.211 HD
ENDBRANCH   7  19
BRANCH  16  21
ATOM     21  O   UNL     1     -35.199  20.654   3.158  0.00  0.00    -0.472 OA
ATOM     22  C   UNL     1     -34.747  20.047   1.950  0.00  0.00    +0.252 C 
ENDBRANCH  16  21
BRANCH  14  23
ATOM     23  O   UNL     1     -37.158  24.731   4.638  0.00  0.00    -0.506 OA
ATOM     24  H   UNL     1     -36.866  25.573   4.349  0.00  0.00    +0.292 HD
ENDBRANCH  14  23
BRANCH  15  25
ATOM     25  C   UNL     1     -35.129  22.845   4.958  0.00  0.00    +0.033 C 
ATOM     26  C   UNL     1     -35.510  22.117   6.244  0.00  0.00    +0.005 C 
ENDBRANCH  15  25
TORSDOF 5
ENDMDL
MODEL 2
REMARK VINA RESULT:      -5.8      2.195      2.902
REMARK  Name = 60199563
REMARK  5 active torsions:
REMARK  status: ('A' for Active; 'I' for Inactive)
REMARK    1  A    between atoms: C_7  and  O_19
REMARK    2  A    between atoms: C_8  and  O_17
REMARK    3  A    between atoms: C_14  and  O_23
REMARK    4  A    between atoms: C_15  and  C_25
REMARK    5  A    between atoms: C_16  and  O_21
REMARK                            x       y       z     vdW  Elec       q    Type
REMARK                         _______ _______ _______ _____ _____    ______ ____
ROOT
ATOM      1  O   UNL     1     -39.580  23.137   2.305  0.00  0.00    -0.442 OA
ATOM      2  O   UNL     1     -40.412  20.999   2.275  0.00  0.00    -0.247 OA
ATOM      3  O   UNL     1     -37.082  27.766   1.454  0.00  0.00    -0.286 OA
ATOM      4  C   UNL     1     -38.505  23.861   1.664  0.00  0.00    +0.207 C 
ATOM      5  C   UNL     1     -37.759  22.802   0.840  0.00  0.00    +0.093 C 
ATOM      6  C   UNL     1     -37.597  24.422   2.753  0.00  0.00    +0.030 C 
ATOM      7  C   UNL     1     -38.783  21.712   0.620  0.00  0.00    +0.214 C 
ATOM      8  C   UNL     1     -39.105  24.944   0.786  0.00  0.00    +0.159 C 
ATOM      9  C   UNL     1     -37.128  25.744   2.706  0.00  0.00    +0.072 C 
ATOM     10  C   UNL     1     -39.680  21.861   1.816  0.00  0.00    +0.345 C 
ATOM     11  C   UNL     1     -37.175  23.609   3.822  0.00  0.00    +0.036 C 
ATOM     12  C   UNL     1     -38.667  26.207   0.753  0.00  0.00    +0.078 C 
ATOM     13  C   UNL     1     -37.571  26.656   1.631  0.00  0.00    +0.201 C 
ATOM     14  C   UNL     1     -36.257  26.233   3.689  0.00  0.00    +0.135 C 
ATOM     15  C   UNL     1     -35.851  25.407   4.735  0.00  0.00    +0.045 C 
ATOM     16  C   UNL     1     -36.312  24.097   4.803  0.00  0.00    +0.137 C 
ENDROOT
BRANCH   8  17
ATOM     17  O   UNL     1     -40.171  24.594  -0.027  0.00  0.00    -0.472 OA
ATOM     18  C   UNL     1     -41.290  25.411   0.242  0.00  0.00    +0.252 C 
ENDBRANCH   8  17
BRANCH   7  19
ATOM     19  O   UNL     1     -38.182  20.443   0.568  0.00  0.00    -0.374 OA
ATOM     20  H   UNL     1     -37.492  20.385   1.248  0.00  0.00    +0.211 HD
ENDBRANCH   7  19
BRANCH  16  21
ATOM     21  O   UNL     1     -35.928  23.272   5.819  0.00  0.00    -0.472 OA
ATOM     22  C   UNL     1     -35.178  22.112   5.462  0.00  0.00    +0.252 C 
ENDBRANCH  16  21
BRANCH  14  23
ATOM     23  O   UNL     1     -35.792  27.516   3.670  0.00  0.00    -0.506 OA
ATOM     24  H   UNL     1     -36.324  28.212   4.004  0.00  0.00    +0.292 HD
ENDBRANCH  14  23
BRANCH  15  25
ATOM     25  C   UNL     1     -34.925  25.924   5.789  0.00  0.00    +0.033 C 
ATOM     26  C   UNL     1     -33.492  26.062   5.282  0.00  0.00    +0.005 C 
ENDBRANCH  15  25
TORSDOF 5
ENDMDL
MODEL 3
REMARK VINA RESULT:      -5.8      1.898      4.387
REMARK  Name = 60199563
REMARK  5 active torsions:
REMARK  status: ('A' for Active; 'I' for Inactive)
REMARK    1  A    between atoms: C_7  and  O_19
REMARK    2  A    between atoms: C_8  and  O_17
REMARK    3  A    between atoms: C_14  and  O_23
REMARK    4  A    between atoms: C_15  and  C_25
REMARK    5  A    between atoms: C_16  and  O_21
REMARK                            x       y       z     vdW  Elec       q    Type
REMARK                         _______ _______ _______ _____ _____    ______ ____
ROOT
ATOM      1  O   UNL     1     -37.886  25.733   0.879  0.00  0.00    -0.442 OA
ATOM      2  O   UNL     1     -38.617  27.903   0.741  0.00  0.00    -0.247 OA
ATOM      3  O   UNL     1     -37.274  20.469   1.432  0.00  0.00    -0.286 OA
ATOM      4  C   UNL     1     -38.402  24.473   1.368  0.00  0.00    +0.207 C 
ATOM      5  C   UNL     1     -39.756  24.827   2.000  0.00  0.00    +0.093 C 
ATOM      6  C   UNL     1     -37.442  23.950   2.429  0.00  0.00    +0.030 C 
ATOM      7  C   UNL     1     -40.158  26.118   1.324  0.00  0.00    +0.214 C 
ATOM      8  C   UNL     1     -38.555  23.523   0.194  0.00  0.00    +0.159 C 
ATOM      9  C   UNL     1     -37.035  22.606   2.450  0.00  0.00    +0.072 C 
ATOM     10  C   UNL     1     -38.831  26.723   0.961  0.00  0.00    +0.345 C 
ATOM     11  C   UNL     1     -36.964  24.799   3.445  0.00  0.00    +0.036 C 
ATOM     12  C   UNL     1     -38.154  22.248   0.209  0.00  0.00    +0.078 C 
ATOM     13  C   UNL     1     -37.471  21.677   1.386  0.00  0.00    +0.201 C 
ATOM     14  C   UNL     1     -36.189  22.126   3.458  0.00  0.00    +0.135 C 
ATOM     15  C   UNL     1     -35.733  22.987   4.454  0.00  0.00    +0.045 C 
ATOM     16  C   UNL     1     -36.117  24.323   4.446  0.00  0.00    +0.137 C 
ENDROOT
BRANCH   8  17
ATOM     17  O   UNL     1     -39.146  24.015  -0.958  0.00  0.00    -0.472 OA
ATOM     18  C   UNL     1     -40.183  23.159  -1.388  0.00  0.00    +0.252 C 
ENDBRANCH   8  17
BRANCH   7  19
ATOM     19  O   UNL     1     -40.893  26.945   2.189  0.00  0.00    -0.374 OA
ATOM     20  H   UNL     1     -41.765  27.122   1.803  0.00  0.00    +0.211 HD
ENDBRANCH   7  19
BRANCH  16  21
ATOM     21  O   UNL     1     -35.682  25.182   5.411  0.00  0.00    -0.472 OA
ATOM     22  C   UNL     1     -34.776  26.206   5.005  0.00  0.00    +0.252 C 
ENDBRANCH  16  21
BRANCH  14  23
ATOM     23  O   UNL     1     -35.774  20.826   3.496  0.00  0.00    -0.506 OA
ATOM     24  H   UNL     1     -34.998  20.596   3.968  0.00  0.00    +0.292 HD
ENDBRANCH  14  23
BRANCH  15  25
ATOM     25  C   UNL     1     -34.826  22.482   5.531  0.00  0.00    +0.033 C 
ATOM     26  C   UNL     1     -35.598  21.901   6.712  0.00  0.00    +0.005 C 
ENDBRANCH  15  25
TORSDOF 5
ENDMDL
MODEL 4
REMARK VINA RESULT:      -5.7      1.822      6.686
REMARK  Name = 60199563
REMARK  5 active torsions:
REMARK  status: ('A' for Active; 'I' for Inactive)
REMARK    1  A    between atoms: C_7  and  O_19
REMARK    2  A    between atoms: C_8  and  O_17
REMARK    3  A    between atoms: C_14  and  O_23
REMARK    4  A    between atoms: C_15  and  C_25
REMARK    5  A    between atoms: C_16  and  O_21
REMARK                            x       y       z     vdW  Elec       q    Type
REMARK                         _______ _______ _______ _____ _____    ______ ____
ROOT
ATOM      1  O   UNL     1     -37.397  24.471   4.473  0.00  0.00    -0.442 OA
ATOM      2  O   UNL     1     -36.162  25.854   5.824  0.00  0.00    -0.247 OA
ATOM      3  O   UNL     1     -39.454  21.476   0.575  0.00  0.00    -0.286 OA
ATOM      4  C   UNL     1     -37.446  24.136   3.066  0.00  0.00    +0.207 C 
ATOM      5  C   UNL     1     -36.416  25.066   2.409  0.00  0.00    +0.093 C 
ATOM      6  C   UNL     1     -38.847  24.451   2.555  0.00  0.00    +0.030 C 
ATOM      7  C   UNL     1     -35.473  25.432   3.533  0.00  0.00    +0.214 C 
ATOM      8  C   UNL     1     -37.076  22.673   2.903  0.00  0.00    +0.159 C 
ATOM      9  C   UNL     1     -39.545  23.553   1.732  0.00  0.00    +0.072 C 
ATOM     10  C   UNL     1     -36.352  25.314   4.746  0.00  0.00    +0.345 C 
ATOM     11  C   UNL     1     -39.465  25.676   2.868  0.00  0.00    +0.036 C 
ATOM     12  C   UNL     1     -37.750  21.815   2.131  0.00  0.00    +0.078 C 
ATOM     13  C   UNL     1     -38.963  22.234   1.404  0.00  0.00    +0.201 C 
ATOM     14  C   UNL     1     -40.812  23.875   1.230  0.00  0.00    +0.135 C 
ATOM     15  C   UNL     1     -41.402  25.095   1.552  0.00  0.00    +0.045 C 
ATOM     16  C   UNL     1     -40.730  25.995   2.372  0.00  0.00    +0.137 C 
ENDROOT
BRANCH   8  17
ATOM     17  O   UNL     1     -35.973  22.208   3.600  0.00  0.00    -0.472 OA
ATOM     18  C   UNL     1     -35.489  21.014   3.022  0.00  0.00    +0.252 C 
ENDBRANCH   8  17
BRANCH   7  19
ATOM     19  O   UNL     1     -34.965  26.732   3.376  0.00  0.00    -0.374 OA
ATOM     20  H   UNL     1     -34.383  26.760   2.600  0.00  0.00    +0.211 HD
ENDBRANCH   7  19
BRANCH  16  21
ATOM     21  O   UNL     1     -41.288  27.194   2.700  0.00  0.00    -0.472 OA
ATOM     22  C   UNL     1     -41.964  27.273   3.953  0.00  0.00    +0.252 C 
ENDBRANCH  16  21
BRANCH  14  23
ATOM     23  O   UNL     1     -41.514  23.016   0.434  0.00  0.00    -0.506 OA
ATOM     24  H   UNL     1     -41.079  22.293   0.026  0.00  0.00    +0.292 HD
ENDBRANCH  14  23
BRANCH  15  25
ATOM     25  C   UNL     1     -42.757  25.442   1.022  0.00  0.00    +0.033 C 
ATOM     26  C   UNL     1     -42.683  26.216  -0.290  0.00  0.00    +0.005 C 
ENDBRANCH  15  25
TORSDOF 5
ENDMDL
MODEL 5
REMARK VINA RESULT:      -5.7      3.904      5.941
REMARK  Name = 60199563
REMARK  5 active torsions:
REMARK  status: ('A' for Active; 'I' for Inactive)
REMARK    1  A    between atoms: C_7  and  O_19
REMARK    2  A    between atoms: C_8  and  O_17
REMARK    3  A    between atoms: C_14  and  O_23
REMARK    4  A    between atoms: C_15  and  C_25
REMARK    5  A    between atoms: C_16  and  O_21
REMARK                            x       y       z     vdW  Elec       q    Type
REMARK                         _______ _______ _______ _____ _____    ______ ____
ROOT
ATOM      1  O   UNL     1     -36.459  24.378   5.007  0.00  0.00    -0.442 OA
ATOM      2  O   UNL     1     -35.930  22.571   6.319  0.00  0.00    -0.247 OA
ATOM      3  O   UNL     1     -37.560  27.838   1.107  0.00  0.00    -0.286 OA
ATOM      4  C   UNL     1     -36.398  24.717   3.602  0.00  0.00    +0.207 C 
ATOM      5  C   UNL     1     -35.716  23.511   2.940  0.00  0.00    +0.093 C 
ATOM      6  C   UNL     1     -35.532  25.963   3.454  0.00  0.00    +0.030 C 
ATOM      7  C   UNL     1     -35.965  22.369   3.898  0.00  0.00    +0.214 C 
ATOM      8  C   UNL     1     -37.812  24.922   3.090  0.00  0.00    +0.159 C 
ATOM      9  C   UNL     1     -35.922  27.033   2.633  0.00  0.00    +0.072 C 
ATOM     10  C   UNL     1     -36.093  23.074   5.219  0.00  0.00    +0.345 C 
ATOM     11  C   UNL     1     -34.292  26.056   4.114  0.00  0.00    +0.036 C 
ATOM     12  C   UNL     1     -38.186  25.949   2.321  0.00  0.00    +0.078 C 
ATOM     13  C   UNL     1     -37.232  27.010   1.949  0.00  0.00    +0.201 C 
ATOM     14  C   UNL     1     -35.095  28.152   2.469  0.00  0.00    +0.135 C 
ATOM     15  C   UNL     1     -33.871  28.218   3.132  0.00  0.00    +0.045 C 
ATOM     16  C   UNL     1     -33.471  27.172   3.956  0.00  0.00    +0.137 C 
ENDROOT
BRANCH   8  17
ATOM     17  O   UNL     1     -38.766  23.983   3.447  0.00  0.00    -0.472 OA
ATOM     18  C   UNL     1     -39.431  23.492   2.303  0.00  0.00    +0.252 C 
ENDBRANCH   8  17
BRANCH   7  19
ATOM     19  O   UNL     1     -34.902  21.451   3.893  0.00  0.00    -0.374 OA
ATOM     20  H   UNL     1     -35.221  20.588   3.585  0.00  0.00    +0.211 HD
ENDBRANCH   7  19
BRANCH  16  21
ATOM     21  O   UNL     1     -32.277  27.217   4.613  0.00  0.00    -0.472 OA
ATOM     22  C   UNL     1     -32.315  27.538   6.002  0.00  0.00    +0.252 C 
ENDBRANCH  16  21
BRANCH  14  23
ATOM     23  O   UNL     1     -35.455  29.208   1.683  0.00  0.00    -0.506 OA
ATOM     24  H   UNL     1     -35.102  29.290   0.819  0.00  0.00    +0.292 HD
ENDBRANCH  14  23
BRANCH  15  25
ATOM     25  C   UNL     1     -32.986  29.412   2.964  0.00  0.00    +0.033 C 
ATOM     26  C   UNL     1     -33.319  30.521   3.958  0.00  0.00    +0.005 C 
ENDBRANCH  15  25
TORSDOF 5
ENDMDL
MODEL 6
REMARK VINA RESULT:      -5.7      1.617      5.901
REMARK  Name = 60199563
REMARK  5 active torsions:
REMARK  status: ('A' for Active; 'I' for Inactive)
REMARK    1  A    between atoms: C_7  and  O_19
REMARK    2  A    between atoms: C_8  and  O_17
REMARK    3  A    between atoms: C_14  and  O_23
REMARK    4  A    between atoms: C_15  and  C_25
REMARK    5  A    between atoms: C_16  and  O_21
REMARK                            x       y       z     vdW  Elec       q    Type
REMARK                         _______ _______ _______ _____ _____    ______ ____
ROOT
ATOM      1  O   UNL     1     -38.536  24.303   3.329  0.00  0.00    -0.442 OA
ATOM      2  O   UNL     1     -39.697  26.280   3.239  0.00  0.00    -0.247 OA
ATOM      3  O   UNL     1     -34.966  20.350   3.193  0.00  0.00    -0.286 OA
ATOM      4  C   UNL     1     -37.259  23.806   2.864  0.00  0.00    +0.207 C 
ATOM      5  C   UNL     1     -36.661  24.966   2.055  0.00  0.00    +0.093 C 
ATOM      6  C   UNL     1     -37.519  22.607   1.960  0.00  0.00    +0.030 C 
ATOM      7  C   UNL     1     -37.357  26.195   2.595  0.00  0.00    +0.214 C 
ATOM      8  C   UNL     1     -36.407  23.457   4.071  0.00  0.00    +0.159 C 
ATOM      9  C   UNL     1     -36.768  21.427   2.075  0.00  0.00    +0.072 C 
ATOM     10  C   UNL     1     -38.670  25.642   3.072  0.00  0.00    +0.345 C 
ATOM     11  C   UNL     1     -38.503  22.669   0.955  0.00  0.00    +0.036 C 
ATOM     12  C   UNL     1     -35.704  22.326   4.186  0.00  0.00    +0.078 C 
ATOM     13  C   UNL     1     -35.750  21.289   3.138  0.00  0.00    +0.201 C 
ATOM     14  C   UNL     1     -36.986  20.349   1.206  0.00  0.00    +0.135 C 
ATOM     15  C   UNL     1     -37.964  20.436   0.217  0.00  0.00    +0.045 C 
ATOM     16  C   UNL     1     -38.724  21.594   0.093  0.00  0.00    +0.137 C 
ENDROOT
BRANCH   8  17
ATOM     17  O   UNL     1     -36.361  24.371   5.111  0.00  0.00    -0.472 OA
ATOM     18  C   UNL     1     -35.026  24.739   5.389  0.00  0.00    +0.252 C 
ENDBRANCH   8  17
BRANCH   7  19
ATOM     19  O   UNL     1     -37.527  27.169   1.598  0.00  0.00    -0.374 OA
ATOM     20  H   UNL     1     -37.209  28.025   1.924  0.00  0.00    +0.211 HD
ENDBRANCH   7  19
BRANCH  16  21
ATOM     21  O   UNL     1     -39.686  21.700  -0.867  0.00  0.00    -0.472 OA
ATOM     22  C   UNL     1     -41.042  21.635  -0.433  0.00  0.00    +0.252 C 
ENDBRANCH  16  21
BRANCH  14  23
ATOM     23  O   UNL     1     -36.274  19.188   1.301  0.00  0.00    -0.506 OA
ATOM     24  H   UNL     1     -36.391  18.626   2.042  0.00  0.00    +0.292 HD
ENDBRANCH  14  23
BRANCH  15  25
ATOM     25  C   UNL     1     -38.203  19.287  -0.710  0.00  0.00    +0.033 C 
ATOM     26  C   UNL     1     -37.356  19.380  -1.976  0.00  0.00    +0.005 C 
ENDBRANCH  15  25
TORSDOF 5
ENDMDL
MODEL 7
REMARK VINA RESULT:      -5.7      2.359      6.071
REMARK  Name = 60199563
REMARK  5 active torsions:
REMARK  status: ('A' for Active; 'I' for Inactive)
REMARK    1  A    between atoms: C_7  and  O_19
REMARK    2  A    between atoms: C_8  and  O_17
REMARK    3  A    between atoms: C_14  and  O_23
REMARK    4  A    between atoms: C_15  and  C_25
REMARK    5  A    between atoms: C_16  and  O_21
REMARK                            x       y       z     vdW  Elec       q    Type
REMARK                         _______ _______ _______ _____ _____    ______ ____
ROOT
ATOM      1  O   UNL     1     -35.615  22.957   2.957  0.00  0.00    -0.442 OA
ATOM      2  O   UNL     1     -35.080  20.946   3.924  0.00  0.00    -0.247 OA
ATOM      3  O   UNL     1     -36.874  27.999   1.779  0.00  0.00    -0.286 OA
ATOM      4  C   UNL     1     -36.119  24.240   3.396  0.00  0.00    +0.207 C 
ATOM      5  C   UNL     1     -36.401  24.055   4.894  0.00  0.00    +0.093 C 
ATOM      6  C   UNL     1     -37.415  24.521   2.643  0.00  0.00    +0.030 C 
ATOM      7  C   UNL     1     -35.513  22.900   5.301  0.00  0.00    +0.214 C 
ATOM      8  C   UNL     1     -35.054  25.291   3.144  0.00  0.00    +0.159 C 
ATOM      9  C   UNL     1     -37.673  25.778   2.074  0.00  0.00    +0.072 C 
ATOM     10  C   UNL     1     -35.380  22.125   4.020  0.00  0.00    +0.345 C 
ATOM     11  C   UNL     1     -38.408  23.529   2.532  0.00  0.00    +0.036 C 
ATOM     12  C   UNL     1     -35.298  26.482   2.588  0.00  0.00    +0.078 C 
ATOM     13  C   UNL     1     -36.651  26.844   2.123  0.00  0.00    +0.201 C 
ATOM     14  C   UNL     1     -38.887  26.037   1.426  0.00  0.00    +0.135 C 
ATOM     15  C   UNL     1     -39.856  25.039   1.331  0.00  0.00    +0.045 C 
ATOM     16  C   UNL     1     -39.615  23.786   1.882  0.00  0.00    +0.137 C 
ENDROOT
BRANCH   8  17
ATOM     17  O   UNL     1     -33.754  24.991   3.515  0.00  0.00    -0.472 OA
ATOM     18  C   UNL     1     -32.845  25.883   2.906  0.00  0.00    +0.252 C 
ENDBRANCH   8  17
BRANCH   7  19
ATOM     19  O   UNL     1     -36.101  22.134   6.321  0.00  0.00    -0.374 OA
ATOM     20  H   UNL     1     -36.358  22.715   7.054  0.00  0.00    +0.211 HD
ENDBRANCH   7  19
BRANCH  16  21
ATOM     21  O   UNL     1     -40.549  22.795   1.801  0.00  0.00    -0.472 OA
ATOM     22  C   UNL     1     -40.068  21.468   1.599  0.00  0.00    +0.252 C 
ENDBRANCH  16  21
BRANCH  14  23
ATOM     23  O   UNL     1     -39.160  27.249   0.858  0.00  0.00    -0.506 OA
ATOM     24  H   UNL     1     -38.635  27.995   1.072  0.00  0.00    +0.292 HD
ENDBRANCH  14  23
BRANCH  15  25
ATOM     25  C   UNL     1     -41.152  25.310   0.636  0.00  0.00    +0.033 C 
ATOM     26  C   UNL     1     -42.240  25.771   1.602  0.00  0.00    +0.005 C 
ENDBRANCH  15  25
TORSDOF 5
ENDMDL
MODEL 8
REMARK VINA RESULT:      -5.7      4.313      7.987
REMARK  Name = 60199563
REMARK  5 active torsions:
REMARK  status: ('A' for Active; 'I' for Inactive)
REMARK    1  A    between atoms: C_7  and  O_19
REMARK    2  A    between atoms: C_8  and  O_17
REMARK    3  A    between atoms: C_14  and  O_23
REMARK    4  A    between atoms: C_15  and  C_25
REMARK    5  A    between atoms: C_16  and  O_21
REMARK                            x       y       z     vdW  Elec       q    Type
REMARK                         _______ _______ _______ _____ _____    ______ ____
ROOT
ATOM      1  O   UNL     1     -34.068  28.524   3.751  0.00  0.00    -0.442 OA
ATOM      2  O   UNL     1     -32.836  30.230   2.838  0.00  0.00    -0.247 OA
ATOM      3  O   UNL     1     -36.130  23.901   5.416  0.00  0.00    -0.286 OA
ATOM      4  C   UNL     1     -34.130  27.083   3.632  0.00  0.00    +0.207 C 
ATOM      5  C   UNL     1     -33.119  26.742   2.527  0.00  0.00    +0.093 C 
ATOM      6  C   UNL     1     -35.541  26.705   3.196  0.00  0.00    +0.030 C 
ATOM      7  C   UNL     1     -32.169  27.917   2.514  0.00  0.00    +0.214 C 
ATOM      8  C   UNL     1     -33.742  26.470   4.965  0.00  0.00    +0.159 C 
ATOM      9  C   UNL     1     -36.235  25.648   3.804  0.00  0.00    +0.072 C 
ATOM     10  C   UNL     1     -33.032  29.039   3.018  0.00  0.00    +0.345 C 
ATOM     11  C   UNL     1     -36.171  27.389   2.140  0.00  0.00    +0.036 C 
ATOM     12  C   UNL     1     -34.414  25.473   5.550  0.00  0.00    +0.078 C 
ATOM     13  C   UNL     1     -35.640  24.921   4.945  0.00  0.00    +0.201 C 
ATOM     14  C   UNL     1     -37.513  25.280   3.363  0.00  0.00    +0.135 C 
ATOM     15  C   UNL     1     -38.115  25.971   2.313  0.00  0.00    +0.045 C 
ATOM     16  C   UNL     1     -37.446  27.026   1.704  0.00  0.00    +0.137 C 
ENDROOT
BRANCH   8  17
ATOM     17  O   UNL     1     -32.625  26.978   5.606  0.00  0.00    -0.472 OA
ATOM     18  C   UNL     1     -32.837  27.038   7.001  0.00  0.00    +0.252 C 
ENDBRANCH   8  17
BRANCH   7  19
ATOM     19  O   UNL     1     -31.680  28.170   1.221  0.00  0.00    -0.374 OA
ATOM     20  H   UNL     1     -30.721  28.307   1.259  0.00  0.00    +0.211 HD
ENDBRANCH   7  19
BRANCH  16  21
ATOM     21  O   UNL     1     -38.017  27.716   0.675  0.00  0.00    -0.472 OA
ATOM     22  C   UNL     1     -37.330  28.878   0.216  0.00  0.00    +0.252 C 
ENDBRANCH  16  21
BRANCH  14  23
ATOM     23  O   UNL     1     -38.213  24.261   3.942  0.00  0.00    -0.506 OA
ATOM     24  H   UNL     1     -38.184  24.142   4.871  0.00  0.00    +0.292 HD
ENDBRANCH  14  23
BRANCH  15  25
ATOM     25  C   UNL     1     -39.481  25.585   1.841  0.00  0.00    +0.033 C 
ATOM     26  C   UNL     1     -40.584  26.218   2.685  0.00  0.00    +0.005 C 
ENDBRANCH  15  25
TORSDOF 5
ENDMDL
MODEL 9
REMARK VINA RESULT:      -5.7      3.282      6.561
REMARK  Name = 60199563
REMARK  5 active torsions:
REMARK  status: ('A' for Active; 'I' for Inactive)
REMARK    1  A    between atoms: C_7  and  O_19
REMARK    2  A    between atoms: C_8  and  O_17
REMARK    3  A    between atoms: C_14  and  O_23
REMARK    4  A    between atoms: C_15  and  C_25
REMARK    5  A    between atoms: C_16  and  O_21
REMARK                            x       y       z     vdW  Elec       q    Type
REMARK                         _______ _______ _______ _____ _____    ______ ____
ROOT
ATOM      1  O   UNL     1     -35.713  26.397   3.036  0.00  0.00    -0.442 OA
ATOM      2  O   UNL     1     -35.590  28.363   1.860  0.00  0.00    -0.247 OA
ATOM      3  O   UNL     1     -34.868  21.915   5.792  0.00  0.00    -0.286 OA
ATOM      4  C   UNL     1     -34.797  25.358   3.457  0.00  0.00    +0.207 C 
ATOM      5  C   UNL     1     -33.451  25.749   2.829  0.00  0.00    +0.093 C 
ATOM      6  C   UNL     1     -35.287  24.035   2.882  0.00  0.00    +0.030 C 
ATOM      7  C   UNL     1     -33.567  27.238   2.595  0.00  0.00    +0.214 C 
ATOM      8  C   UNL     1     -34.736  25.353   4.974  0.00  0.00    +0.159 C 
ATOM      9  C   UNL     1     -35.337  22.870   3.664  0.00  0.00    +0.072 C 
ATOM     10  C   UNL     1     -35.048  27.427   2.424  0.00  0.00    +0.345 C 
ATOM     11  C   UNL     1     -35.670  23.939   1.530  0.00  0.00    +0.036 C 
ATOM     12  C   UNL     1     -34.799  24.244   5.718  0.00  0.00    +0.078 C 
ATOM     13  C   UNL     1     -34.988  22.919   5.099  0.00  0.00    +0.201 C 
ATOM     14  C   UNL     1     -35.745  21.649   3.110  0.00  0.00    +0.135 C 
ATOM     15  C   UNL     1     -36.115  21.580   1.769  0.00  0.00    +0.045 C 
ATOM     16  C   UNL     1     -36.081  22.724   0.980  0.00  0.00    +0.137 C 
ENDROOT
BRANCH   8  17
ATOM     17  O   UNL     1     -34.608  26.573   5.616  0.00  0.00    -0.472 OA
ATOM     18  C   UNL     1     -33.422  26.608   6.383  0.00  0.00    +0.252 C 
ENDBRANCH   8  17
BRANCH   7  19
ATOM     19  O   UNL     1     -32.851  27.636   1.454  0.00  0.00    -0.374 OA
ATOM     20  H   UNL     1     -32.009  28.035   1.724  0.00  0.00    +0.211 HD
ENDBRANCH   7  19
BRANCH  16  21
ATOM     21  O   UNL     1     -36.439  22.679  -0.335  0.00  0.00    -0.472 OA
ATOM     22  C   UNL     1     -35.408  22.895  -1.295  0.00  0.00    +0.252 C 
ENDBRANCH  16  21
BRANCH  14  23
ATOM     23  O   UNL     1     -35.809  20.505   3.852  0.00  0.00    -0.506 OA
ATOM     24  H   UNL     1     -35.239  19.787   3.655  0.00  0.00    +0.292 HD
ENDBRANCH  14  23
BRANCH  15  25
ATOM     25  C   UNL     1     -36.556  20.281   1.174  0.00  0.00    +0.033 C 
ATOM     26  C   UNL     1     -35.388  19.482   0.602  0.00  0.00    +0.005 C 
ENDBRANCH  15  25
TORSDOF 5
ENDMDL
