MODEL 1
REMARK VINA RESULT:      -5.7      0.000      0.000
REMARK  Name = 193570
REMARK  3 active torsions:
REMARK  status: ('A' for Active; 'I' for Inactive)
REMARK    1  A    between atoms: C_2  and  S_11
REMARK    2  A    between atoms: C_4  and  S_15
REMARK    3  A    between atoms: C_9  and  N_19
REMARK                            x       y       z     vdW  Elec       q    Type
REMARK                         _______ _______ _______ _____ _____    ______ ____
ROOT
ATOM      1  C   UNL     1     -37.137  20.929   1.319  0.00  0.00    +0.019 C 
ATOM      2  C   UNL     1     -38.005  21.911   1.826  0.00  0.00    +0.114 C 
ATOM      3  C   UNL     1     -35.852  20.778   1.893  0.00  0.00    +0.003 C 
ATOM      4  C   UNL     1     -36.347  22.581   3.449  0.00  0.00    +0.114 C 
ATOM      5  C   UNL     1     -37.611  22.730   2.885  0.00  0.00    +0.038 C 
ATOM      6  C   UNL     1     -35.473  21.612   2.958  0.00  0.00    +0.019 C 
ATOM      7  C   UNL     1     -37.517  20.095   0.255  0.00  0.00    +0.019 C 
ATOM      8  C   UNL     1     -34.985  19.797   1.385  0.00  0.00    +0.001 C 
ATOM      9  C   UNL     1     -36.641  19.126  -0.237  0.00  0.00    +0.087 C 
ATOM     10  C   UNL     1     -35.378  18.977   0.328  0.00  0.00    +0.018 C 
ENDROOT
BRANCH   2  11
ATOM     11  S   UNL     1     -39.619  22.179   1.186  0.00  0.00    +0.042 S 
ATOM     12  O   UNL     1     -40.244  23.369   2.112  0.00  0.00    -0.065 OA
ATOM     13  O   UNL     1     -39.475  22.709  -0.158  0.00  0.00    -0.065 OA
ATOM     14  O   UNL     1     -40.369  20.962   1.437  0.00  0.00    -0.065 OA
ENDBRANCH   2  11
BRANCH   4  15
ATOM     15  S   UNL     1     -35.856  23.609   4.773  0.00  0.00    +0.042 S 
ATOM     16  O   UNL     1     -35.961  22.669   6.107  0.00  0.00    -0.065 OA
ATOM     17  O   UNL     1     -34.448  23.932   4.592  0.00  0.00    -0.065 OA
ATOM     18  O   UNL     1     -36.852  24.663   4.884  0.00  0.00    -0.065 OA
ENDBRANCH   4  15
BRANCH   9  19
ATOM     19  N   UNL     1     -37.028  18.314  -1.284  0.00  0.00    -0.130 NA
ATOM     20  N   UNL     1     -37.334  17.671  -2.112  0.00  0.00    +0.004 NA
ENDBRANCH   9  19
TORSDOF 3
ENDMDL
MODEL 2
REMARK VINA RESULT:      -5.6      3.331      4.448
REMARK  Name = 193570
REMARK  3 active torsions:
REMARK  status: ('A' for Active; 'I' for Inactive)
REMARK    1  A    between atoms: C_2  and  S_11
REMARK    2  A    between atoms: C_4  and  S_15
REMARK    3  A    between atoms: C_9  and  N_19
REMARK                            x       y       z     vdW  Elec       q    Type
REMARK                         _______ _______ _______ _____ _____    ______ ____
ROOT
ATOM      1  C   UNL     1     -37.661  22.865   2.569  0.00  0.00    +0.019 C 
ATOM      2  C   UNL     1     -36.344  22.538   2.933  0.00  0.00    +0.114 C 
ATOM      3  C   UNL     1     -38.179  24.137   2.913  0.00  0.00    +0.003 C 
ATOM      4  C   UNL     1     -36.059  24.703   3.963  0.00  0.00    +0.114 C 
ATOM      5  C   UNL     1     -35.549  23.453   3.624  0.00  0.00    +0.038 C 
ATOM      6  C   UNL     1     -37.364  25.044   3.610  0.00  0.00    +0.019 C 
ATOM      7  C   UNL     1     -38.475  21.957   1.873  0.00  0.00    +0.019 C 
ATOM      8  C   UNL     1     -39.495  24.462   2.551  0.00  0.00    +0.001 C 
ATOM      9  C   UNL     1     -39.782  22.299   1.521  0.00  0.00    +0.087 C 
ATOM     10  C   UNL     1     -40.290  23.549   1.859  0.00  0.00    +0.018 C 
ENDROOT
BRANCH   2  11
ATOM     11  S   UNL     1     -35.607  20.989   2.553  0.00  0.00    +0.042 S 
ATOM     12  O   UNL     1     -34.965  20.475   3.963  0.00  0.00    -0.065 OA
ATOM     13  O   UNL     1     -36.674  20.069   2.205  0.00  0.00    -0.065 OA
ATOM     14  O   UNL     1     -34.522  21.264   1.630  0.00  0.00    -0.065 OA
ENDBRANCH   2  11
BRANCH   4  15
ATOM     15  S   UNL     1     -35.062  25.846   4.829  0.00  0.00    +0.042 S 
ATOM     16  O   UNL     1     -35.024  27.183   3.887  0.00  0.00    -0.065 OA
ATOM     17  O   UNL     1     -35.759  26.212   6.054  0.00  0.00    -0.065 OA
ATOM     18  O   UNL     1     -33.720  25.288   4.876  0.00  0.00    -0.065 OA
ENDBRANCH   4  15
BRANCH   9  19
ATOM     19  N   UNL     1     -40.570  21.396   0.837  0.00  0.00    -0.130 NA
ATOM     20  N   UNL     1     -41.195  20.682   0.295  0.00  0.00    +0.004 NA
ENDBRANCH   9  19
TORSDOF 3
ENDMDL
MODEL 3
REMARK VINA RESULT:      -5.5      5.479      7.306
REMARK  Name = 193570
REMARK  3 active torsions:
REMARK  status: ('A' for Active; 'I' for Inactive)
REMARK    1  A    between atoms: C_2  and  S_11
REMARK    2  A    between atoms: C_4  and  S_15
REMARK    3  A    between atoms: C_9  and  N_19
REMARK                            x       y       z     vdW  Elec       q    Type
REMARK                         _______ _______ _______ _____ _____    ______ ____
ROOT
ATOM      1  C   UNL     1     -34.162  25.074   3.274  0.00  0.00    +0.019 C 
ATOM      2  C   UNL     1     -34.082  24.632   1.943  0.00  0.00    +0.114 C 
ATOM      3  C   UNL     1     -34.935  24.337   4.203  0.00  0.00    +0.003 C 
ATOM      4  C   UNL     1     -35.515  22.756   2.448  0.00  0.00    +0.114 C 
ATOM      5  C   UNL     1     -34.754  23.480   1.534  0.00  0.00    +0.038 C 
ATOM      6  C   UNL     1     -35.605  23.180   3.773  0.00  0.00    +0.019 C 
ATOM      7  C   UNL     1     -33.492  26.231   3.703  0.00  0.00    +0.019 C 
ATOM      8  C   UNL     1     -35.015  24.779   5.533  0.00  0.00    +0.001 C 
ATOM      9  C   UNL     1     -33.584  26.656   5.029  0.00  0.00    +0.087 C 
ATOM     10  C   UNL     1     -34.343  25.931   5.942  0.00  0.00    +0.018 C 
ENDROOT
BRANCH   2  11
ATOM     11  S   UNL     1     -33.151  25.474   0.713  0.00  0.00    +0.042 S 
ATOM     12  O   UNL     1     -33.343  24.582  -0.640  0.00  0.00    -0.065 OA
ATOM     13  O   UNL     1     -33.789  26.756   0.479  0.00  0.00    -0.065 OA
ATOM     14  O   UNL     1     -31.760  25.392   1.122  0.00  0.00    -0.065 OA
ENDBRANCH   2  11
BRANCH   4  15
ATOM     15  S   UNL     1     -36.356  21.313   1.933  0.00  0.00    +0.042 S 
ATOM     16  O   UNL     1     -37.936  21.607   2.239  0.00  0.00    -0.065 OA
ATOM     17  O   UNL     1     -36.217  21.204   0.489  0.00  0.00    -0.065 OA
ATOM     18  O   UNL     1     -35.920  20.235   2.806  0.00  0.00    -0.065 OA
ENDBRANCH   4  15
BRANCH   9  19
ATOM     19  N   UNL     1     -32.920  27.795   5.436  0.00  0.00    -0.130 NA
ATOM     20  N   UNL     1     -32.395  28.697   5.759  0.00  0.00    +0.004 NA
ENDBRANCH   9  19
TORSDOF 3
ENDMDL
MODEL 4
REMARK VINA RESULT:      -5.4      6.659      8.489
REMARK  Name = 193570
REMARK  3 active torsions:
REMARK  status: ('A' for Active; 'I' for Inactive)
REMARK    1  A    between atoms: C_2  and  S_11
REMARK    2  A    between atoms: C_4  and  S_15
REMARK    3  A    between atoms: C_9  and  N_19
REMARK                            x       y       z     vdW  Elec       q    Type
REMARK                         _______ _______ _______ _____ _____    ______ ____
ROOT
ATOM      1  C   UNL     1     -33.323  27.063   4.347  0.00  0.00    +0.019 C 
ATOM      2  C   UNL     1     -33.917  26.564   3.176  0.00  0.00    +0.114 C 
ATOM      3  C   UNL     1     -33.587  26.425   5.583  0.00  0.00    +0.003 C 
ATOM      4  C   UNL     1     -35.018  24.825   4.438  0.00  0.00    +0.114 C 
ATOM      5  C   UNL     1     -34.757  25.452   3.223  0.00  0.00    +0.038 C 
ATOM      6  C   UNL     1     -34.437  25.307   5.610  0.00  0.00    +0.019 C 
ATOM      7  C   UNL     1     -32.473  28.181   4.318  0.00  0.00    +0.019 C 
ATOM      8  C   UNL     1     -32.994  26.925   6.753  0.00  0.00    +0.001 C 
ATOM      9  C   UNL     1     -31.893  28.664   5.492  0.00  0.00    +0.087 C 
ATOM     10  C   UNL     1     -32.152  28.036   6.707  0.00  0.00    +0.018 C 
ENDROOT
BRANCH   2  11
ATOM     11  S   UNL     1     -33.654  27.282   1.593  0.00  0.00    +0.042 S 
ATOM     12  O   UNL     1     -34.562  26.388   0.573  0.00  0.00    -0.065 OA
ATOM     13  O   UNL     1     -34.220  28.618   1.618  0.00  0.00    -0.065 OA
ATOM     14  O   UNL     1     -32.255  27.065   1.270  0.00  0.00    -0.065 OA
ENDBRANCH   2  11
BRANCH   4  15
ATOM     15  S   UNL     1     -36.072  23.434   4.495  0.00  0.00    +0.042 S 
ATOM     16  O   UNL     1     -35.389  22.338   3.491  0.00  0.00    -0.065 OA
ATOM     17  O   UNL     1     -36.007  22.876   5.838  0.00  0.00    -0.065 OA
ATOM     18  O   UNL     1     -37.344  23.842   3.920  0.00  0.00    -0.065 OA
ENDBRANCH   4  15
BRANCH   9  19
ATOM     19  N   UNL     1     -31.061  29.764   5.449  0.00  0.00    -0.130 NA
ATOM     20  N   UNL     1     -30.403  30.635   5.414  0.00  0.00    +0.004 NA
ENDBRANCH   9  19
TORSDOF 3
ENDMDL
MODEL 5
REMARK VINA RESULT:      -5.3      5.588      6.915
REMARK  Name = 193570
REMARK  3 active torsions:
REMARK  status: ('A' for Active; 'I' for Inactive)
REMARK    1  A    between atoms: C_2  and  S_11
REMARK    2  A    between atoms: C_4  and  S_15
REMARK    3  A    between atoms: C_9  and  N_19
REMARK                            x       y       z     vdW  Elec       q    Type
REMARK                         _______ _______ _______ _____ _____    ______ ____
ROOT
ATOM      1  C   UNL     1     -34.973  26.180   3.776  0.00  0.00    +0.019 C 
ATOM      2  C   UNL     1     -34.525  27.332   3.107  0.00  0.00    +0.114 C 
ATOM      3  C   UNL     1     -34.364  25.808   4.998  0.00  0.00    +0.003 C 
ATOM      4  C   UNL     1     -32.892  27.737   4.839  0.00  0.00    +0.114 C 
ATOM      5  C   UNL     1     -33.491  28.104   3.637  0.00  0.00    +0.038 C 
ATOM      6  C   UNL     1     -33.325  26.598   5.515  0.00  0.00    +0.019 C 
ATOM      7  C   UNL     1     -36.013  25.391   3.257  0.00  0.00    +0.019 C 
ATOM      8  C   UNL     1     -34.812  24.656   5.665  0.00  0.00    +0.001 C 
ATOM      9  C   UNL     1     -36.445  24.250   3.935  0.00  0.00    +0.087 C 
ATOM     10  C   UNL     1     -35.846  23.884   5.136  0.00  0.00    +0.018 C 
ENDROOT
BRANCH   2  11
ATOM     11  S   UNL     1     -35.213  27.880   1.587  0.00  0.00    +0.042 S 
ATOM     12  O   UNL     1     -34.431  29.273   1.252  0.00  0.00    -0.065 OA
ATOM     13  O   UNL     1     -34.841  26.920   0.564  0.00  0.00    -0.065 OA
ATOM     14  O   UNL     1     -36.606  28.191   1.854  0.00  0.00    -0.065 OA
ENDBRANCH   2  11
BRANCH   4  15
ATOM     15  S   UNL     1     -31.597  28.706   5.500  0.00  0.00    +0.042 S 
ATOM     16  O   UNL     1     -30.963  29.504   4.221  0.00  0.00    -0.065 OA
ATOM     17  O   UNL     1     -32.188  29.708   6.375  0.00  0.00    -0.065 OA
ATOM     18  O   UNL     1     -30.590  27.783   6.001  0.00  0.00    -0.065 OA
ENDBRANCH   4  15
BRANCH   9  19
ATOM     19  N   UNL     1     -37.468  23.484   3.413  0.00  0.00    -0.130 NA
ATOM     20  N   UNL     1     -38.276  22.877   3.000  0.00  0.00    +0.004 NA
ENDBRANCH   9  19
TORSDOF 3
ENDMDL
MODEL 6
REMARK VINA RESULT:      -5.3      2.323      4.757
REMARK  Name = 193570
REMARK  3 active torsions:
REMARK  status: ('A' for Active; 'I' for Inactive)
REMARK    1  A    between atoms: C_2  and  S_11
REMARK    2  A    between atoms: C_4  and  S_15
REMARK    3  A    between atoms: C_9  and  N_19
REMARK                            x       y       z     vdW  Elec       q    Type
REMARK                         _______ _______ _______ _____ _____    ______ ____
ROOT
ATOM      1  C   UNL     1     -36.712  22.679   2.677  0.00  0.00    +0.019 C 
ATOM      2  C   UNL     1     -36.829  23.705   3.628  0.00  0.00    +0.114 C 
ATOM      3  C   UNL     1     -37.680  22.574   1.648  0.00  0.00    +0.003 C 
ATOM      4  C   UNL     1     -38.836  24.512   2.556  0.00  0.00    +0.114 C 
ATOM      5  C   UNL     1     -37.885  24.616   3.566  0.00  0.00    +0.038 C 
ATOM      6  C   UNL     1     -38.735  23.500   1.603  0.00  0.00    +0.019 C 
ATOM      7  C   UNL     1     -35.656  21.754   2.723  0.00  0.00    +0.019 C 
ATOM      8  C   UNL     1     -37.562  21.548   0.698  0.00  0.00    +0.001 C 
ATOM      9  C   UNL     1     -35.556  20.740   1.769  0.00  0.00    +0.087 C 
ATOM     10  C   UNL     1     -36.507  20.638   0.759  0.00  0.00    +0.018 C 
ENDROOT
BRANCH   2  11
ATOM     11  S   UNL     1     -35.683  23.923   4.942  0.00  0.00    +0.042 S 
ATOM     12  O   UNL     1     -36.094  25.347   5.625  0.00  0.00    -0.065 OA
ATOM     13  O   UNL     1     -35.937  22.884   5.924  0.00  0.00    -0.065 OA
ATOM     14  O   UNL     1     -34.376  24.070   4.328  0.00  0.00    -0.065 OA
ENDBRANCH   2  11
BRANCH   4  15
ATOM     15  S   UNL     1     -40.157  25.652   2.481  0.00  0.00    +0.042 S 
ATOM     16  O   UNL     1     -41.251  24.976   1.470  0.00  0.00    -0.065 OA
ATOM     17  O   UNL     1     -40.777  25.709   3.797  0.00  0.00    -0.065 OA
ATOM     18  O   UNL     1     -39.642  26.857   1.849  0.00  0.00    -0.065 OA
ENDBRANCH   4  15
BRANCH   9  19
ATOM     19  N   UNL     1     -34.513  19.838   1.828  0.00  0.00    -0.130 NA
ATOM     20  N   UNL     1     -33.687  19.125   1.875  0.00  0.00    +0.004 NA
ENDBRANCH   9  19
TORSDOF 3
ENDMDL
MODEL 7
REMARK VINA RESULT:      -5.2     18.310     19.776
REMARK  Name = 193570
REMARK  3 active torsions:
REMARK  status: ('A' for Active; 'I' for Inactive)
REMARK    1  A    between atoms: C_2  and  S_11
REMARK    2  A    between atoms: C_4  and  S_15
REMARK    3  A    between atoms: C_9  and  N_19
REMARK                            x       y       z     vdW  Elec       q    Type
REMARK                         _______ _______ _______ _____ _____    ______ ____
ROOT
ATOM      1  C   UNL     1     -32.505  40.118   2.714  0.00  0.00    +0.019 C 
ATOM      2  C   UNL     1     -31.522  39.371   3.383  0.00  0.00    +0.114 C 
ATOM      3  C   UNL     1     -33.051  41.264   3.341  0.00  0.00    +0.003 C 
ATOM      4  C   UNL     1     -31.620  40.875   5.269  0.00  0.00    +0.114 C 
ATOM      5  C   UNL     1     -31.083  39.749   4.652  0.00  0.00    +0.038 C 
ATOM      6  C   UNL     1     -32.596  41.628   4.619  0.00  0.00    +0.019 C 
ATOM      7  C   UNL     1     -32.960  39.753   1.436  0.00  0.00    +0.019 C 
ATOM      8  C   UNL     1     -34.034  42.010   2.672  0.00  0.00    +0.001 C 
ATOM      9  C   UNL     1     -33.938  40.507   0.787  0.00  0.00    +0.087 C 
ATOM     10  C   UNL     1     -34.474  41.633   1.403  0.00  0.00    +0.018 C 
ENDROOT
BRANCH   2  11
ATOM     11  S   UNL     1     -30.782  37.935   2.693  0.00  0.00    +0.042 S 
ATOM     12  O   UNL     1     -29.842  37.334   3.885  0.00  0.00    -0.065 OA
ATOM     13  O   UNL     1     -31.838  36.970   2.448  0.00  0.00    -0.065 OA
ATOM     14  O   UNL     1     -29.920  38.392   1.618  0.00  0.00    -0.065 OA
ENDBRANCH   2  11
BRANCH   4  15
ATOM     15  S   UNL     1     -31.068  41.346   6.859  0.00  0.00    +0.042 S 
ATOM     16  O   UNL     1     -32.192  40.762   7.893  0.00  0.00    -0.065 OA
ATOM     17  O   UNL     1     -29.829  40.633   7.133  0.00  0.00    -0.065 OA
ATOM     18  O   UNL     1     -31.118  42.798   6.911  0.00  0.00    -0.065 OA
ENDBRANCH   4  15
BRANCH   9  19
ATOM     19  N   UNL     1     -34.375  40.135  -0.469  0.00  0.00    -0.130 NA
ATOM     20  N   UNL     1     -34.720  39.841  -1.462  0.00  0.00    +0.004 NA
ENDBRANCH   9  19
TORSDOF 3
ENDMDL
MODEL 8
REMARK VINA RESULT:      -5.2      4.480      5.748
REMARK  Name = 193570
REMARK  3 active torsions:
REMARK  status: ('A' for Active; 'I' for Inactive)
REMARK    1  A    between atoms: C_2  and  S_11
REMARK    2  A    between atoms: C_4  and  S_15
REMARK    3  A    between atoms: C_9  and  N_19
REMARK                            x       y       z     vdW  Elec       q    Type
REMARK                         _______ _______ _______ _____ _____    ______ ____
ROOT
ATOM      1  C   UNL     1     -34.426  24.375   3.081  0.00  0.00    +0.019 C 
ATOM      2  C   UNL     1     -33.840  25.398   2.317  0.00  0.00    +0.114 C 
ATOM      3  C   UNL     1     -34.429  24.481   4.493  0.00  0.00    +0.003 C 
ATOM      4  C   UNL     1     -33.269  26.612   4.325  0.00  0.00    +0.114 C 
ATOM      5  C   UNL     1     -33.266  26.508   2.936  0.00  0.00    +0.038 C 
ATOM      6  C   UNL     1     -33.847  25.607   5.098  0.00  0.00    +0.019 C 
ATOM      7  C   UNL     1     -35.008  23.250   2.476  0.00  0.00    +0.019 C 
ATOM      8  C   UNL     1     -35.015  23.458   5.256  0.00  0.00    +0.001 C 
ATOM      9  C   UNL     1     -35.586  22.243   3.251  0.00  0.00    +0.087 C 
ATOM     10  C   UNL     1     -35.589  22.348   4.638  0.00  0.00    +0.018 C 
ENDROOT
BRANCH   2  11
ATOM     11  S   UNL     1     -33.784  25.363   0.562  0.00  0.00    +0.042 S 
ATOM     12  O   UNL     1     -32.998  26.731   0.141  0.00  0.00    -0.065 OA
ATOM     13  O   UNL     1     -32.943  24.246   0.171  0.00  0.00    -0.065 OA
ATOM     14  O   UNL     1     -35.157  25.465   0.104  0.00  0.00    -0.065 OA
ENDBRANCH   2  11
BRANCH   4  15
ATOM     15  S   UNL     1     -32.549  28.004   5.098  0.00  0.00    +0.042 S 
ATOM     16  O   UNL     1     -30.958  27.922   4.731  0.00  0.00    -0.065 OA
ATOM     17  O   UNL     1     -33.073  29.198   4.450  0.00  0.00    -0.065 OA
ATOM     18  O   UNL     1     -32.693  27.813   6.532  0.00  0.00    -0.065 OA
ENDBRANCH   4  15
BRANCH   9  19
ATOM     19  N   UNL     1     -36.154  21.143   2.641  0.00  0.00    -0.130 NA
ATOM     20  N   UNL     1     -36.603  20.273   2.159  0.00  0.00    +0.004 NA
ENDBRANCH   9  19
TORSDOF 3
ENDMDL
MODEL 9
REMARK VINA RESULT:      -5.2      4.021      5.190
REMARK  Name = 193570
REMARK  3 active torsions:
REMARK  status: ('A' for Active; 'I' for Inactive)
REMARK    1  A    between atoms: C_2  and  S_11
REMARK    2  A    between atoms: C_4  and  S_15
REMARK    3  A    between atoms: C_9  and  N_19
REMARK                            x       y       z     vdW  Elec       q    Type
REMARK                         _______ _______ _______ _____ _____    ______ ____
ROOT
ATOM      1  C   UNL     1     -38.812  23.411   2.222  0.00  0.00    +0.019 C 
ATOM      2  C   UNL     1     -39.980  23.398   1.441  0.00  0.00    +0.114 C 
ATOM      3  C   UNL     1     -38.553  24.522   3.061  0.00  0.00    +0.003 C 
ATOM      4  C   UNL     1     -40.623  25.557   2.310  0.00  0.00    +0.114 C 
ATOM      5  C   UNL     1     -40.878  24.464   1.486  0.00  0.00    +0.038 C 
ATOM      6  C   UNL     1     -39.469  25.586   3.093  0.00  0.00    +0.019 C 
ATOM      7  C   UNL     1     -37.897  22.346   2.190  0.00  0.00    +0.019 C 
ATOM      8  C   UNL     1     -37.386  24.535   3.841  0.00  0.00    +0.001 C 
ATOM      9  C   UNL     1     -36.742  22.377   2.973  0.00  0.00    +0.087 C 
ATOM     10  C   UNL     1     -36.488  23.469   3.797  0.00  0.00    +0.018 C 
ENDROOT
BRANCH   2  11
ATOM     11  S   UNL     1     -40.394  22.068   0.369  0.00  0.00    +0.042 S 
ATOM     12  O   UNL     1     -41.850  22.469  -0.250  0.00  0.00    -0.065 OA
ATOM     13  O   UNL     1     -39.443  22.075  -0.727  0.00  0.00    -0.065 OA
ATOM     14  O   UNL     1     -40.561  20.898   1.211  0.00  0.00    -0.065 OA
ENDBRANCH   2  11
BRANCH   4  15
ATOM     15  S   UNL     1     -41.749  26.891   2.365  0.00  0.00    +0.042 S 
ATOM     16  O   UNL     1     -41.185  27.973   1.276  0.00  0.00    -0.065 OA
ATOM     17  O   UNL     1     -43.031  26.416   1.866  0.00  0.00    -0.065 OA
ATOM     18  O   UNL     1     -41.640  27.483   3.688  0.00  0.00    -0.065 OA
ENDBRANCH   4  15
BRANCH   9  19
ATOM     19  N   UNL     1     -35.851  21.324   2.930  0.00  0.00    -0.130 NA
ATOM     20  N   UNL     1     -35.146  20.490   2.896  0.00  0.00    +0.004 NA
ENDBRANCH   9  19
TORSDOF 3
ENDMDL
