MODEL 1
REMARK VINA RESULT:      -5.2      0.000      0.000
REMARK  Name = 5479208
REMARK  9 active torsions:
REMARK  status: ('A' for Active; 'I' for Inactive)
REMARK    1  A    between atoms: N_1  and  C_2
REMARK    2  A    between atoms: N_1  and  N_3
REMARK    3  A    between atoms: C_2  and  C_12
REMARK    4  A    between atoms: C_2  and  C_23
REMARK    5  A    between atoms: N_3  and  C_6
REMARK    6  A    between atoms: N_11  and  C_12
REMARK    7  A    between atoms: N_11  and  N_13
REMARK    8  A    between atoms: C_12  and  C_21
REMARK    9  A    between atoms: N_13  and  C_16
REMARK                            x       y       z     vdW  Elec       q    Type
REMARK                         _______ _______ _______ _____ _____    ______ ____
ROOT
ATOM      1  C   UNL     1     -35.218  23.671   4.417  0.00  0.00    +0.116 C 
ENDROOT
BRANCH   1   2
ATOM      2  C   UNL     1     -35.480  23.305   5.858  0.00  0.00    +0.021 C 
ATOM      3  C   UNL     1     -35.033  21.883   6.142  0.00  0.00    +0.002 C 
ENDBRANCH   1   2
BRANCH   1   4
ATOM      4  N   UNL     1     -34.333  24.499   3.961  0.00  0.00    -0.097 NA
BRANCH   4   5
ATOM      5  N   UNL     1     -34.887  25.655   3.428  0.00  0.00    -0.145 NA
BRANCH   5   8
ATOM      6  N   UNL     1     -33.842  26.757   5.283  0.00  0.00    -0.369 N 
ATOM      7  N   UNL     1     -34.957  27.971   3.700  0.00  0.00    -0.369 N 
ATOM      8  C   UNL     1     -34.568  26.721   4.114  0.00  0.00    +0.207 C 
ATOM      9  H   UNL     1     -33.507  25.921   5.680  0.00  0.00    +0.159 HD
ATOM     10  H   UNL     1     -33.658  27.619   5.721  0.00  0.00    +0.159 HD
ATOM     11  H   UNL     1     -35.484  28.075   2.875  0.00  0.00    +0.159 HD
ATOM     12  H   UNL     1     -34.710  28.764   4.229  0.00  0.00    +0.159 HD
ENDBRANCH   5   8
ENDBRANCH   4   5
ENDBRANCH   1   4
BRANCH   1  13
ATOM     13  C   UNL     1     -36.058  22.972   3.386  0.00  0.00    +0.116 C 
BRANCH  13  14
ATOM     14  C   UNL     1     -35.314  22.219   2.311  0.00  0.00    +0.021 C 
ATOM     15  C   UNL     1     -35.355  20.724   2.575  0.00  0.00    +0.002 C 
ENDBRANCH  13  14
BRANCH  13  16
ATOM     16  N   UNL     1     -37.340  23.066   3.542  0.00  0.00    -0.097 NA
BRANCH  16  17
ATOM     17  N   UNL     1     -37.932  23.970   2.669  0.00  0.00    -0.145 NA
BRANCH  17  20
ATOM     18  N   UNL     1     -39.787  24.799   3.819  0.00  0.00    -0.369 N 
ATOM     19  N   UNL     1     -38.014  26.210   3.520  0.00  0.00    -0.369 N 
ATOM     20  C   UNL     1     -38.525  24.952   3.298  0.00  0.00    +0.207 C 
ATOM     21  H   UNL     1     -40.258  23.940   3.723  0.00  0.00    +0.159 HD
ATOM     22  H   UNL     1     -40.218  25.548   4.290  0.00  0.00    +0.159 HD
ATOM     23  H   UNL     1     -37.115  26.441   3.193  0.00  0.00    +0.159 HD
ATOM     24  H   UNL     1     -38.547  26.878   4.008  0.00  0.00    +0.159 HD
ENDBRANCH  17  20
ENDBRANCH  16  17
ENDBRANCH  13  16
ENDBRANCH   1  13
TORSDOF 9
ENDMDL
MODEL 2
REMARK VINA RESULT:      -5.2      0.971      1.288
REMARK  Name = 5479208
REMARK  9 active torsions:
REMARK  status: ('A' for Active; 'I' for Inactive)
REMARK    1  A    between atoms: N_1  and  C_2
REMARK    2  A    between atoms: N_1  and  N_3
REMARK    3  A    between atoms: C_2  and  C_12
REMARK    4  A    between atoms: C_2  and  C_23
REMARK    5  A    between atoms: N_3  and  C_6
REMARK    6  A    between atoms: N_11  and  C_12
REMARK    7  A    between atoms: N_11  and  N_13
REMARK    8  A    between atoms: C_12  and  C_21
REMARK    9  A    between atoms: N_13  and  C_16
REMARK                            x       y       z     vdW  Elec       q    Type
REMARK                         _______ _______ _______ _____ _____    ______ ____
ROOT
ATOM      1  C   UNL     1     -35.313  23.469   4.552  0.00  0.00    +0.116 C 
ENDROOT
BRANCH   1   2
ATOM      2  C   UNL     1     -35.568  22.881   5.918  0.00  0.00    +0.021 C 
ATOM      3  C   UNL     1     -34.905  21.523   6.052  0.00  0.00    +0.002 C 
ENDBRANCH   1   2
BRANCH   1   4
ATOM      4  N   UNL     1     -34.493  24.422   4.242  0.00  0.00    -0.097 NA
BRANCH   4   5
ATOM      5  N   UNL     1     -34.493  25.464   5.160  0.00  0.00    -0.145 NA
BRANCH   5   8
ATOM      6  N   UNL     1     -36.654  26.482   5.364  0.00  0.00    -0.369 N 
ATOM      7  N   UNL     1     -35.076  27.393   3.984  0.00  0.00    -0.369 N 
ATOM      8  C   UNL     1     -35.373  26.385   4.867  0.00  0.00    +0.207 C 
ATOM      9  H   UNL     1     -36.984  25.815   6.007  0.00  0.00    +0.159 HD
ATOM     10  H   UNL     1     -37.238  27.220   5.075  0.00  0.00    +0.159 HD
ATOM     11  H   UNL     1     -34.187  27.431   3.560  0.00  0.00    +0.159 HD
ATOM     12  H   UNL     1     -35.750  28.079   3.773  0.00  0.00    +0.159 HD
ENDBRANCH   5   8
ENDBRANCH   4   5
ENDBRANCH   1   4
BRANCH   1  13
ATOM     13  C   UNL     1     -36.074  22.859   3.409  0.00  0.00    +0.116 C 
BRANCH  13  14
ATOM     14  C   UNL     1     -35.252  22.192   2.334  0.00  0.00    +0.021 C 
ATOM     15  C   UNL     1     -35.320  20.681   2.463  0.00  0.00    +0.002 C 
ENDBRANCH  13  14
BRANCH  13  16
ATOM     16  N   UNL     1     -37.364  22.945   3.477  0.00  0.00    -0.097 NA
BRANCH  16  17
ATOM     17  N   UNL     1     -37.828  24.254   3.449  0.00  0.00    -0.145 NA
BRANCH  17  20
ATOM     18  N   UNL     1     -39.939  25.122   3.939  0.00  0.00    -0.369 N 
ATOM     19  N   UNL     1     -39.782  23.646   2.201  0.00  0.00    -0.369 N 
ATOM     20  C   UNL     1     -39.108  24.322   3.192  0.00  0.00    +0.207 C 
ATOM     21  H   UNL     1     -39.572  25.656   4.680  0.00  0.00    +0.159 HD
ATOM     22  H   UNL     1     -40.900  25.161   3.732  0.00  0.00    +0.159 HD
ATOM     23  H   UNL     1     -39.294  23.040   1.598  0.00  0.00    +0.159 HD
ATOM     24  H   UNL     1     -40.753  23.770   2.093  0.00  0.00    +0.159 HD
ENDBRANCH  17  20
ENDBRANCH  16  17
ENDBRANCH  13  16
ENDBRANCH   1  13
TORSDOF 9
ENDMDL
MODEL 3
REMARK VINA RESULT:      -5.1      0.645      4.193
REMARK  Name = 5479208
REMARK  9 active torsions:
REMARK  status: ('A' for Active; 'I' for Inactive)
REMARK    1  A    between atoms: N_1  and  C_2
REMARK    2  A    between atoms: N_1  and  N_3
REMARK    3  A    between atoms: C_2  and  C_12
REMARK    4  A    between atoms: C_2  and  C_23
REMARK    5  A    between atoms: N_3  and  C_6
REMARK    6  A    between atoms: N_11  and  C_12
REMARK    7  A    between atoms: N_11  and  N_13
REMARK    8  A    between atoms: C_12  and  C_21
REMARK    9  A    between atoms: N_13  and  C_16
REMARK                            x       y       z     vdW  Elec       q    Type
REMARK                         _______ _______ _______ _____ _____    ______ ____
ROOT
ATOM      1  C   UNL     1     -36.139  22.902   3.384  0.00  0.00    +0.116 C 
ENDROOT
BRANCH   1   2
ATOM      2  C   UNL     1     -35.316  22.095   2.410  0.00  0.00    +0.021 C 
ATOM      3  C   UNL     1     -35.698  20.628   2.468  0.00  0.00    +0.002 C 
ENDBRANCH   1   2
BRANCH   1   4
ATOM      4  N   UNL     1     -37.429  22.976   3.457  0.00  0.00    -0.097 NA
BRANCH   4   5
ATOM      5  N   UNL     1     -37.968  23.969   2.650  0.00  0.00    -0.145 NA
BRANCH   5   8
ATOM      6  N   UNL     1     -37.796  26.139   3.655  0.00  0.00    -0.369 N 
ATOM      7  N   UNL     1     -39.723  24.926   3.854  0.00  0.00    -0.369 N 
ATOM      8  C   UNL     1     -38.448  24.967   3.345  0.00  0.00    +0.207 C 
ATOM      9  H   UNL     1     -36.874  26.286   3.345  0.00  0.00    +0.159 HD
ATOM     10  H   UNL     1     -38.253  26.829   4.188  0.00  0.00    +0.159 HD
ATOM     11  H   UNL     1     -40.291  24.136   3.699  0.00  0.00    +0.159 HD
ATOM     12  H   UNL     1     -40.070  25.685   4.377  0.00  0.00    +0.159 HD
ENDBRANCH   5   8
ENDBRANCH   4   5
ENDBRANCH   1   4
BRANCH   1  13
ATOM     13  C   UNL     1     -35.376  23.688   4.412  0.00  0.00    +0.116 C 
BRANCH  13  14
ATOM     14  C   UNL     1     -35.478  23.207   5.838  0.00  0.00    +0.021 C 
ATOM     15  C   UNL     1     -34.996  21.773   5.958  0.00  0.00    +0.002 C 
ENDBRANCH  13  14
BRANCH  13  16
ATOM     16  N   UNL     1     -34.685  24.687   3.962  0.00  0.00    -0.097 NA
BRANCH  16  17
ATOM     17  N   UNL     1     -33.672  25.086   4.825  0.00  0.00    -0.145 NA
BRANCH  17  20
ATOM     18  N   UNL     1     -34.456  27.241   4.390  0.00  0.00    -0.369 N 
ATOM     19  N   UNL     1     -33.289  26.913   6.328  0.00  0.00    -0.369 N 
ATOM     20  C   UNL     1     -33.787  26.338   5.181  0.00  0.00    +0.207 C 
ATOM     21  H   UNL     1     -34.857  26.947   3.541  0.00  0.00    +0.159 HD
ATOM     22  H   UNL     1     -34.533  28.180   4.674  0.00  0.00    +0.159 HD
ATOM     23  H   UNL     1     -32.790  26.367   6.976  0.00  0.00    +0.159 HD
ATOM     24  H   UNL     1     -33.433  27.872   6.500  0.00  0.00    +0.159 HD
ENDBRANCH  17  20
ENDBRANCH  16  17
ENDBRANCH  13  16
ENDBRANCH   1  13
TORSDOF 9
ENDMDL
MODEL 4
REMARK VINA RESULT:      -5.1      1.481      1.915
REMARK  Name = 5479208
REMARK  9 active torsions:
REMARK  status: ('A' for Active; 'I' for Inactive)
REMARK    1  A    between atoms: N_1  and  C_2
REMARK    2  A    between atoms: N_1  and  N_3
REMARK    3  A    between atoms: C_2  and  C_12
REMARK    4  A    between atoms: C_2  and  C_23
REMARK    5  A    between atoms: N_3  and  C_6
REMARK    6  A    between atoms: N_11  and  C_12
REMARK    7  A    between atoms: N_11  and  N_13
REMARK    8  A    between atoms: C_12  and  C_21
REMARK    9  A    between atoms: N_13  and  C_16
REMARK                            x       y       z     vdW  Elec       q    Type
REMARK                         _______ _______ _______ _____ _____    ______ ____
ROOT
ATOM      1  C   UNL     1     -35.294  23.461   4.566  0.00  0.00    +0.116 C 
ENDROOT
BRANCH   1   2
ATOM      2  C   UNL     1     -35.572  22.867   5.925  0.00  0.00    +0.021 C 
ATOM      3  C   UNL     1     -34.853  21.541   6.090  0.00  0.00    +0.002 C 
ENDBRANCH   1   2
BRANCH   1   4
ATOM      4  N   UNL     1     -34.443  24.392   4.270  0.00  0.00    -0.097 NA
BRANCH   4   5
ATOM      5  N   UNL     1     -34.444  25.444   5.176  0.00  0.00    -0.145 NA
BRANCH   5   8
ATOM      6  N   UNL     1     -36.596  26.465   5.447  0.00  0.00    -0.369 N 
ATOM      7  N   UNL     1     -35.098  27.314   3.944  0.00  0.00    -0.369 N 
ATOM      8  C   UNL     1     -35.343  26.347   4.888  0.00  0.00    +0.207 C 
ATOM      9  H   UNL     1     -36.888  25.828   6.138  0.00  0.00    +0.159 HD
ATOM     10  H   UNL     1     -37.198  27.187   5.156  0.00  0.00    +0.159 HD
ATOM     11  H   UNL     1     -34.233  27.334   3.472  0.00  0.00    +0.159 HD
ATOM     12  H   UNL     1     -35.786  27.987   3.737  0.00  0.00    +0.159 HD
ENDBRANCH   5   8
ENDBRANCH   4   5
ENDBRANCH   1   4
BRANCH   1  13
ATOM     13  C   UNL     1     -36.069  22.888   3.415  0.00  0.00    +0.116 C 
BRANCH  13  14
ATOM     14  C   UNL     1     -35.269  22.171   2.356  0.00  0.00    +0.021 C 
ATOM     15  C   UNL     1     -35.324  20.669   2.565  0.00  0.00    +0.002 C 
ENDBRANCH  13  14
BRANCH  13  16
ATOM     16  N   UNL     1     -37.353  23.046   3.462  0.00  0.00    -0.097 NA
BRANCH  16  17
ATOM     17  N   UNL     1     -37.938  23.164   2.208  0.00  0.00    -0.145 NA
BRANCH  17  20
ATOM     18  N   UNL     1     -38.951  21.061   2.183  0.00  0.00    -0.369 N 
ATOM     19  N   UNL     1     -40.295  22.883   1.870  0.00  0.00    -0.369 N 
ATOM     20  C   UNL     1     -39.014  22.431   2.091  0.00  0.00    +0.207 C 
ATOM     21  H   UNL     1     -38.086  20.618   2.340  0.00  0.00    +0.159 HD
ATOM     22  H   UNL     1     -39.771  20.524   2.092  0.00  0.00    +0.159 HD
ATOM     23  H   UNL     1     -40.468  23.848   1.785  0.00  0.00    +0.159 HD
ATOM     24  H   UNL     1     -41.038  22.241   1.797  0.00  0.00    +0.159 HD
ENDBRANCH  17  20
ENDBRANCH  16  17
ENDBRANCH  13  16
ENDBRANCH   1  13
TORSDOF 9
ENDMDL
MODEL 5
REMARK VINA RESULT:      -5.1      2.402      4.283
REMARK  Name = 5479208
REMARK  9 active torsions:
REMARK  status: ('A' for Active; 'I' for Inactive)
REMARK    1  A    between atoms: N_1  and  C_2
REMARK    2  A    between atoms: N_1  and  N_3
REMARK    3  A    between atoms: C_2  and  C_12
REMARK    4  A    between atoms: C_2  and  C_23
REMARK    5  A    between atoms: N_3  and  C_6
REMARK    6  A    between atoms: N_11  and  C_12
REMARK    7  A    between atoms: N_11  and  N_13
REMARK    8  A    between atoms: C_12  and  C_21
REMARK    9  A    between atoms: N_13  and  C_16
REMARK                            x       y       z     vdW  Elec       q    Type
REMARK                         _______ _______ _______ _____ _____    ______ ____
ROOT
ATOM      1  C   UNL     1     -35.354  22.677   3.963  0.00  0.00    +0.116 C 
ENDROOT
BRANCH   1   2
ATOM      2  C   UNL     1     -34.633  22.401   5.260  0.00  0.00    +0.021 C 
ATOM      3  C   UNL     1     -35.620  22.087   6.369  0.00  0.00    +0.002 C 
ENDBRANCH   1   2
BRANCH   1   4
ATOM      4  N   UNL     1     -35.275  22.008   2.857  0.00  0.00    -0.097 NA
BRANCH   4   5
ATOM      5  N   UNL     1     -35.605  20.667   3.003  0.00  0.00    -0.145 NA
BRANCH   5   8
ATOM      6  N   UNL     1     -37.851  20.929   2.207  0.00  0.00    -0.369 N 
ATOM      7  N   UNL     1     -36.527  19.254   1.391  0.00  0.00    -0.369 N 
ATOM      8  C   UNL     1     -36.617  20.321   2.251  0.00  0.00    +0.207 C 
ATOM      9  H   UNL     1     -38.037  21.707   2.780  0.00  0.00    +0.159 HD
ATOM     10  H   UNL     1     -38.547  20.584   1.601  0.00  0.00    +0.159 HD
ATOM     11  H   UNL     1     -35.691  18.736   1.333  0.00  0.00    +0.159 HD
ATOM     12  H   UNL     1     -37.299  19.004   0.833  0.00  0.00    +0.159 HD
ENDBRANCH   5   8
ENDBRANCH   4   5
ENDBRANCH   1   4
BRANCH   1  13
ATOM     13  C   UNL     1     -36.300  23.844   3.960  0.00  0.00    +0.116 C 
BRANCH  13  14
ATOM     14  C   UNL     1     -35.678  25.213   4.073  0.00  0.00    +0.021 C 
ATOM     15  C   UNL     1     -36.017  25.850   5.408  0.00  0.00    +0.002 C 
ENDBRANCH  13  14
BRANCH  13  16
ATOM     16  N   UNL     1     -37.556  23.555   3.833  0.00  0.00    -0.097 NA
BRANCH  16  17
ATOM     17  N   UNL     1     -38.125  24.075   2.678  0.00  0.00    -0.145 NA
BRANCH  17  20
ATOM     18  N   UNL     1     -39.938  24.971   3.844  0.00  0.00    -0.369 N 
ATOM     19  N   UNL     1     -40.388  23.778   1.947  0.00  0.00    -0.369 N 
ATOM     20  C   UNL     1     -39.414  24.252   2.796  0.00  0.00    +0.207 C 
ATOM     21  H   UNL     1     -39.338  25.362   4.519  0.00  0.00    +0.159 HD
ATOM     22  H   UNL     1     -40.911  25.095   3.917  0.00  0.00    +0.159 HD
ATOM     23  H   UNL     1     -40.137  23.247   1.157  0.00  0.00    +0.159 HD
ATOM     24  H   UNL     1     -41.336  23.970   2.129  0.00  0.00    +0.159 HD
ENDBRANCH  17  20
ENDBRANCH  16  17
ENDBRANCH  13  16
ENDBRANCH   1  13
TORSDOF 9
ENDMDL
MODEL 6
REMARK VINA RESULT:      -5.0      1.470      4.676
REMARK  Name = 5479208
REMARK  9 active torsions:
REMARK  status: ('A' for Active; 'I' for Inactive)
REMARK    1  A    between atoms: N_1  and  C_2
REMARK    2  A    between atoms: N_1  and  N_3
REMARK    3  A    between atoms: C_2  and  C_12
REMARK    4  A    between atoms: C_2  and  C_23
REMARK    5  A    between atoms: N_3  and  C_6
REMARK    6  A    between atoms: N_11  and  C_12
REMARK    7  A    between atoms: N_11  and  N_13
REMARK    8  A    between atoms: C_12  and  C_21
REMARK    9  A    between atoms: N_13  and  C_16
REMARK                            x       y       z     vdW  Elec       q    Type
REMARK                         _______ _______ _______ _____ _____    ______ ____
ROOT
ATOM      1  C   UNL     1     -36.042  22.849   3.386  0.00  0.00    +0.116 C 
ENDROOT
BRANCH   1   2
ATOM      2  C   UNL     1     -35.254  22.153   2.303  0.00  0.00    +0.021 C 
ATOM      3  C   UNL     1     -35.306  20.647   2.483  0.00  0.00    +0.002 C 
ENDBRANCH   1   2
BRANCH   1   4
ATOM      4  N   UNL     1     -37.328  22.982   3.466  0.00  0.00    -0.097 NA
BRANCH   4   5
ATOM      5  N   UNL     1     -37.938  23.161   2.232  0.00  0.00    -0.145 NA
BRANCH   5   8
ATOM      6  N   UNL     1     -40.284  22.867   1.838  0.00  0.00    -0.369 N 
ATOM      7  N   UNL     1     -38.940  21.054   2.201  0.00  0.00    -0.369 N 
ATOM      8  C   UNL     1     -39.007  22.422   2.094  0.00  0.00    +0.207 C 
ATOM      9  H   UNL     1     -40.460  23.830   1.741  0.00  0.00    +0.159 HD
ATOM     10  H   UNL     1     -41.022  22.220   1.753  0.00  0.00    +0.159 HD
ATOM     11  H   UNL     1     -38.077  20.616   2.384  0.00  0.00    +0.159 HD
ATOM     12  H   UNL     1     -39.754  20.511   2.096  0.00  0.00    +0.159 HD
ENDBRANCH   5   8
ENDBRANCH   4   5
ENDBRANCH   1   4
BRANCH   1  13
ATOM     13  C   UNL     1     -35.249  23.431   4.521  0.00  0.00    +0.116 C 
BRANCH  13  14
ATOM     14  C   UNL     1     -35.534  22.875   5.894  0.00  0.00    +0.021 C 
ATOM     15  C   UNL     1     -34.900  21.506   6.063  0.00  0.00    +0.002 C 
ENDBRANCH  13  14
BRANCH  13  16
ATOM     16  N   UNL     1     -34.379  24.335   4.200  0.00  0.00    -0.097 NA
BRANCH  16  17
ATOM     17  N   UNL     1     -34.318  25.384   5.108  0.00  0.00    -0.145 NA
BRANCH  17  20
ATOM     18  N   UNL     1     -34.775  27.352   3.940  0.00  0.00    -0.369 N 
ATOM     19  N   UNL     1     -36.426  26.512   5.279  0.00  0.00    -0.369 N 
ATOM     20  C   UNL     1     -35.143  26.351   4.806  0.00  0.00    +0.207 C 
ATOM     21  H   UNL     1     -33.878  27.347   3.535  0.00  0.00    +0.159 HD
ATOM     22  H   UNL     1     -35.410  28.073   3.723  0.00  0.00    +0.159 HD
ATOM     23  H   UNL     1     -36.804  25.857   5.909  0.00  0.00    +0.159 HD
ATOM     24  H   UNL     1     -36.966  27.281   4.986  0.00  0.00    +0.159 HD
ENDBRANCH  17  20
ENDBRANCH  16  17
ENDBRANCH  13  16
ENDBRANCH   1  13
TORSDOF 9
ENDMDL
MODEL 7
REMARK VINA RESULT:      -4.9      1.992      4.413
REMARK  Name = 5479208
REMARK  9 active torsions:
REMARK  status: ('A' for Active; 'I' for Inactive)
REMARK    1  A    between atoms: N_1  and  C_2
REMARK    2  A    between atoms: N_1  and  N_3
REMARK    3  A    between atoms: C_2  and  C_12
REMARK    4  A    between atoms: C_2  and  C_23
REMARK    5  A    between atoms: N_3  and  C_6
REMARK    6  A    between atoms: N_11  and  C_12
REMARK    7  A    between atoms: N_11  and  N_13
REMARK    8  A    between atoms: C_12  and  C_21
REMARK    9  A    between atoms: N_13  and  C_16
REMARK                            x       y       z     vdW  Elec       q    Type
REMARK                         _______ _______ _______ _____ _____    ______ ____
ROOT
ATOM      1  C   UNL     1     -35.190  23.033   2.677  0.00  0.00    +0.116 C 
ENDROOT
BRANCH   1   2
ATOM      2  C   UNL     1     -34.680  24.389   2.253  0.00  0.00    +0.021 C 
ATOM      3  C   UNL     1     -33.824  24.276   1.006  0.00  0.00    +0.002 C 
ENDBRANCH   1   2
BRANCH   1   4
ATOM      4  N   UNL     1     -35.151  21.928   2.004  0.00  0.00    -0.097 NA
BRANCH   4   5
ATOM      5  N   UNL     1     -36.269  21.733   1.204  0.00  0.00    -0.145 NA
BRANCH   5   8
ATOM      6  N   UNL     1     -38.322  20.995   2.198  0.00  0.00    -0.369 N 
ATOM      7  N   UNL     1     -36.679  19.489   1.692  0.00  0.00    -0.369 N 
ATOM      8  C   UNL     1     -37.062  20.808   1.676  0.00  0.00    +0.207 C 
ATOM      9  H   UNL     1     -38.708  21.899   2.240  0.00  0.00    +0.159 HD
ATOM     10  H   UNL     1     -38.837  20.223   2.528  0.00  0.00    +0.159 HD
ATOM     11  H   UNL     1     -35.795  19.228   1.345  0.00  0.00    +0.159 HD
ATOM     12  H   UNL     1     -37.287  18.803   2.052  0.00  0.00    +0.159 HD
ENDBRANCH   5   8
ENDBRANCH   4   5
ENDBRANCH   1   4
BRANCH   1  13
ATOM     13  C   UNL     1     -35.786  22.944   4.053  0.00  0.00    +0.116 C 
BRANCH  13  14
ATOM     14  C   UNL     1     -35.297  21.815   4.926  0.00  0.00    +0.021 C 
ATOM     15  C   UNL     1     -35.410  22.181   6.394  0.00  0.00    +0.002 C 
ENDBRANCH  13  14
BRANCH  13  16
ATOM     16  N   UNL     1     -36.643  23.865   4.360  0.00  0.00    -0.097 NA
BRANCH  16  17
ATOM     17  N   UNL     1     -37.822  23.783   3.629  0.00  0.00    -0.145 NA
BRANCH  17  20
ATOM     18  N   UNL     1     -37.882  26.114   3.523  0.00  0.00    -0.369 N 
ATOM     19  N   UNL     1     -39.865  25.019   3.831  0.00  0.00    -0.369 N 
ATOM     20  C   UNL     1     -38.505  24.897   3.662  0.00  0.00    +0.207 C 
ATOM     21  H   UNL     1     -36.907  26.156   3.396  0.00  0.00    +0.159 HD
ATOM     22  H   UNL     1     -38.412  26.943   3.550  0.00  0.00    +0.159 HD
ATOM     23  H   UNL     1     -40.422  24.216   3.942  0.00  0.00    +0.159 HD
ATOM     24  H   UNL     1     -40.281  25.912   3.841  0.00  0.00    +0.159 HD
ENDBRANCH  17  20
ENDBRANCH  16  17
ENDBRANCH  13  16
ENDBRANCH   1  13
TORSDOF 9
ENDMDL
MODEL 8
REMARK VINA RESULT:      -4.9      1.523      4.426
REMARK  Name = 5479208
REMARK  9 active torsions:
REMARK  status: ('A' for Active; 'I' for Inactive)
REMARK    1  A    between atoms: N_1  and  C_2
REMARK    2  A    between atoms: N_1  and  N_3
REMARK    3  A    between atoms: C_2  and  C_12
REMARK    4  A    between atoms: C_2  and  C_23
REMARK    5  A    between atoms: N_3  and  C_6
REMARK    6  A    between atoms: N_11  and  C_12
REMARK    7  A    between atoms: N_11  and  N_13
REMARK    8  A    between atoms: C_12  and  C_21
REMARK    9  A    between atoms: N_13  and  C_16
REMARK                            x       y       z     vdW  Elec       q    Type
REMARK                         _______ _______ _______ _____ _____    ______ ____
ROOT
ATOM      1  C   UNL     1     -35.651  23.805   4.604  0.00  0.00    +0.116 C 
ENDROOT
BRANCH   1   2
ATOM      2  C   UNL     1     -35.273  22.373   4.894  0.00  0.00    +0.021 C 
ATOM      3  C   UNL     1     -35.362  22.083   6.380  0.00  0.00    +0.002 C 
ENDBRANCH   1   2
BRANCH   1   4
ATOM      4  N   UNL     1     -36.811  24.361   4.753  0.00  0.00    -0.097 NA
BRANCH   4   5
ATOM      5  N   UNL     1     -37.706  24.044   3.740  0.00  0.00    -0.145 NA
BRANCH   5   8
ATOM      6  N   UNL     1     -38.198  26.216   2.854  0.00  0.00    -0.369 N 
ATOM      7  N   UNL     1     -39.852  24.956   3.803  0.00  0.00    -0.369 N 
ATOM      8  C   UNL     1     -38.522  25.029   3.471  0.00  0.00    +0.207 C 
ATOM      9  H   UNL     1     -37.272  26.386   2.569  0.00  0.00    +0.159 HD
ATOM     10  H   UNL     1     -38.894  26.895   2.699  0.00  0.00    +0.159 HD
ATOM     11  H   UNL     1     -40.206  24.154   4.251  0.00  0.00    +0.159 HD
ATOM     12  H   UNL     1     -40.454  25.708   3.594  0.00  0.00    +0.159 HD
ENDBRANCH   5   8
ENDBRANCH   4   5
ENDBRANCH   1   4
BRANCH   1  13
ATOM     13  C   UNL     1     -34.550  24.701   4.114  0.00  0.00    +0.116 C 
BRANCH  13  14
ATOM     14  C   UNL     1     -34.642  25.157   2.679  0.00  0.00    +0.021 C 
ATOM     15  C   UNL     1     -34.615  23.969   1.734  0.00  0.00    +0.002 C 
ENDBRANCH  13  14
BRANCH  13  16
ATOM     16  N   UNL     1     -33.644  25.013   4.985  0.00  0.00    -0.097 NA
BRANCH  16  17
ATOM     17  N   UNL     1     -34.073  25.956   5.910  0.00  0.00    -0.145 NA
BRANCH  17  20
ATOM     18  N   UNL     1     -32.549  27.114   7.245  0.00  0.00    -0.369 N 
ATOM     19  N   UNL     1     -32.871  27.870   5.112  0.00  0.00    -0.369 N 
ATOM     20  C   UNL     1     -33.216  26.932   6.058  0.00  0.00    +0.207 C 
ATOM     21  H   UNL     1     -32.712  26.504   8.000  0.00  0.00    +0.159 HD
ATOM     22  H   UNL     1     -31.906  27.854   7.339  0.00  0.00    +0.159 HD
ATOM     23  H   UNL     1     -33.283  27.845   4.219  0.00  0.00    +0.159 HD
ATOM     24  H   UNL     1     -32.210  28.568   5.329  0.00  0.00    +0.159 HD
ENDBRANCH  17  20
ENDBRANCH  16  17
ENDBRANCH  13  16
ENDBRANCH   1  13
TORSDOF 9
ENDMDL
MODEL 9
REMARK VINA RESULT:      -4.8      1.076      2.273
REMARK  Name = 5479208
REMARK  9 active torsions:
REMARK  status: ('A' for Active; 'I' for Inactive)
REMARK    1  A    between atoms: N_1  and  C_2
REMARK    2  A    between atoms: N_1  and  N_3
REMARK    3  A    between atoms: C_2  and  C_12
REMARK    4  A    between atoms: C_2  and  C_23
REMARK    5  A    between atoms: N_3  and  C_6
REMARK    6  A    between atoms: N_11  and  C_12
REMARK    7  A    between atoms: N_11  and  N_13
REMARK    8  A    between atoms: C_12  and  C_21
REMARK    9  A    between atoms: N_13  and  C_16
REMARK                            x       y       z     vdW  Elec       q    Type
REMARK                         _______ _______ _______ _____ _____    ______ ____
ROOT
ATOM      1  C   UNL     1     -34.899  23.690   3.182  0.00  0.00    +0.116 C 
ENDROOT
BRANCH   1   2
ATOM      2  C   UNL     1     -35.001  23.588   1.680  0.00  0.00    +0.021 C 
ATOM      3  C   UNL     1     -34.688  22.178   1.214  0.00  0.00    +0.002 C 
ENDBRANCH   1   2
BRANCH   1   4
ATOM      4  N   UNL     1     -34.095  24.436   3.870  0.00  0.00    -0.097 NA
BRANCH   4   5
ATOM      5  N   UNL     1     -34.175  25.782   3.537  0.00  0.00    -0.145 NA
BRANCH   5   8
ATOM      6  N   UNL     1     -35.788  26.873   4.935  0.00  0.00    -0.369 N 
ATOM      7  N   UNL     1     -33.556  27.060   5.388  0.00  0.00    -0.369 N 
ATOM      8  C   UNL     1     -34.511  26.527   4.557  0.00  0.00    +0.207 C 
ATOM      9  H   UNL     1     -36.559  26.551   4.415  0.00  0.00    +0.159 HD
ATOM     10  H   UNL     1     -35.930  27.444   5.725  0.00  0.00    +0.159 HD
ATOM     11  H   UNL     1     -32.602  26.883   5.221  0.00  0.00    +0.159 HD
ATOM     12  H   UNL     1     -33.825  27.620   6.152  0.00  0.00    +0.159 HD
ENDBRANCH   5   8
ENDBRANCH   4   5
ENDBRANCH   1   4
BRANCH   1  13
ATOM     13  C   UNL     1     -35.862  22.855   3.975  0.00  0.00    +0.116 C 
BRANCH  13  14
ATOM     14  C   UNL     1     -35.258  21.816   4.887  0.00  0.00    +0.021 C 
ATOM     15  C   UNL     1     -35.467  22.191   6.343  0.00  0.00    +0.002 C 
ENDBRANCH  13  14
BRANCH  13  16
ATOM     16  N   UNL     1     -37.117  23.130   3.814  0.00  0.00    -0.097 NA
BRANCH  16  17
ATOM     17  N   UNL     1     -37.459  24.406   4.246  0.00  0.00    -0.145 NA
BRANCH  17  20
ATOM     18  N   UNL     1     -39.695  24.877   3.773  0.00  0.00    -0.369 N 
ATOM     19  N   UNL     1     -38.119  25.684   2.328  0.00  0.00    -0.369 N 
ATOM     20  C   UNL     1     -38.356  24.966   3.478  0.00  0.00    +0.207 C 
ATOM     21  H   UNL     1     -39.991  24.387   4.574  0.00  0.00    +0.159 HD
ATOM     22  H   UNL     1     -40.358  25.305   3.184  0.00  0.00    +0.159 HD
ATOM     23  H   UNL     1     -37.196  25.816   2.012  0.00  0.00    +0.159 HD
ATOM     24  H   UNL     1     -38.872  26.065   1.822  0.00  0.00    +0.159 HD
ENDBRANCH  17  20
ENDBRANCH  16  17
ENDBRANCH  13  16
ENDBRANCH   1  13
TORSDOF 9
ENDMDL
