MODEL 1
REMARK VINA RESULT:      -7.1      0.000      0.000
REMARK  Name = 196979
REMARK  7 active torsions:
REMARK  status: ('A' for Active; 'I' for Inactive)
REMARK    1  A    between atoms: C_3  and  O_22
REMARK    2  A    between atoms: C_8  and  O_18
REMARK    3  A    between atoms: C_14  and  O_20
REMARK    4  A    between atoms: O_22  and  C_28
REMARK    5  A    between atoms: C_24  and  O_30
REMARK    6  A    between atoms: C_25  and  O_32
REMARK    7  A    between atoms: C_26  and  O_34
REMARK                            x       y       z     vdW  Elec       q    Type
REMARK                         _______ _______ _______ _____ _____    ______ ____
ROOT
ATOM      1  O   UNL     1     -36.616  29.595   1.521  0.00  0.00    -0.287 OA
ATOM      2  O   UNL     1     -32.031  31.399   3.591  0.00  0.00    -0.286 OA
ATOM      3  C   UNL     1     -34.210  26.900   3.642  0.00  0.00    +0.145 C 
ATOM      4  C   UNL     1     -34.676  29.103   2.752  0.00  0.00    +0.048 C 
ATOM      5  C   UNL     1     -35.042  27.762   2.927  0.00  0.00    +0.040 C 
ATOM      6  C   UNL     1     -33.479  29.575   3.293  0.00  0.00    +0.076 C 
ATOM      7  C   UNL     1     -33.014  27.371   4.182  0.00  0.00    +0.074 C 
ATOM      8  C   UNL     1     -32.647  28.706   4.010  0.00  0.00    +0.140 C 
ATOM      9  C   UNL     1     -35.166  31.419   1.817  0.00  0.00    +0.045 C 
ATOM     10  C   UNL     1     -33.969  31.891   2.358  0.00  0.00    +0.076 C 
ATOM     11  C   UNL     1     -35.564  30.008   1.995  0.00  0.00    +0.196 C 
ATOM     12  C   UNL     1     -33.080  30.986   3.116  0.00  0.00    +0.202 C 
ATOM     13  C   UNL     1     -35.998  32.288   1.100  0.00  0.00    -0.001 C 
ATOM     14  C   UNL     1     -33.603  33.232   2.182  0.00  0.00    +0.136 C 
ATOM     15  C   UNL     1     -35.629  33.622   0.927  0.00  0.00    -0.019 C 
ATOM     16  C   UNL     1     -34.435  34.092   1.467  0.00  0.00    +0.032 C 
ATOM     17  C   UNL     1     -36.517  34.547   0.164  0.00  0.00    +0.031 C 
ENDROOT
BRANCH   8  18
ATOM     18  O   UNL     1     -31.464  29.099   4.563  0.00  0.00    -0.505 OA
ATOM     19  H   UNL     1     -30.757  28.489   4.639  0.00  0.00    +0.292 HD
ENDBRANCH   8  18
BRANCH  14  20
ATOM     20  O   UNL     1     -32.449  33.758   2.683  0.00  0.00    -0.505 OA
ATOM     21  H   UNL     1     -31.930  33.262   3.286  0.00  0.00    +0.292 HD
ENDBRANCH  14  20
BRANCH   3  22
ATOM     22  O   UNL     1     -34.566  25.597   3.812  0.00  0.00    -0.450 OA
BRANCH  22  28
ATOM     23  O   UNL     1     -35.625  24.343   5.526  0.00  0.00    -0.319 OA
ATOM     24  C   UNL     1     -36.608  23.559   2.944  0.00  0.00    +0.173 C 
ATOM     25  C   UNL     1     -36.373  22.536   4.057  0.00  0.00    +0.167 C 
ATOM     26  C   UNL     1     -36.874  24.948   3.526  0.00  0.00    +0.210 C 
ATOM     27  C   UNL     1     -35.293  23.046   5.022  0.00  0.00    +0.148 C 
ATOM     28  C   UNL     1     -35.778  25.344   4.514  0.00  0.00    +0.318 C 
ATOM     29  C   UNL     1     -35.126  22.126   6.229  0.00  0.00    +0.035 C 
BRANCH  24  30
ATOM     30  O   UNL     1     -37.720  23.145   2.153  0.00  0.00    -0.379 OA
ATOM     31  H   UNL     1     -38.237  23.923   1.889  0.00  0.00    +0.211 HD
ENDBRANCH  24  30
BRANCH  25  32
ATOM     32  O   UNL     1     -35.959  21.313   3.454  0.00  0.00    -0.379 OA
ATOM     33  H   UNL     1     -36.086  21.367   2.493  0.00  0.00    +0.211 HD
ENDBRANCH  25  32
BRANCH  26  34
ATOM     34  O   UNL     1     -38.117  24.954   4.230  0.00  0.00    -0.377 OA
ATOM     35  H   UNL     1     -38.469  24.050   4.271  0.00  0.00    +0.211 HD
ENDBRANCH  26  34
ENDBRANCH  22  28
ENDBRANCH   3  22
TORSDOF 7
ENDMDL
MODEL 2
REMARK VINA RESULT:      -7.0      5.534     11.785
REMARK  Name = 196979
REMARK  7 active torsions:
REMARK  status: ('A' for Active; 'I' for Inactive)
REMARK    1  A    between atoms: C_3  and  O_22
REMARK    2  A    between atoms: C_8  and  O_18
REMARK    3  A    between atoms: C_14  and  O_20
REMARK    4  A    between atoms: O_22  and  C_28
REMARK    5  A    between atoms: C_24  and  O_30
REMARK    6  A    between atoms: C_25  and  O_32
REMARK    7  A    between atoms: C_26  and  O_34
REMARK                            x       y       z     vdW  Elec       q    Type
REMARK                         _______ _______ _______ _____ _____    ______ ____
ROOT
ATOM      1  O   UNL     1     -32.452  18.650   1.367  0.00  0.00    -0.287 OA
ATOM      2  O   UNL     1     -37.092  17.263  -0.891  0.00  0.00    -0.286 OA
ATOM      3  C   UNL     1     -35.716  21.237   1.811  0.00  0.00    +0.145 C 
ATOM      4  C   UNL     1     -34.700  19.206   0.973  0.00  0.00    +0.048 C 
ATOM      5  C   UNL     1     -34.602  20.406   1.688  0.00  0.00    +0.040 C 
ATOM      6  C   UNL     1     -35.912  18.843   0.383  0.00  0.00    +0.076 C 
ATOM      7  C   UNL     1     -36.927  20.875   1.222  0.00  0.00    +0.074 C 
ATOM      8  C   UNL     1     -37.028  19.681   0.509  0.00  0.00    +0.140 C 
ATOM      9  C   UNL     1     -33.632  17.070   0.091  0.00  0.00    +0.045 C 
ATOM     10  C   UNL     1     -34.844  16.707  -0.499  0.00  0.00    +0.076 C 
ATOM     11  C   UNL     1     -33.516  18.333   0.849  0.00  0.00    +0.196 C 
ATOM     12  C   UNL     1     -36.030  17.581  -0.375  0.00  0.00    +0.202 C 
ATOM     13  C   UNL     1     -32.517  16.233  -0.036  0.00  0.00    -0.001 C 
ATOM     14  C   UNL     1     -34.941  15.508  -1.216  0.00  0.00    +0.136 C 
ATOM     15  C   UNL     1     -32.617  15.039  -0.750  0.00  0.00    -0.019 C 
ATOM     16  C   UNL     1     -33.827  14.678  -1.338  0.00  0.00    +0.032 C 
ATOM     17  C   UNL     1     -31.429  14.148  -0.883  0.00  0.00    +0.031 C 
ENDROOT
BRANCH   8  18
ATOM     18  O   UNL     1     -38.241  19.389  -0.043  0.00  0.00    -0.505 OA
ATOM     19  H   UNL     1     -39.013  19.817   0.270  0.00  0.00    +0.292 HD
ENDBRANCH   8  18
BRANCH  14  20
ATOM     20  O   UNL     1     -36.093  15.093  -1.816  0.00  0.00    -0.505 OA
ATOM     21  H   UNL     1     -36.056  14.520  -2.557  0.00  0.00    +0.292 HD
ENDBRANCH  14  20
BRANCH   3  22
ATOM     22  O   UNL     1     -35.622  22.403   2.507  0.00  0.00    -0.450 OA
BRANCH  22  28
ATOM     23  O   UNL     1     -37.512  23.184   3.711  0.00  0.00    -0.319 OA
ATOM     24  C   UNL     1     -35.138  24.563   4.551  0.00  0.00    +0.173 C 
ATOM     25  C   UNL     1     -36.480  25.285   4.419  0.00  0.00    +0.167 C 
ATOM     26  C   UNL     1     -35.344  23.070   4.811  0.00  0.00    +0.210 C 
ATOM     27  C   UNL     1     -37.363  24.569   3.388  0.00  0.00    +0.148 C 
ATOM     28  C   UNL     1     -36.279  22.459   3.768  0.00  0.00    +0.318 C 
ATOM     29  C   UNL     1     -38.767  25.167   3.326  0.00  0.00    +0.035 C 
BRANCH  24  30
ATOM     30  O   UNL     1     -34.397  25.144   5.623  0.00  0.00    -0.379 OA
ATOM     31  H   UNL     1     -34.994  25.661   6.186  0.00  0.00    +0.211 HD
ENDBRANCH  24  30
BRANCH  25  32
ATOM     32  O   UNL     1     -36.224  26.625   4.004  0.00  0.00    -0.379 OA
ATOM     33  H   UNL     1     -37.059  27.051   3.752  0.00  0.00    +0.211 HD
ENDBRANCH  25  32
BRANCH  26  34
ATOM     34  O   UNL     1     -35.937  22.875   6.096  0.00  0.00    -0.377 OA
ATOM     35  H   UNL     1     -35.618  23.558   6.706  0.00  0.00    +0.211 HD
ENDBRANCH  26  34
ENDBRANCH  22  28
ENDBRANCH   3  22
TORSDOF 7
ENDMDL
MODEL 3
REMARK VINA RESULT:      -6.8      1.155      1.364
REMARK  Name = 196979
REMARK  7 active torsions:
REMARK  status: ('A' for Active; 'I' for Inactive)
REMARK    1  A    between atoms: C_3  and  O_22
REMARK    2  A    between atoms: C_8  and  O_18
REMARK    3  A    between atoms: C_14  and  O_20
REMARK    4  A    between atoms: O_22  and  C_28
REMARK    5  A    between atoms: C_24  and  O_30
REMARK    6  A    between atoms: C_25  and  O_32
REMARK    7  A    between atoms: C_26  and  O_34
REMARK                            x       y       z     vdW  Elec       q    Type
REMARK                         _______ _______ _______ _____ _____    ______ ____
ROOT
ATOM      1  O   UNL     1     -35.736  30.503   1.644  0.00  0.00    -0.287 OA
ATOM      2  O   UNL     1     -30.976  30.239   4.058  0.00  0.00    -0.286 OA
ATOM      3  C   UNL     1     -34.431  26.774   3.036  0.00  0.00    +0.145 C 
ATOM      4  C   UNL     1     -34.134  29.154   2.707  0.00  0.00    +0.048 C 
ATOM      5  C   UNL     1     -34.905  27.995   2.556  0.00  0.00    +0.040 C 
ATOM      6  C   UNL     1     -32.890  29.085   3.338  0.00  0.00    +0.076 C 
ATOM      7  C   UNL     1     -33.190  26.705   3.666  0.00  0.00    +0.074 C 
ATOM      8  C   UNL     1     -32.418  27.857   3.819  0.00  0.00    +0.140 C 
ATOM      9  C   UNL     1     -33.819  31.656   2.362  0.00  0.00    +0.045 C 
ATOM     10  C   UNL     1     -32.576  31.588   2.993  0.00  0.00    +0.076 C 
ATOM     11  C   UNL     1     -34.644  30.442   2.197  0.00  0.00    +0.196 C 
ATOM     12  C   UNL     1     -32.065  30.299   3.505  0.00  0.00    +0.202 C 
ATOM     13  C   UNL     1     -34.291  32.884   1.882  0.00  0.00    -0.001 C 
ATOM     14  C   UNL     1     -31.804  32.746   3.144  0.00  0.00    +0.136 C 
ATOM     15  C   UNL     1     -33.519  34.036   2.034  0.00  0.00    -0.019 C 
ATOM     16  C   UNL     1     -32.278  33.967   2.663  0.00  0.00    +0.032 C 
ATOM     17  C   UNL     1     -34.023  35.343   1.523  0.00  0.00    +0.031 C 
ENDROOT
BRANCH   8  18
ATOM     18  O   UNL     1     -31.213  27.717   4.442  0.00  0.00    -0.505 OA
ATOM     19  H   UNL     1     -30.672  28.467   4.588  0.00  0.00    +0.292 HD
ENDBRANCH   8  18
BRANCH  14  20
ATOM     20  O   UNL     1     -30.582  32.751   3.750  0.00  0.00    -0.505 OA
ATOM     21  H   UNL     1     -30.452  33.238   4.539  0.00  0.00    +0.292 HD
ENDBRANCH  14  20
BRANCH   3  22
ATOM     22  O   UNL     1     -35.182  25.648   2.889  0.00  0.00    -0.450 OA
BRANCH  22  28
ATOM     23  O   UNL     1     -35.779  24.645   4.956  0.00  0.00    -0.319 OA
ATOM     24  C   UNL     1     -37.105  23.331   2.774  0.00  0.00    +0.173 C 
ATOM     25  C   UNL     1     -36.566  22.548   3.973  0.00  0.00    +0.167 C 
ATOM     26  C   UNL     1     -37.418  24.777   3.161  0.00  0.00    +0.210 C 
ATOM     27  C   UNL     1     -35.398  23.309   4.616  0.00  0.00    +0.148 C 
ATOM     28  C   UNL     1     -36.217  25.431   3.842  0.00  0.00    +0.318 C 
ATOM     29  C   UNL     1     -34.921  22.640   5.903  0.00  0.00    +0.035 C 
BRANCH  24  30
ATOM     30  O   UNL     1     -38.285  22.693   2.289  0.00  0.00    -0.379 OA
ATOM     31  H   UNL     1     -38.488  23.024   1.400  0.00  0.00    +0.211 HD
ENDBRANCH  24  30
BRANCH  25  32
ATOM     32  O   UNL     1     -36.130  21.272   3.510  0.00  0.00    -0.379 OA
ATOM     33  H   UNL     1     -36.878  20.800   3.112  0.00  0.00    +0.211 HD
ENDBRANCH  25  32
BRANCH  26  34
ATOM     34  O   UNL     1     -38.511  24.812   4.079  0.00  0.00    -0.377 OA
ATOM     35  H   UNL     1     -38.180  25.014   4.969  0.00  0.00    +0.211 HD
ENDBRANCH  26  34
ENDBRANCH  22  28
ENDBRANCH   3  22
TORSDOF 7
ENDMDL
MODEL 4
REMARK VINA RESULT:      -6.8      6.033      9.944
REMARK  Name = 196979
REMARK  7 active torsions:
REMARK  status: ('A' for Active; 'I' for Inactive)
REMARK    1  A    between atoms: C_3  and  O_22
REMARK    2  A    between atoms: C_8  and  O_18
REMARK    3  A    between atoms: C_14  and  O_20
REMARK    4  A    between atoms: O_22  and  C_28
REMARK    5  A    between atoms: C_24  and  O_30
REMARK    6  A    between atoms: C_25  and  O_32
REMARK    7  A    between atoms: C_26  and  O_34
REMARK                            x       y       z     vdW  Elec       q    Type
REMARK                         _______ _______ _______ _____ _____    ______ ____
ROOT
ATOM      1  O   UNL     1     -34.864  21.162   1.861  0.00  0.00    -0.287 OA
ATOM      2  O   UNL     1     -39.763  23.259   2.259  0.00  0.00    -0.286 OA
ATOM      3  C   UNL     1     -37.934  19.457  -0.424  0.00  0.00    +0.145 C 
ATOM      4  C   UNL     1     -37.108  21.081   1.171  0.00  0.00    +0.048 C 
ATOM      5  C   UNL     1     -36.881  19.993   0.319  0.00  0.00    +0.040 C 
ATOM      6  C   UNL     1     -38.388  21.630   1.274  0.00  0.00    +0.076 C 
ATOM      7  C   UNL     1     -39.212  20.005  -0.320  0.00  0.00    +0.074 C 
ATOM      8  C   UNL     1     -39.442  21.090   0.526  0.00  0.00    +0.140 C 
ATOM      9  C   UNL     1     -36.240  22.790   2.847  0.00  0.00    +0.045 C 
ATOM     10  C   UNL     1     -37.520  23.338   2.951  0.00  0.00    +0.076 C 
ATOM     11  C   UNL     1     -35.987  21.642   1.952  0.00  0.00    +0.196 C 
ATOM     12  C   UNL     1     -38.641  22.778   2.168  0.00  0.00    +0.202 C 
ATOM     13  C   UNL     1     -35.187  23.330   3.594  0.00  0.00    -0.001 C 
ATOM     14  C   UNL     1     -37.746  24.426   3.803  0.00  0.00    +0.136 C 
ATOM     15  C   UNL     1     -35.417  24.414   4.442  0.00  0.00    -0.019 C 
ATOM     16  C   UNL     1     -36.694  24.960   4.546  0.00  0.00    +0.032 C 
ATOM     17  C   UNL     1     -34.294  24.989   5.237  0.00  0.00    +0.031 C 
ENDROOT
BRANCH   8  18
ATOM     18  O   UNL     1     -40.715  21.574   0.581  0.00  0.00    -0.505 OA
ATOM     19  H   UNL     1     -41.255  21.560  -0.183  0.00  0.00    +0.292 HD
ENDBRANCH   8  18
BRANCH  14  20
ATOM     20  O   UNL     1     -38.970  25.010   3.952  0.00  0.00    -0.505 OA
ATOM     21  H   UNL     1     -39.266  25.644   3.328  0.00  0.00    +0.292 HD
ENDBRANCH  14  20
BRANCH   3  22
ATOM     22  O   UNL     1     -37.713  18.399  -1.251  0.00  0.00    -0.450 OA
BRANCH  22  28
ATOM     23  O   UNL     1     -36.160  16.694  -1.810  0.00  0.00    -0.319 OA
ATOM     24  C   UNL     1     -38.624  15.552  -0.877  0.00  0.00    +0.173 C 
ATOM     25  C   UNL     1     -37.834  14.924  -2.027  0.00  0.00    +0.167 C 
ATOM     26  C   UNL     1     -37.705  16.360   0.040  0.00  0.00    +0.210 C 
ATOM     27  C   UNL     1     -36.996  15.996  -2.738  0.00  0.00    +0.148 C 
ATOM     28  C   UNL     1     -36.874  17.359  -0.763  0.00  0.00    +0.318 C 
ATOM     29  C   UNL     1     -36.080  15.393  -3.799  0.00  0.00    +0.035 C 
BRANCH  24  30
ATOM     30  O   UNL     1     -39.269  14.520  -0.132  0.00  0.00    -0.379 OA
ATOM     31  H   UNL     1     -39.423  13.755  -0.707  0.00  0.00    +0.211 HD
ENDBRANCH  24  30
BRANCH  25  32
ATOM     32  O   UNL     1     -38.763  14.339  -2.936  0.00  0.00    -0.379 OA
ATOM     33  H   UNL     1     -38.282  13.826  -3.605  0.00  0.00    +0.211 HD
ENDBRANCH  25  32
BRANCH  26  34
ATOM     34  O   UNL     1     -36.800  15.486   0.718  0.00  0.00    -0.377 OA
ATOM     35  H   UNL     1     -36.661  14.688   0.184  0.00  0.00    +0.211 HD
ENDBRANCH  26  34
ENDBRANCH  22  28
ENDBRANCH   3  22
TORSDOF 7
ENDMDL
MODEL 5
REMARK VINA RESULT:      -6.7      4.876     11.122
REMARK  Name = 196979
REMARK  7 active torsions:
REMARK  status: ('A' for Active; 'I' for Inactive)
REMARK    1  A    between atoms: C_3  and  O_22
REMARK    2  A    between atoms: C_8  and  O_18
REMARK    3  A    between atoms: C_14  and  O_20
REMARK    4  A    between atoms: O_22  and  C_28
REMARK    5  A    between atoms: C_24  and  O_30
REMARK    6  A    between atoms: C_25  and  O_32
REMARK    7  A    between atoms: C_26  and  O_34
REMARK                            x       y       z     vdW  Elec       q    Type
REMARK                         _______ _______ _______ _____ _____    ______ ____
ROOT
ATOM      1  O   UNL     1     -33.163  19.341   1.471  0.00  0.00    -0.287 OA
ATOM      2  O   UNL     1     -38.042  18.357  -0.474  0.00  0.00    -0.286 OA
ATOM      3  C   UNL     1     -36.264  21.967   2.492  0.00  0.00    +0.145 C 
ATOM      4  C   UNL     1     -35.413  20.008   1.351  0.00  0.00    +0.048 C 
ATOM      5  C   UNL     1     -35.202  21.119   2.178  0.00  0.00    +0.040 C 
ATOM      6  C   UNL     1     -36.687  19.751   0.843  0.00  0.00    +0.076 C 
ATOM      7  C   UNL     1     -37.537  21.709   1.985  0.00  0.00    +0.074 C 
ATOM      8  C   UNL     1     -37.752  20.604   1.162  0.00  0.00    +0.140 C 
ATOM      9  C   UNL     1     -34.519  17.949   0.151  0.00  0.00    +0.045 C 
ATOM     10  C   UNL     1     -35.793  17.691  -0.356  0.00  0.00    +0.076 C 
ATOM     11  C   UNL     1     -34.282  19.117   1.025  0.00  0.00    +0.196 C 
ATOM     12  C   UNL     1     -36.925  18.582  -0.030  0.00  0.00    +0.202 C 
ATOM     13  C   UNL     1     -33.455  17.096  -0.167  0.00  0.00    -0.001 C 
ATOM     14  C   UNL     1     -36.004  16.580  -1.184  0.00  0.00    +0.136 C 
ATOM     15  C   UNL     1     -33.670  15.991  -0.991  0.00  0.00    -0.019 C 
ATOM     16  C   UNL     1     -34.941  15.734  -1.498  0.00  0.00    +0.032 C 
ATOM     17  C   UNL     1     -32.536  15.082  -1.329  0.00  0.00    +0.031 C 
ENDROOT
BRANCH   8  18
ATOM     18  O   UNL     1     -39.020  20.413   0.699  0.00  0.00    -0.505 OA
ATOM     19  H   UNL     1     -39.751  20.544   1.269  0.00  0.00    +0.292 HD
ENDBRANCH   8  18
BRANCH  14  20
ATOM     20  O   UNL     1     -37.222  16.270  -1.713  0.00  0.00    -0.505 OA
ATOM     21  H   UNL     1     -37.881  15.878  -1.175  0.00  0.00    +0.292 HD
ENDBRANCH  14  20
BRANCH   3  22
ATOM     22  O   UNL     1     -36.059  23.046   3.295  0.00  0.00    -0.450 OA
BRANCH  22  28
ATOM     23  O   UNL     1     -35.084  24.936   2.242  0.00  0.00    -0.319 OA
ATOM     24  C   UNL     1     -36.007  25.611   4.876  0.00  0.00    +0.173 C 
ATOM     25  C   UNL     1     -34.704  26.181   4.313  0.00  0.00    +0.167 C 
ATOM     26  C   UNL     1     -36.971  25.235   3.750  0.00  0.00    +0.210 C 
ATOM     27  C   UNL     1     -34.123  25.226   3.261  0.00  0.00    +0.148 C 
ATOM     28  C   UNL     1     -36.287  24.330   2.726  0.00  0.00    +0.318 C 
ATOM     29  C   UNL     1     -32.900  25.819   2.566  0.00  0.00    +0.035 C 
BRANCH  24  30
ATOM     30  O   UNL     1     -36.613  26.579   5.730  0.00  0.00    -0.379 OA
ATOM     31  H   UNL     1     -37.179  27.165   5.203  0.00  0.00    +0.211 HD
ENDBRANCH  24  30
BRANCH  25  32
ATOM     32  O   UNL     1     -33.788  26.343   5.393  0.00  0.00    -0.379 OA
ATOM     33  H   UNL     1     -33.514  25.471   5.718  0.00  0.00    +0.211 HD
ENDBRANCH  25  32
BRANCH  26  34
ATOM     34  O   UNL     1     -37.409  26.411   3.068  0.00  0.00    -0.377 OA
ATOM     35  H   UNL     1     -36.961  26.472   2.209  0.00  0.00    +0.211 HD
ENDBRANCH  26  34
ENDBRANCH  22  28
ENDBRANCH   3  22
TORSDOF 7
ENDMDL
MODEL 6
REMARK VINA RESULT:      -6.7      2.926      8.847
REMARK  Name = 196979
REMARK  7 active torsions:
REMARK  status: ('A' for Active; 'I' for Inactive)
REMARK    1  A    between atoms: C_3  and  O_22
REMARK    2  A    between atoms: C_8  and  O_18
REMARK    3  A    between atoms: C_14  and  O_20
REMARK    4  A    between atoms: O_22  and  C_28
REMARK    5  A    between atoms: C_24  and  O_30
REMARK    6  A    between atoms: C_25  and  O_32
REMARK    7  A    between atoms: C_26  and  O_34
REMARK                            x       y       z     vdW  Elec       q    Type
REMARK                         _______ _______ _______ _____ _____    ______ ____
ROOT
ATOM      1  O   UNL     1     -33.739  24.398   0.391  0.00  0.00    -0.287 OA
ATOM      2  O   UNL     1     -36.238  21.616   4.209  0.00  0.00    -0.286 OA
ATOM      3  C   UNL     1     -34.068  26.120   4.195  0.00  0.00    +0.145 C 
ATOM      4  C   UNL     1     -34.458  24.319   2.626  0.00  0.00    +0.048 C 
ATOM      5  C   UNL     1     -33.935  25.586   2.913  0.00  0.00    +0.040 C 
ATOM      6  C   UNL     1     -35.110  23.592   3.623  0.00  0.00    +0.076 C 
ATOM      7  C   UNL     1     -34.719  25.394   5.191  0.00  0.00    +0.074 C 
ATOM      8  C   UNL     1     -35.240  24.132   4.909  0.00  0.00    +0.140 C 
ATOM      9  C   UNL     1     -34.869  22.423   0.977  0.00  0.00    +0.045 C 
ATOM     10  C   UNL     1     -35.521  21.696   1.974  0.00  0.00    +0.076 C 
ATOM     11  C   UNL     1     -34.312  23.761   1.266  0.00  0.00    +0.196 C 
ATOM     12  C   UNL     1     -35.666  22.253   3.335  0.00  0.00    +0.202 C 
ATOM     13  C   UNL     1     -34.739  21.883  -0.308  0.00  0.00    -0.001 C 
ATOM     14  C   UNL     1     -36.044  20.429   1.686  0.00  0.00    +0.136 C 
ATOM     15  C   UNL     1     -35.261  20.621  -0.591  0.00  0.00    -0.019 C 
ATOM     16  C   UNL     1     -35.912  19.896   0.404  0.00  0.00    +0.032 C 
ATOM     17  C   UNL     1     -35.121  20.046  -1.960  0.00  0.00    +0.031 C 
ENDROOT
BRANCH   8  18
ATOM     18  O   UNL     1     -35.867  23.478   5.929  0.00  0.00    -0.505 OA
ATOM     19  H   UNL     1     -36.714  23.102   5.794  0.00  0.00    +0.292 HD
ENDBRANCH   8  18
BRANCH  14  20
ATOM     20  O   UNL     1     -36.692  19.666   2.612  0.00  0.00    -0.505 OA
ATOM     21  H   UNL     1     -36.718  19.938   3.509  0.00  0.00    +0.292 HD
ENDBRANCH  14  20
BRANCH   3  22
ATOM     22  O   UNL     1     -33.559  27.352   4.474  0.00  0.00    -0.450 OA
BRANCH  22  28
ATOM     23  O   UNL     1     -31.237  27.831   4.572  0.00  0.00    -0.319 OA
ATOM     24  C   UNL     1     -32.744  30.227   4.089  0.00  0.00    +0.173 C 
ATOM     25  C   UNL     1     -31.515  30.223   5.000  0.00  0.00    +0.167 C 
ATOM     26  C   UNL     1     -32.668  29.096   3.063  0.00  0.00    +0.210 C 
ATOM     27  C   UNL     1     -31.308  28.824   5.599  0.00  0.00    +0.148 C 
ATOM     28  C   UNL     1     -32.405  27.755   3.747  0.00  0.00    +0.318 C 
ATOM     29  C   UNL     1     -30.012  28.733   6.400  0.00  0.00    +0.035 C 
BRANCH  24  30
ATOM     30  O   UNL     1     -32.828  31.484   3.420  0.00  0.00    -0.379 OA
ATOM     31  H   UNL     1     -31.988  31.668   2.972  0.00  0.00    +0.211 HD
ENDBRANCH  24  30
BRANCH  25  32
ATOM     32  O   UNL     1     -31.729  31.177   6.038  0.00  0.00    -0.379 OA
ATOM     33  H   UNL     1     -31.088  31.900   5.948  0.00  0.00    +0.211 HD
ENDBRANCH  25  32
BRANCH  26  34
ATOM     34  O   UNL     1     -31.595  29.336   2.150  0.00  0.00    -0.377 OA
ATOM     35  H   UNL     1     -30.764  29.021   2.538  0.00  0.00    +0.211 HD
ENDBRANCH  26  34
ENDBRANCH  22  28
ENDBRANCH   3  22
TORSDOF 7
ENDMDL
MODEL 7
REMARK VINA RESULT:      -6.7      6.520      8.463
REMARK  Name = 196979
REMARK  7 active torsions:
REMARK  status: ('A' for Active; 'I' for Inactive)
REMARK    1  A    between atoms: C_3  and  O_22
REMARK    2  A    between atoms: C_8  and  O_18
REMARK    3  A    between atoms: C_14  and  O_20
REMARK    4  A    between atoms: O_22  and  C_28
REMARK    5  A    between atoms: C_24  and  O_30
REMARK    6  A    between atoms: C_25  and  O_32
REMARK    7  A    between atoms: C_26  and  O_34
REMARK                            x       y       z     vdW  Elec       q    Type
REMARK                         _______ _______ _______ _____ _____    ______ ____
ROOT
ATOM      1  O   UNL     1     -39.511  21.757   0.003  0.00  0.00    -0.287 OA
ATOM      2  O   UNL     1     -38.096  24.916   4.074  0.00  0.00    -0.286 OA
ATOM      3  C   UNL     1     -36.009  20.823   2.104  0.00  0.00    +0.145 C 
ATOM      4  C   UNL     1     -37.961  22.200   1.712  0.00  0.00    +0.048 C 
ATOM      5  C   UNL     1     -37.167  21.097   1.376  0.00  0.00    +0.040 C 
ATOM      6  C   UNL     1     -37.592  23.026   2.776  0.00  0.00    +0.076 C 
ATOM      7  C   UNL     1     -35.641  21.647   3.166  0.00  0.00    +0.074 C 
ATOM      8  C   UNL     1     -36.429  22.747   3.505  0.00  0.00    +0.140 C 
ATOM      9  C   UNL     1     -40.013  23.650   1.301  0.00  0.00    +0.045 C 
ATOM     10  C   UNL     1     -39.644  24.475   2.365  0.00  0.00    +0.076 C 
ATOM     11  C   UNL     1     -39.186  22.481   0.936  0.00  0.00    +0.196 C 
ATOM     12  C   UNL     1     -38.420  24.194   3.142  0.00  0.00    +0.202 C 
ATOM     13  C   UNL     1     -41.176  23.929   0.573  0.00  0.00    -0.001 C 
ATOM     14  C   UNL     1     -40.438  25.579   2.700  0.00  0.00    +0.136 C 
ATOM     15  C   UNL     1     -41.964  25.029   0.910  0.00  0.00    -0.019 C 
ATOM     16  C   UNL     1     -41.595  25.853   1.971  0.00  0.00    +0.032 C 
ATOM     17  C   UNL     1     -43.203  25.325   0.134  0.00  0.00    +0.031 C 
ENDROOT
BRANCH   8  18
ATOM     18  O   UNL     1     -36.008  23.512   4.553  0.00  0.00    -0.505 OA
ATOM     19  H   UNL     1     -35.893  24.434   4.443  0.00  0.00    +0.292 HD
ENDBRANCH   8  18
BRANCH  14  20
ATOM     20  O   UNL     1     -40.136  26.426   3.726  0.00  0.00    -0.505 OA
ATOM     21  H   UNL     1     -39.269  26.772   3.809  0.00  0.00    +0.292 HD
ENDBRANCH  14  20
BRANCH   3  22
ATOM     22  O   UNL     1     -35.238  19.750   1.777  0.00  0.00    -0.450 OA
BRANCH  22  28
ATOM     23  O   UNL     1     -34.907  19.198  -0.507  0.00  0.00    -0.319 OA
ATOM     24  C   UNL     1     -32.976  17.862   1.146  0.00  0.00    +0.173 C 
ATOM     25  C   UNL     1     -33.605  17.175  -0.066  0.00  0.00    +0.167 C 
ATOM     26  C   UNL     1     -32.989  19.383   0.981  0.00  0.00    +0.210 C 
ATOM     27  C   UNL     1     -34.987  17.778  -0.355  0.00  0.00    +0.148 C 
ATOM     28  C   UNL     1     -34.392  19.882   0.641  0.00  0.00    +0.318 C 
ATOM     29  C   UNL     1     -35.593  17.225  -1.643  0.00  0.00    +0.035 C 
BRANCH  24  30
ATOM     30  O   UNL     1     -31.634  17.403   1.303  0.00  0.00    -0.379 OA
ATOM     31  H   UNL     1     -31.439  17.294   2.247  0.00  0.00    +0.211 HD
ENDBRANCH  24  30
BRANCH  25  32
ATOM     32  O   UNL     1     -33.724  15.784   0.225  0.00  0.00    -0.379 OA
ATOM     33  H   UNL     1     -34.484  15.641   0.813  0.00  0.00    +0.211 HD
ENDBRANCH  25  32
BRANCH  26  34
ATOM     34  O   UNL     1     -32.121  19.765  -0.087  0.00  0.00    -0.377 OA
ATOM     35  H   UNL     1     -31.205  19.542   0.145  0.00  0.00    +0.211 HD
ENDBRANCH  26  34
ENDBRANCH  22  28
ENDBRANCH   3  22
TORSDOF 7
ENDMDL
MODEL 8
REMARK VINA RESULT:      -6.7      3.062      5.079
REMARK  Name = 196979
REMARK  7 active torsions:
REMARK  status: ('A' for Active; 'I' for Inactive)
REMARK    1  A    between atoms: C_3  and  O_22
REMARK    2  A    between atoms: C_8  and  O_18
REMARK    3  A    between atoms: C_14  and  O_20
REMARK    4  A    between atoms: O_22  and  C_28
REMARK    5  A    between atoms: C_24  and  O_30
REMARK    6  A    between atoms: C_25  and  O_32
REMARK    7  A    between atoms: C_26  and  O_34
REMARK                            x       y       z     vdW  Elec       q    Type
REMARK                         _______ _______ _______ _____ _____    ______ ____
ROOT
ATOM      1  O   UNL     1     -34.807  28.658   1.924  0.00  0.00    -0.287 OA
ATOM      2  O   UNL     1     -33.356  25.966   6.306  0.00  0.00    -0.286 OA
ATOM      3  C   UNL     1     -37.047  25.287   3.004  0.00  0.00    +0.145 C 
ATOM      4  C   UNL     1     -35.227  26.844   3.356  0.00  0.00    +0.048 C 
ATOM      5  C   UNL     1     -36.330  26.415   2.606  0.00  0.00    +0.040 C 
ATOM      6  C   UNL     1     -34.848  26.141   4.501  0.00  0.00    +0.076 C 
ATOM      7  C   UNL     1     -36.669  24.585   4.147  0.00  0.00    +0.074 C 
ATOM      8  C   UNL     1     -35.572  25.009   4.897  0.00  0.00    +0.140 C 
ATOM      9  C   UNL     1     -33.313  28.481   3.728  0.00  0.00    +0.045 C 
ATOM     10  C   UNL     1     -32.934  27.778   4.873  0.00  0.00    +0.076 C 
ATOM     11  C   UNL     1     -34.475  28.040   2.928  0.00  0.00    +0.196 C 
ATOM     12  C   UNL     1     -33.688  26.581   5.302  0.00  0.00    +0.202 C 
ATOM     13  C   UNL     1     -32.590  29.612   3.332  0.00  0.00    -0.001 C 
ATOM     14  C   UNL     1     -31.831  28.206   5.622  0.00  0.00    +0.136 C 
ATOM     15  C   UNL     1     -31.492  30.036   4.082  0.00  0.00    -0.019 C 
ATOM     16  C   UNL     1     -31.114  29.334   5.223  0.00  0.00    +0.032 C 
ATOM     17  C   UNL     1     -30.723  31.242   3.660  0.00  0.00    +0.031 C 
ENDROOT
BRANCH   8  18
ATOM     18  O   UNL     1     -35.256  24.275   6.002  0.00  0.00    -0.505 OA
ATOM     19  H   UNL     1     -35.612  23.416   6.111  0.00  0.00    +0.292 HD
ENDBRANCH   8  18
BRANCH  14  20
ATOM     20  O   UNL     1     -31.407  27.567   6.750  0.00  0.00    -0.505 OA
ATOM     21  H   UNL     1     -30.640  27.029   6.723  0.00  0.00    +0.292 HD
ENDBRANCH  14  20
BRANCH   3  22
ATOM     22  O   UNL     1     -38.119  24.871   2.275  0.00  0.00    -0.450 OA
BRANCH  22  28
ATOM     23  O   UNL     1     -39.020  23.947   0.283  0.00  0.00    -0.319 OA
ATOM     24  C   UNL     1     -38.205  21.865   2.084  0.00  0.00    +0.173 C 
ATOM     25  C   UNL     1     -39.474  21.742   1.239  0.00  0.00    +0.167 C 
ATOM     26  C   UNL     1     -37.197  22.807   1.425  0.00  0.00    +0.210 C 
ATOM     27  C   UNL     1     -40.021  23.137   0.905  0.00  0.00    +0.148 C 
ATOM     28  C   UNL     1     -37.848  24.146   1.080  0.00  0.00    +0.318 C 
ATOM     29  C   UNL     1     -41.204  23.070  -0.058  0.00  0.00    +0.035 C 
BRANCH  24  30
ATOM     30  O   UNL     1     -37.624  20.573   2.250  0.00  0.00    -0.379 OA
ATOM     31  H   UNL     1     -38.234  19.899   1.912  0.00  0.00    +0.211 HD
ENDBRANCH  24  30
BRANCH  25  32
ATOM     32  O   UNL     1     -40.435  21.000   1.987  0.00  0.00    -0.379 OA
ATOM     33  H   UNL     1     -40.723  20.231   1.470  0.00  0.00    +0.211 HD
ENDBRANCH  25  32
BRANCH  26  34
ATOM     34  O   UNL     1     -36.714  22.233   0.209  0.00  0.00    -0.377 OA
ATOM     35  H   UNL     1     -36.952  22.807  -0.536  0.00  0.00    +0.211 HD
ENDBRANCH  26  34
ENDBRANCH  22  28
ENDBRANCH   3  22
TORSDOF 7
ENDMDL
MODEL 9
REMARK VINA RESULT:      -6.6      5.712      9.545
REMARK  Name = 196979
REMARK  7 active torsions:
REMARK  status: ('A' for Active; 'I' for Inactive)
REMARK    1  A    between atoms: C_3  and  O_22
REMARK    2  A    between atoms: C_8  and  O_18
REMARK    3  A    between atoms: C_14  and  O_20
REMARK    4  A    between atoms: O_22  and  C_28
REMARK    5  A    between atoms: C_24  and  O_30
REMARK    6  A    between atoms: C_25  and  O_32
REMARK    7  A    between atoms: C_26  and  O_34
REMARK                            x       y       z     vdW  Elec       q    Type
REMARK                         _______ _______ _______ _____ _____    ______ ____
ROOT
ATOM      1  O   UNL     1     -31.979  23.570  -1.014  0.00  0.00    -0.287 OA
ATOM      2  O   UNL     1     -31.554  18.424   0.366  0.00  0.00    -0.286 OA
ATOM      3  C   UNL     1     -35.084  21.860   1.219  0.00  0.00    +0.145 C 
ATOM      4  C   UNL     1     -32.947  21.735   0.089  0.00  0.00    +0.048 C 
ATOM      5  C   UNL     1     -34.074  22.471   0.475  0.00  0.00    +0.040 C 
ATOM      6  C   UNL     1     -32.835  20.391   0.449  0.00  0.00    +0.076 C 
ATOM      7  C   UNL     1     -34.973  20.518   1.579  0.00  0.00    +0.074 C 
ATOM      8  C   UNL     1     -33.851  19.782   1.197  0.00  0.00    +0.140 C 
ATOM      9  C   UNL     1     -30.699  21.602  -1.100  0.00  0.00    +0.045 C 
ATOM     10  C   UNL     1     -30.588  20.258  -0.739  0.00  0.00    +0.076 C 
ATOM     11  C   UNL     1     -31.883  22.390  -0.698  0.00  0.00    +0.196 C 
ATOM     12  C   UNL     1     -31.652  19.602   0.049  0.00  0.00    +0.202 C 
ATOM     13  C   UNL     1     -29.683  22.210  -1.847  0.00  0.00    -0.001 C 
ATOM     14  C   UNL     1     -29.461  19.522  -1.126  0.00  0.00    +0.136 C 
ATOM     15  C   UNL     1     -28.563  21.473  -2.230  0.00  0.00    -0.019 C 
ATOM     16  C   UNL     1     -28.452  20.132  -1.871  0.00  0.00    +0.032 C 
ATOM     17  C   UNL     1     -27.481  22.123  -3.025  0.00  0.00    +0.031 C 
ENDROOT
BRANCH   8  18
ATOM     18  O   UNL     1     -33.809  18.474   1.581  0.00  0.00    -0.505 OA
ATOM     19  H   UNL     1     -32.984  18.054   1.721  0.00  0.00    +0.292 HD
ENDBRANCH   8  18
BRANCH  14  20
ATOM     20  O   UNL     1     -29.288  18.207  -0.808  0.00  0.00    -0.505 OA
ATOM     21  H   UNL     1     -29.979  17.730  -0.391  0.00  0.00    +0.292 HD
ENDBRANCH  14  20
BRANCH   3  22
ATOM     22  O   UNL     1     -36.179  22.576   1.595  0.00  0.00    -0.450 OA
BRANCH  22  28
ATOM     23  O   UNL     1     -38.064  22.780   3.023  0.00  0.00    -0.319 OA
ATOM     24  C   UNL     1     -35.905  24.427   3.956  0.00  0.00    +0.173 C 
ATOM     25  C   UNL     1     -37.360  24.895   4.029  0.00  0.00    +0.167 C 
ATOM     26  C   UNL     1     -35.821  22.900   3.960  0.00  0.00    +0.210 C 
ATOM     27  C   UNL     1     -38.191  24.202   2.940  0.00  0.00    +0.148 C 
ATOM     28  C   UNL     1     -36.722  22.301   2.881  0.00  0.00    +0.318 C 
ATOM     29  C   UNL     1     -39.678  24.526   3.064  0.00  0.00    +0.035 C 
BRANCH  24  30
ATOM     30  O   UNL     1     -35.186  24.955   5.069  0.00  0.00    -0.379 OA
ATOM     31  H   UNL     1     -34.530  24.305   5.367  0.00  0.00    +0.211 HD
ENDBRANCH  24  30
BRANCH  25  32
ATOM     32  O   UNL     1     -37.381  26.308   3.843  0.00  0.00    -0.379 OA
ATOM     33  H   UNL     1     -36.631  26.572   3.287  0.00  0.00    +0.211 HD
ENDBRANCH  25  32
BRANCH  26  34
ATOM     34  O   UNL     1     -36.255  22.390   5.222  0.00  0.00    -0.377 OA
ATOM     35  H   UNL     1     -35.860  21.516   5.371  0.00  0.00    +0.211 HD
ENDBRANCH  26  34
ENDBRANCH  22  28
ENDBRANCH   3  22
TORSDOF 7
ENDMDL
