MODEL 1
REMARK VINA RESULT:      -6.8      0.000      0.000
REMARK  Name = 52921504
REMARK  8 active torsions:
REMARK  status: ('A' for Active; 'I' for Inactive)
REMARK    1  A    between atoms: C_3  and  O_21
REMARK    2  A    between atoms: C_11  and  S_15
REMARK    3  A    between atoms: C_12  and  C_18
REMARK    4  A    between atoms: C_18  and  O_19
REMARK    5  A    between atoms: O_21  and  C_27
REMARK    6  A    between atoms: C_23  and  O_29
REMARK    7  A    between atoms: C_24  and  O_31
REMARK    8  A    between atoms: C_25  and  O_33
REMARK                            x       y       z     vdW  Elec       q    Type
REMARK                         _______ _______ _______ _____ _____    ______ ____
ROOT
ATOM      1  N   UNL     1     -35.508  25.983   3.177  0.00  0.00    -0.393 NA
ATOM      2  N   UNL     1     -33.636  25.793   5.188  0.00  0.00    -0.396 NA
ATOM      3  C   UNL     1     -36.257  23.783   3.665  0.00  0.00    +0.173 C 
ATOM      4  C   UNL     1     -35.412  24.863   3.911  0.00  0.00    +0.195 C 
ATOM      5  C   UNL     1     -36.173  22.612   4.415  0.00  0.00    +0.040 C 
ATOM      6  C   UNL     1     -34.461  24.767   4.931  0.00  0.00    +0.164 C 
ATOM      7  C   UNL     1     -34.682  27.010   3.433  0.00  0.00    +0.167 C 
ATOM      8  C   UNL     1     -35.230  22.516   5.427  0.00  0.00    +0.006 C 
ATOM      9  C   UNL     1     -34.382  23.593   5.679  0.00  0.00    +0.035 C 
ATOM     10  C   UNL     1     -33.732  26.914   4.455  0.00  0.00    +0.168 C 
ATOM     11  C   UNL     1     -34.762  28.183   2.686  0.00  0.00    +0.057 C 
ATOM     12  C   UNL     1     -32.887  27.994   4.701  0.00  0.00    +0.108 C 
ATOM     13  C   UNL     1     -33.914  29.261   2.936  0.00  0.00    +0.009 C 
ATOM     14  C   UNL     1     -32.971  29.165   3.950  0.00  0.00    +0.010 C 
ENDROOT
BRANCH  11  15
ATOM     15  S   UNL     1     -35.961  28.367   1.361  0.00  0.00    -0.110 S 
ATOM     16  C   UNL     1     -36.212  30.162   1.357  0.00  0.00    +0.074 C 
ENDBRANCH  11  15
BRANCH  12  18
ATOM     17  O   UNL     1     -30.664  27.937   5.583  0.00  0.00    -0.245 OA
ATOM     18  C   UNL     1     -31.884  27.928   5.758  0.00  0.00    +0.341 C 
BRANCH  18  19
ATOM     19  O   UNL     1     -32.443  27.855   6.996  0.00  0.00    -0.477 OA
ATOM     20  H   UNL     1     -32.595  27.021   7.393  0.00  0.00    +0.295 HD
ENDBRANCH  18  19
ENDBRANCH  12  18
BRANCH   3  21
ATOM     21  O   UNL     1     -37.195  23.855   2.670  0.00  0.00    -0.448 OA
BRANCH  21  27
ATOM     22  O   UNL     1     -37.524  23.303   0.385  0.00  0.00    -0.319 OA
ATOM     23  C   UNL     1     -39.557  22.100   2.018  0.00  0.00    +0.173 C 
ATOM     24  C   UNL     1     -39.875  22.676   0.639  0.00  0.00    +0.167 C 
ATOM     25  C   UNL     1     -38.088  21.683   2.112  0.00  0.00    +0.210 C 
ATOM     26  C   UNL     1     -38.870  23.781   0.283  0.00  0.00    +0.148 C 
ATOM     27  C   UNL     1     -37.168  22.826   1.687  0.00  0.00    +0.318 C 
ATOM     28  C   UNL     1     -39.056  24.286  -1.144  0.00  0.00    +0.035 C 
BRANCH  23  29
ATOM     29  O   UNL     1     -40.398  20.975   2.263  0.00  0.00    -0.379 OA
ATOM     30  H   UNL     1     -40.076  20.493   3.040  0.00  0.00    +0.211 HD
ENDBRANCH  23  29
BRANCH  24  31
ATOM     31  O   UNL     1     -41.198  23.206   0.673  0.00  0.00    -0.379 OA
ATOM     32  H   UNL     1     -41.268  23.857   1.389  0.00  0.00    +0.211 HD
ENDBRANCH  24  31
BRANCH  25  33
ATOM     33  O   UNL     1     -37.840  20.578   1.242  0.00  0.00    -0.377 OA
ATOM     34  H   UNL     1     -38.508  20.563   0.539  0.00  0.00    +0.211 HD
ENDBRANCH  25  33
ENDBRANCH  21  27
ENDBRANCH   3  21
TORSDOF 8
ENDMDL
MODEL 2
REMARK VINA RESULT:      -6.8      2.358      7.022
REMARK  Name = 52921504
REMARK  8 active torsions:
REMARK  status: ('A' for Active; 'I' for Inactive)
REMARK    1  A    between atoms: C_3  and  O_21
REMARK    2  A    between atoms: C_11  and  S_15
REMARK    3  A    between atoms: C_12  and  C_18
REMARK    4  A    between atoms: C_18  and  O_19
REMARK    5  A    between atoms: O_21  and  C_27
REMARK    6  A    between atoms: C_23  and  O_29
REMARK    7  A    between atoms: C_24  and  O_31
REMARK    8  A    between atoms: C_25  and  O_33
REMARK                            x       y       z     vdW  Elec       q    Type
REMARK                         _______ _______ _______ _____ _____    ______ ____
ROOT
ATOM      1  N   UNL     1     -36.773  25.642   2.781  0.00  0.00    -0.393 NA
ATOM      2  N   UNL     1     -37.377  23.031   3.416  0.00  0.00    -0.396 NA
ATOM      3  C   UNL     1     -35.206  25.715   4.564  0.00  0.00    +0.173 C 
ATOM      4  C   UNL     1     -36.157  25.034   3.808  0.00  0.00    +0.195 C 
ATOM      5  C   UNL     1     -34.556  25.101   5.633  0.00  0.00    +0.040 C 
ATOM      6  C   UNL     1     -36.465  23.709   4.130  0.00  0.00    +0.164 C 
ATOM      7  C   UNL     1     -37.686  24.966   2.066  0.00  0.00    +0.167 C 
ATOM      8  C   UNL     1     -34.861  23.787   5.954  0.00  0.00    +0.006 C 
ATOM      9  C   UNL     1     -35.812  23.100   5.200  0.00  0.00    +0.035 C 
ATOM     10  C   UNL     1     -37.992  23.640   2.389  0.00  0.00    +0.168 C 
ATOM     11  C   UNL     1     -38.338  25.574   0.997  0.00  0.00    +0.057 C 
ATOM     12  C   UNL     1     -38.944  22.959   1.632  0.00  0.00    +0.108 C 
ATOM     13  C   UNL     1     -39.289  24.888   0.243  0.00  0.00    +0.009 C 
ATOM     14  C   UNL     1     -39.593  23.573   0.563  0.00  0.00    +0.010 C 
ENDROOT
BRANCH  11  15
ATOM     15  S   UNL     1     -37.987  27.274   0.534  0.00  0.00    -0.110 S 
ATOM     16  C   UNL     1     -36.584  27.053  -0.592  0.00  0.00    +0.074 C 
ENDBRANCH  11  15
BRANCH  12  18
ATOM     17  O   UNL     1     -40.429  21.153   2.139  0.00  0.00    -0.245 OA
ATOM     18  C   UNL     1     -39.289  21.575   1.940  0.00  0.00    +0.341 C 
BRANCH  18  19
ATOM     19  O   UNL     1     -38.195  20.769   1.987  0.00  0.00    -0.477 OA
ATOM     20  H   UNL     1     -37.760  20.522   1.195  0.00  0.00    +0.295 HD
ENDBRANCH  18  19
ENDBRANCH  12  18
BRANCH   3  21
ATOM     21  O   UNL     1     -34.889  27.013   4.266  0.00  0.00    -0.448 OA
BRANCH  21  27
ATOM     22  O   UNL     1     -33.258  28.734   4.169  0.00  0.00    -0.319 OA
ATOM     23  C   UNL     1     -33.477  27.405   1.632  0.00  0.00    +0.173 C 
ATOM     24  C   UNL     1     -33.264  28.916   1.729  0.00  0.00    +0.167 C 
ATOM     25  C   UNL     1     -32.941  26.696   2.877  0.00  0.00    +0.210 C 
ATOM     26  C   UNL     1     -33.820  29.444   3.059  0.00  0.00    +0.148 C 
ATOM     27  C   UNL     1     -33.505  27.324   4.149  0.00  0.00    +0.318 C 
ATOM     28  C   UNL     1     -33.501  30.921   3.267  0.00  0.00    +0.035 C 
BRANCH  23  29
ATOM     29  O   UNL     1     -32.818  26.912   0.469  0.00  0.00    -0.379 OA
ATOM     30  H   UNL     1     -31.973  27.375   0.355  0.00  0.00    +0.211 HD
ENDBRANCH  23  29
BRANCH  24  31
ATOM     31  O   UNL     1     -33.939  29.531   0.634  0.00  0.00    -0.379 OA
ATOM     32  H   UNL     1     -33.446  29.364  -0.185  0.00  0.00    +0.211 HD
ENDBRANCH  24  31
BRANCH  25  33
ATOM     33  O   UNL     1     -31.518  26.813   2.928  0.00  0.00    -0.377 OA
ATOM     34  H   UNL     1     -31.157  26.125   3.509  0.00  0.00    +0.211 HD
ENDBRANCH  25  33
ENDBRANCH  21  27
ENDBRANCH   3  21
TORSDOF 8
ENDMDL
MODEL 3
REMARK VINA RESULT:      -6.8      1.673      2.378
REMARK  Name = 52921504
REMARK  8 active torsions:
REMARK  status: ('A' for Active; 'I' for Inactive)
REMARK    1  A    between atoms: C_3  and  O_21
REMARK    2  A    between atoms: C_11  and  S_15
REMARK    3  A    between atoms: C_12  and  C_18
REMARK    4  A    between atoms: C_18  and  O_19
REMARK    5  A    between atoms: O_21  and  C_27
REMARK    6  A    between atoms: C_23  and  O_29
REMARK    7  A    between atoms: C_24  and  O_31
REMARK    8  A    between atoms: C_25  and  O_33
REMARK                            x       y       z     vdW  Elec       q    Type
REMARK                         _______ _______ _______ _____ _____    ______ ____
ROOT
ATOM      1  N   UNL     1     -35.312  26.389   3.136  0.00  0.00    -0.393 NA
ATOM      2  N   UNL     1     -33.465  26.041   5.149  0.00  0.00    -0.396 NA
ATOM      3  C   UNL     1     -36.172  24.214   3.547  0.00  0.00    +0.173 C 
ATOM      4  C   UNL     1     -35.277  25.242   3.833  0.00  0.00    +0.195 C 
ATOM      5  C   UNL     1     -36.151  23.016   4.258  0.00  0.00    +0.040 C 
ATOM      6  C   UNL     1     -34.338  25.066   4.854  0.00  0.00    +0.164 C 
ATOM      7  C   UNL     1     -34.439  27.366   3.430  0.00  0.00    +0.167 C 
ATOM      8  C   UNL     1     -35.220  22.841   5.271  0.00  0.00    +0.006 C 
ATOM      9  C   UNL     1     -34.322  23.866   5.563  0.00  0.00    +0.035 C 
ATOM     10  C   UNL     1     -33.502  27.189   4.452  0.00  0.00    +0.168 C 
ATOM     11  C   UNL     1     -34.456  28.565   2.722  0.00  0.00    +0.057 C 
ATOM     12  C   UNL     1     -32.607  28.217   4.739  0.00  0.00    +0.108 C 
ATOM     13  C   UNL     1     -33.558  29.590   3.012  0.00  0.00    +0.009 C 
ATOM     14  C   UNL     1     -32.628  29.415   4.027  0.00  0.00    +0.010 C 
ENDROOT
BRANCH  11  15
ATOM     15  S   UNL     1     -35.636  28.851   1.398  0.00  0.00    -0.110 S 
ATOM     16  C   UNL     1     -36.026  30.604   1.642  0.00  0.00    +0.074 C 
ENDBRANCH  11  15
BRANCH  12  18
ATOM     17  O   UNL     1     -30.395  28.007   5.629  0.00  0.00    -0.245 OA
ATOM     18  C   UNL     1     -31.615  28.068   5.798  0.00  0.00    +0.341 C 
BRANCH  18  19
ATOM     19  O   UNL     1     -32.184  28.000   7.031  0.00  0.00    -0.477 OA
ATOM     20  H   UNL     1     -32.505  27.182   7.355  0.00  0.00    +0.295 HD
ENDBRANCH  18  19
ENDBRANCH  12  18
BRANCH   3  21
ATOM     21  O   UNL     1     -37.099  24.365   2.550  0.00  0.00    -0.448 OA
BRANCH  21  27
ATOM     22  O   UNL     1     -39.375  23.732   2.319  0.00  0.00    -0.319 OA
ATOM     23  C   UNL     1     -38.929  26.332   1.183  0.00  0.00    +0.173 C 
ATOM     24  C   UNL     1     -39.873  25.323   0.529  0.00  0.00    +0.167 C 
ATOM     25  C   UNL     1     -38.803  26.069   2.685  0.00  0.00    +0.210 C 
ATOM     26  C   UNL     1     -39.456  23.892   0.898  0.00  0.00    +0.148 C 
ATOM     27  C   UNL     1     -38.441  24.610   2.956  0.00  0.00    +0.318 C 
ATOM     28  C   UNL     1     -40.453  22.856   0.390  0.00  0.00    +0.035 C 
BRANCH  23  29
ATOM     29  O   UNL     1     -39.422  27.650   0.960  0.00  0.00    -0.379 OA
ATOM     30  H   UNL     1     -38.714  28.202   0.593  0.00  0.00    +0.211 HD
ENDBRANCH  23  29
BRANCH  24  31
ATOM     31  O   UNL     1     -39.808  25.506  -0.884  0.00  0.00    -0.379 OA
ATOM     32  H   UNL     1     -39.325  24.766  -1.284  0.00  0.00    +0.211 HD
ENDBRANCH  24  31
BRANCH  25  33
ATOM     33  O   UNL     1     -40.049  26.336   3.331  0.00  0.00    -0.377 OA
ATOM     34  H   UNL     1     -39.939  27.068   3.957  0.00  0.00    +0.211 HD
ENDBRANCH  25  33
ENDBRANCH  21  27
ENDBRANCH   3  21
TORSDOF 8
ENDMDL
MODEL 4
REMARK VINA RESULT:      -6.6      2.098      7.517
REMARK  Name = 52921504
REMARK  8 active torsions:
REMARK  status: ('A' for Active; 'I' for Inactive)
REMARK    1  A    between atoms: C_3  and  O_21
REMARK    2  A    between atoms: C_11  and  S_15
REMARK    3  A    between atoms: C_12  and  C_18
REMARK    4  A    between atoms: C_18  and  O_19
REMARK    5  A    between atoms: O_21  and  C_27
REMARK    6  A    between atoms: C_23  and  O_29
REMARK    7  A    between atoms: C_24  and  O_31
REMARK    8  A    between atoms: C_25  and  O_33
REMARK                            x       y       z     vdW  Elec       q    Type
REMARK                         _______ _______ _______ _____ _____    ______ ____
ROOT
ATOM      1  N   UNL     1     -36.623  25.478   2.721  0.00  0.00    -0.393 NA
ATOM      2  N   UNL     1     -37.314  22.891   3.367  0.00  0.00    -0.396 NA
ATOM      3  C   UNL     1     -35.033  25.495   4.486  0.00  0.00    +0.173 C 
ATOM      4  C   UNL     1     -36.017  24.849   3.741  0.00  0.00    +0.195 C 
ATOM      5  C   UNL     1     -34.393  24.859   5.548  0.00  0.00    +0.040 C 
ATOM      6  C   UNL     1     -36.369  23.535   4.069  0.00  0.00    +0.164 C 
ATOM      7  C   UNL     1     -37.568  24.835   2.019  0.00  0.00    +0.167 C 
ATOM      8  C   UNL     1     -34.742  23.557   5.873  0.00  0.00    +0.006 C 
ATOM      9  C   UNL     1     -35.726  22.904   5.132  0.00  0.00    +0.035 C 
ATOM     10  C   UNL     1     -37.919  23.521   2.346  0.00  0.00    +0.168 C 
ATOM     11  C   UNL     1     -38.211  25.466   0.956  0.00  0.00    +0.057 C 
ATOM     12  C   UNL     1     -38.903  22.874   1.601  0.00  0.00    +0.108 C 
ATOM     13  C   UNL     1     -39.195  24.814   0.215  0.00  0.00    +0.009 C 
ATOM     14  C   UNL     1     -39.543  23.511   0.540  0.00  0.00    +0.010 C 
ENDROOT
BRANCH  11  15
ATOM     15  S   UNL     1     -37.804  27.151   0.488  0.00  0.00    -0.110 S 
ATOM     16  C   UNL     1     -39.420  27.769  -0.055  0.00  0.00    +0.074 C 
ENDBRANCH  11  15
BRANCH  12  18
ATOM     17  O   UNL     1     -40.447  21.125   2.131  0.00  0.00    -0.245 OA
ATOM     18  C   UNL     1     -39.294  21.504   1.915  0.00  0.00    +0.341 C 
BRANCH  18  19
ATOM     19  O   UNL     1     -38.230  20.658   1.947  0.00  0.00    -0.477 OA
ATOM     20  H   UNL     1     -37.589  20.685   1.266  0.00  0.00    +0.295 HD
ENDBRANCH  18  19
ENDBRANCH  12  18
BRANCH   3  21
ATOM     21  O   UNL     1     -34.673  26.781   4.182  0.00  0.00    -0.448 OA
BRANCH  21  27
ATOM     22  O   UNL     1     -32.332  27.157   4.291  0.00  0.00    -0.319 OA
ATOM     23  C   UNL     1     -33.675  29.449   3.200  0.00  0.00    +0.173 C 
ATOM     24  C   UNL     1     -32.487  29.595   4.152  0.00  0.00    +0.167 C 
ATOM     25  C   UNL     1     -33.624  28.110   2.462  0.00  0.00    +0.210 C 
ATOM     26  C   UNL     1     -32.386  28.363   5.062  0.00  0.00    +0.148 C 
ATOM     27  C   UNL     1     -33.468  26.951   3.445  0.00  0.00    +0.318 C 
ATOM     28  C   UNL     1     -31.132  28.394   5.929  0.00  0.00    +0.035 C 
BRANCH  23  29
ATOM     29  O   UNL     1     -33.658  30.522   2.262  0.00  0.00    -0.379 OA
ATOM     30  H   UNL     1     -33.078  30.293   1.518  0.00  0.00    +0.211 HD
ENDBRANCH  23  29
BRANCH  24  31
ATOM     31  O   UNL     1     -32.686  30.771   4.933  0.00  0.00    -0.379 OA
ATOM     32  H   UNL     1     -33.104  30.533   5.775  0.00  0.00    +0.211 HD
ENDBRANCH  24  31
BRANCH  25  33
ATOM     33  O   UNL     1     -32.503  28.085   1.577  0.00  0.00    -0.377 OA
ATOM     34  H   UNL     1     -32.589  28.798   0.926  0.00  0.00    +0.211 HD
ENDBRANCH  25  33
ENDBRANCH  21  27
ENDBRANCH   3  21
TORSDOF 8
ENDMDL
MODEL 5
REMARK VINA RESULT:      -6.5      2.850      3.736
REMARK  Name = 52921504
REMARK  8 active torsions:
REMARK  status: ('A' for Active; 'I' for Inactive)
REMARK    1  A    between atoms: C_3  and  O_21
REMARK    2  A    between atoms: C_11  and  S_15
REMARK    3  A    between atoms: C_12  and  C_18
REMARK    4  A    between atoms: C_18  and  O_19
REMARK    5  A    between atoms: O_21  and  C_27
REMARK    6  A    between atoms: C_23  and  O_29
REMARK    7  A    between atoms: C_24  and  O_31
REMARK    8  A    between atoms: C_25  and  O_33
REMARK                            x       y       z     vdW  Elec       q    Type
REMARK                         _______ _______ _______ _____ _____    ______ ____
ROOT
ATOM      1  N   UNL     1     -34.086  24.663   2.151  0.00  0.00    -0.393 NA
ATOM      2  N   UNL     1     -33.662  25.951   4.548  0.00  0.00    -0.396 NA
ATOM      3  C   UNL     1     -35.239  22.925   3.287  0.00  0.00    +0.173 C 
ATOM      4  C   UNL     1     -34.544  24.132   3.296  0.00  0.00    +0.195 C 
ATOM      5  C   UNL     1     -35.722  22.358   4.465  0.00  0.00    +0.040 C 
ATOM      6  C   UNL     1     -34.328  24.786   4.513  0.00  0.00    +0.164 C 
ATOM      7  C   UNL     1     -33.420  25.827   2.185  0.00  0.00    +0.167 C 
ATOM      8  C   UNL     1     -35.508  23.006   5.672  0.00  0.00    +0.006 C 
ATOM      9  C   UNL     1     -34.814  24.215   5.688  0.00  0.00    +0.035 C 
ATOM     10  C   UNL     1     -33.205  26.482   3.402  0.00  0.00    +0.168 C 
ATOM     11  C   UNL     1     -32.935  26.398   1.011  0.00  0.00    +0.057 C 
ATOM     12  C   UNL     1     -32.510  27.689   3.411  0.00  0.00    +0.108 C 
ATOM     13  C   UNL     1     -32.240  27.607   1.025  0.00  0.00    +0.009 C 
ATOM     14  C   UNL     1     -32.027  28.256   2.233  0.00  0.00    +0.010 C 
ENDROOT
BRANCH  11  15
ATOM     15  S   UNL     1     -33.179  25.606  -0.583  0.00  0.00    -0.110 S 
ATOM     16  C   UNL     1     -31.554  24.852  -0.857  0.00  0.00    +0.074 C 
ENDBRANCH  11  15
BRANCH  12  18
ATOM     17  O   UNL     1     -32.773  29.477   4.980  0.00  0.00    -0.245 OA
ATOM     18  C   UNL     1     -32.267  28.399   4.662  0.00  0.00    +0.341 C 
BRANCH  18  19
ATOM     19  O   UNL     1     -31.400  27.734   5.473  0.00  0.00    -0.477 OA
ATOM     20  H   UNL     1     -31.025  26.923   5.193  0.00  0.00    +0.295 HD
ENDBRANCH  18  19
ENDBRANCH  12  18
BRANCH   3  21
ATOM     21  O   UNL     1     -35.462  22.267   2.107  0.00  0.00    -0.448 OA
BRANCH  21  27
ATOM     22  O   UNL     1     -34.408  20.144   1.999  0.00  0.00    -0.319 OA
ATOM     23  C   UNL     1     -36.128  20.533  -0.267  0.00  0.00    +0.173 C 
ATOM     24  C   UNL     1     -34.779  19.826  -0.397  0.00  0.00    +0.167 C 
ATOM     25  C   UNL     1     -36.676  20.410   1.156  0.00  0.00    +0.210 C 
ATOM     26  C   UNL     1     -33.822  20.306   0.703  0.00  0.00    +0.148 C 
ATOM     27  C   UNL     1     -35.636  20.856   2.182  0.00  0.00    +0.318 C 
ATOM     28  C   UNL     1     -32.513  19.522   0.704  0.00  0.00    +0.035 C 
BRANCH  23  29
ATOM     29  O   UNL     1     -37.049  19.963  -1.193  0.00  0.00    -0.379 OA
ATOM     30  H   UNL     1     -37.787  20.577  -1.336  0.00  0.00    +0.211 HD
ENDBRANCH  23  29
BRANCH  24  31
ATOM     31  O   UNL     1     -34.243  20.127  -1.684  0.00  0.00    -0.379 OA
ATOM     32  H   UNL     1     -34.285  19.338  -2.245  0.00  0.00    +0.211 HD
ENDBRANCH  24  31
BRANCH  25  33
ATOM     33  O   UNL     1     -37.004  19.047   1.435  0.00  0.00    -0.377 OA
ATOM     34  H   UNL     1     -36.725  18.825   2.336  0.00  0.00    +0.211 HD
ENDBRANCH  25  33
ENDBRANCH  21  27
ENDBRANCH   3  21
TORSDOF 8
ENDMDL
MODEL 6
REMARK VINA RESULT:      -6.4      3.188      4.573
REMARK  Name = 52921504
REMARK  8 active torsions:
REMARK  status: ('A' for Active; 'I' for Inactive)
REMARK    1  A    between atoms: C_3  and  O_21
REMARK    2  A    between atoms: C_11  and  S_15
REMARK    3  A    between atoms: C_12  and  C_18
REMARK    4  A    between atoms: C_18  and  O_19
REMARK    5  A    between atoms: O_21  and  C_27
REMARK    6  A    between atoms: C_23  and  O_29
REMARK    7  A    between atoms: C_24  and  O_31
REMARK    8  A    between atoms: C_25  and  O_33
REMARK                            x       y       z     vdW  Elec       q    Type
REMARK                         _______ _______ _______ _____ _____    ______ ____
ROOT
ATOM      1  N   UNL     1     -34.603  24.021   2.260  0.00  0.00    -0.393 NA
ATOM      2  N   UNL     1     -32.946  26.218   2.145  0.00  0.00    -0.396 NA
ATOM      3  C   UNL     1     -34.193  23.589  -0.039  0.00  0.00    +0.173 C 
ATOM      4  C   UNL     1     -33.994  24.352   1.110  0.00  0.00    +0.195 C 
ATOM      5  C   UNL     1     -33.571  23.917  -1.242  0.00  0.00    +0.040 C 
ATOM      6  C   UNL     1     -33.154  25.468   1.052  0.00  0.00    +0.164 C 
ATOM      7  C   UNL     1     -34.396  24.771   3.354  0.00  0.00    +0.167 C 
ATOM      8  C   UNL     1     -32.737  25.023  -1.300  0.00  0.00    +0.006 C 
ATOM      9  C   UNL     1     -32.534  25.790  -0.154  0.00  0.00    +0.035 C 
ATOM     10  C   UNL     1     -33.554  25.887   3.295  0.00  0.00    +0.168 C 
ATOM     11  C   UNL     1     -35.015  24.449   4.559  0.00  0.00    +0.057 C 
ATOM     12  C   UNL     1     -33.355  26.649   4.444  0.00  0.00    +0.108 C 
ATOM     13  C   UNL     1     -34.813  25.216   5.706  0.00  0.00    +0.009 C 
ATOM     14  C   UNL     1     -33.978  26.322   5.647  0.00  0.00    +0.010 C 
ENDROOT
BRANCH  11  15
ATOM     15  S   UNL     1     -36.107  23.030   4.697  0.00  0.00    -0.110 S 
ATOM     16  C   UNL     1     -35.172  21.973   5.835  0.00  0.00    +0.074 C 
ENDBRANCH  11  15
BRANCH  12  18
ATOM     17  O   UNL     1     -32.829  28.969   4.701  0.00  0.00    -0.245 OA
ATOM     18  C   UNL     1     -32.485  27.820   4.420  0.00  0.00    +0.341 C 
BRANCH  18  19
ATOM     19  O   UNL     1     -31.215  27.510   4.045  0.00  0.00    -0.477 OA
ATOM     20  H   UNL     1     -30.707  28.125   3.553  0.00  0.00    +0.295 HD
ENDBRANCH  18  19
ENDBRANCH  12  18
BRANCH   3  21
ATOM     21  O   UNL     1     -35.012  22.493  -0.004  0.00  0.00    -0.448 OA
BRANCH  21  27
ATOM     22  O   UNL     1     -34.588  20.283  -0.758  0.00  0.00    -0.319 OA
ATOM     23  C   UNL     1     -36.381  20.258   1.485  0.00  0.00    +0.173 C 
ATOM     24  C   UNL     1     -36.555  19.296   0.310  0.00  0.00    +0.167 C 
ATOM     25  C   UNL     1     -34.923  20.705   1.615  0.00  0.00    +0.210 C 
ATOM     26  C   UNL     1     -35.954  19.905  -0.965  0.00  0.00    +0.148 C 
ATOM     27  C   UNL     1     -34.397  21.242   0.286  0.00  0.00    +0.318 C 
ATOM     28  C   UNL     1     -35.972  18.922  -2.132  0.00  0.00    +0.035 C 
BRANCH  23  29
ATOM     29  O   UNL     1     -36.801  19.614   2.685  0.00  0.00    -0.379 OA
ATOM     30  H   UNL     1     -36.465  20.106   3.451  0.00  0.00    +0.211 HD
ENDBRANCH  23  29
BRANCH  24  31
ATOM     31  O   UNL     1     -37.950  19.060   0.132  0.00  0.00    -0.379 OA
ATOM     32  H   UNL     1     -38.437  19.889   0.257  0.00  0.00    +0.211 HD
ENDBRANCH  24  31
BRANCH  25  33
ATOM     33  O   UNL     1     -34.106  19.594   1.990  0.00  0.00    -0.377 OA
ATOM     34  H   UNL     1     -33.752  19.739   2.881  0.00  0.00    +0.211 HD
ENDBRANCH  25  33
ENDBRANCH  21  27
ENDBRANCH   3  21
TORSDOF 8
ENDMDL
MODEL 7
REMARK VINA RESULT:      -6.4      1.475      1.964
REMARK  Name = 52921504
REMARK  8 active torsions:
REMARK  status: ('A' for Active; 'I' for Inactive)
REMARK    1  A    between atoms: C_3  and  O_21
REMARK    2  A    between atoms: C_11  and  S_15
REMARK    3  A    between atoms: C_12  and  C_18
REMARK    4  A    between atoms: C_18  and  O_19
REMARK    5  A    between atoms: O_21  and  C_27
REMARK    6  A    between atoms: C_23  and  O_29
REMARK    7  A    between atoms: C_24  and  O_31
REMARK    8  A    between atoms: C_25  and  O_33
REMARK                            x       y       z     vdW  Elec       q    Type
REMARK                         _______ _______ _______ _____ _____    ______ ____
ROOT
ATOM      1  N   UNL     1     -36.431  26.418   2.510  0.00  0.00    -0.393 NA
ATOM      2  N   UNL     1     -34.329  27.367   4.015  0.00  0.00    -0.396 NA
ATOM      3  C   UNL     1     -36.452  24.421   3.795  0.00  0.00    +0.173 C 
ATOM      4  C   UNL     1     -35.923  25.678   3.508  0.00  0.00    +0.195 C 
ATOM      5  C   UNL     1     -35.938  23.638   4.826  0.00  0.00    +0.040 C 
ATOM      6  C   UNL     1     -34.856  26.160   4.272  0.00  0.00    +0.164 C 
ATOM      7  C   UNL     1     -35.905  27.626   2.252  0.00  0.00    +0.167 C 
ATOM      8  C   UNL     1     -34.880  24.115   5.584  0.00  0.00    +0.006 C 
ATOM      9  C   UNL     1     -34.346  25.372   5.302  0.00  0.00    +0.035 C 
ATOM     10  C   UNL     1     -34.838  28.108   3.017  0.00  0.00    +0.168 C 
ATOM     11  C   UNL     1     -36.414  28.413   1.222  0.00  0.00    +0.057 C 
ATOM     12  C   UNL     1     -34.309  29.365   2.730  0.00  0.00    +0.108 C 
ATOM     13  C   UNL     1     -35.882  29.670   0.940  0.00  0.00    +0.009 C 
ATOM     14  C   UNL     1     -34.823  30.148   1.699  0.00  0.00    +0.010 C 
ENDROOT
BRANCH  11  15
ATOM     15  S   UNL     1     -37.783  27.849   0.206  0.00  0.00    -0.110 S 
ATOM     16  C   UNL     1     -38.121  29.328  -0.787  0.00  0.00    +0.074 C 
ENDBRANCH  11  15
BRANCH  12  18
ATOM     17  O   UNL     1     -33.294  30.722   4.420  0.00  0.00    -0.245 OA
ATOM     18  C   UNL     1     -33.196  29.899   3.507  0.00  0.00    +0.341 C 
BRANCH  18  19
ATOM     19  O   UNL     1     -32.000  29.385   3.115  0.00  0.00    -0.477 OA
ATOM     20  H   UNL     1     -31.455  29.863   2.521  0.00  0.00    +0.295 HD
ENDBRANCH  18  19
ENDBRANCH  12  18
BRANCH   3  21
ATOM     21  O   UNL     1     -37.497  23.930   3.060  0.00  0.00    -0.448 OA
BRANCH  21  27
ATOM     22  O   UNL     1     -37.226  23.337   0.778  0.00  0.00    -0.319 OA
ATOM     23  C   UNL     1     -39.573  22.096   1.872  0.00  0.00    +0.173 C 
ATOM     24  C   UNL     1     -39.549  22.644   0.445  0.00  0.00    +0.167 C 
ATOM     25  C   UNL     1     -38.165  21.724   2.340  0.00  0.00    +0.210 C 
ATOM     26  C   UNL     1     -38.515  23.774   0.331  0.00  0.00    +0.148 C 
ATOM     27  C   UNL     1     -37.198  22.888   2.136  0.00  0.00    +0.318 C 
ATOM     28  C   UNL     1     -38.349  24.254  -1.108  0.00  0.00    +0.035 C 
BRANCH  23  29
ATOM     29  O   UNL     1     -40.420  20.950   1.920  0.00  0.00    -0.379 OA
ATOM     30  H   UNL     1     -39.986  20.208   1.470  0.00  0.00    +0.211 HD
ENDBRANCH  23  29
BRANCH  24  31
ATOM     31  O   UNL     1     -40.851  23.135   0.135  0.00  0.00    -0.379 OA
ATOM     32  H   UNL     1     -40.818  23.644  -0.689  0.00  0.00    +0.211 HD
ENDBRANCH  24  31
BRANCH  25  33
ATOM     33  O   UNL     1     -37.678  20.615   1.582  0.00  0.00    -0.377 OA
ATOM     34  H   UNL     1     -36.859  20.869   1.128  0.00  0.00    +0.211 HD
ENDBRANCH  25  33
ENDBRANCH  21  27
ENDBRANCH   3  21
TORSDOF 8
ENDMDL
MODEL 8
REMARK VINA RESULT:      -6.4      3.316      7.213
REMARK  Name = 52921504
REMARK  8 active torsions:
REMARK  status: ('A' for Active; 'I' for Inactive)
REMARK    1  A    between atoms: C_3  and  O_21
REMARK    2  A    between atoms: C_11  and  S_15
REMARK    3  A    between atoms: C_12  and  C_18
REMARK    4  A    between atoms: C_18  and  O_19
REMARK    5  A    between atoms: O_21  and  C_27
REMARK    6  A    between atoms: C_23  and  O_29
REMARK    7  A    between atoms: C_24  and  O_31
REMARK    8  A    between atoms: C_25  and  O_33
REMARK                            x       y       z     vdW  Elec       q    Type
REMARK                         _______ _______ _______ _____ _____    ______ ____
ROOT
ATOM      1  N   UNL     1     -36.009  25.298   2.360  0.00  0.00    -0.393 NA
ATOM      2  N   UNL     1     -35.929  22.788   1.229  0.00  0.00    -0.396 NA
ATOM      3  C   UNL     1     -36.331  26.257   0.212  0.00  0.00    +0.173 C 
ATOM      4  C   UNL     1     -36.147  25.147   1.033  0.00  0.00    +0.195 C 
ATOM      5  C   UNL     1     -36.476  26.122  -1.168  0.00  0.00    +0.040 C 
ATOM      6  C   UNL     1     -36.106  23.873   0.460  0.00  0.00    +0.164 C 
ATOM      7  C   UNL     1     -35.833  24.213   3.131  0.00  0.00    +0.167 C 
ATOM      8  C   UNL     1     -36.435  24.858  -1.737  0.00  0.00    +0.006 C 
ATOM      9  C   UNL     1     -36.251  23.743  -0.921  0.00  0.00    +0.035 C 
ATOM     10  C   UNL     1     -35.793  22.939   2.557  0.00  0.00    +0.168 C 
ATOM     11  C   UNL     1     -35.688  24.343   4.510  0.00  0.00    +0.057 C 
ATOM     12  C   UNL     1     -35.608  21.829   3.378  0.00  0.00    +0.108 C 
ATOM     13  C   UNL     1     -35.504  23.229   5.327  0.00  0.00    +0.009 C 
ATOM     14  C   UNL     1     -35.464  21.964   4.757  0.00  0.00    +0.010 C 
ENDROOT
BRANCH  11  15
ATOM     15  S   UNL     1     -35.731  25.952   5.306  0.00  0.00    -0.110 S 
ATOM     16  C   UNL     1     -34.029  26.093   5.915  0.00  0.00    +0.074 C 
ENDBRANCH  11  15
BRANCH  12  18
ATOM     17  O   UNL     1     -34.534  19.884   2.490  0.00  0.00    -0.245 OA
ATOM     18  C   UNL     1     -35.561  20.484   2.814  0.00  0.00    +0.341 C 
BRANCH  18  19
ATOM     19  O   UNL     1     -36.799  19.939   2.674  0.00  0.00    -0.477 OA
ATOM     20  H   UNL     1     -37.125  19.344   3.319  0.00  0.00    +0.295 HD
ENDBRANCH  18  19
ENDBRANCH  12  18
BRANCH   3  21
ATOM     21  O   UNL     1     -36.375  27.515   0.752  0.00  0.00    -0.448 OA
BRANCH  21  27
ATOM     22  O   UNL     1     -34.232  28.406   1.248  0.00  0.00    -0.319 OA
ATOM     23  C   UNL     1     -36.265  30.402   1.609  0.00  0.00    +0.173 C 
ATOM     24  C   UNL     1     -35.069  30.297   2.555  0.00  0.00    +0.167 C 
ATOM     25  C   UNL     1     -35.926  29.828   0.232  0.00  0.00    +0.210 C 
ATOM     26  C   UNL     1     -34.535  28.858   2.573  0.00  0.00    +0.148 C 
ATOM     27  C   UNL     1     -35.350  28.419   0.355  0.00  0.00    +0.318 C 
ATOM     28  C   UNL     1     -33.252  28.735   3.390  0.00  0.00    +0.035 C 
BRANCH  23  29
ATOM     29  O   UNL     1     -36.647  31.770   1.485  0.00  0.00    -0.379 OA
ATOM     30  H   UNL     1     -36.024  32.326   1.979  0.00  0.00    +0.211 HD
ENDBRANCH  23  29
BRANCH  24  31
ATOM     31  O   UNL     1     -35.501  30.679   3.860  0.00  0.00    -0.379 OA
ATOM     32  H   UNL     1     -35.740  31.619   3.859  0.00  0.00    +0.211 HD
ENDBRANCH  24  31
BRANCH  25  33
ATOM     33  O   UNL     1     -34.943  30.646  -0.407  0.00  0.00    -0.377 OA
ATOM     34  H   UNL     1     -35.383  31.302  -0.968  0.00  0.00    +0.211 HD
ENDBRANCH  25  33
ENDBRANCH  21  27
ENDBRANCH   3  21
TORSDOF 8
ENDMDL
MODEL 9
REMARK VINA RESULT:      -6.4      2.391      3.287
REMARK  Name = 52921504
REMARK  8 active torsions:
REMARK  status: ('A' for Active; 'I' for Inactive)
REMARK    1  A    between atoms: C_3  and  O_21
REMARK    2  A    between atoms: C_11  and  S_15
REMARK    3  A    between atoms: C_12  and  C_18
REMARK    4  A    between atoms: C_18  and  O_19
REMARK    5  A    between atoms: O_21  and  C_27
REMARK    6  A    between atoms: C_23  and  O_29
REMARK    7  A    between atoms: C_24  and  O_31
REMARK    8  A    between atoms: C_25  and  O_33
REMARK                            x       y       z     vdW  Elec       q    Type
REMARK                         _______ _______ _______ _____ _____    ______ ____
ROOT
ATOM      1  N   UNL     1     -36.555  25.832   2.250  0.00  0.00    -0.393 NA
ATOM      2  N   UNL     1     -35.068  27.670   3.663  0.00  0.00    -0.396 NA
ATOM      3  C   UNL     1     -36.087  24.185   3.895  0.00  0.00    +0.173 C 
ATOM      4  C   UNL     1     -35.960  25.482   3.401  0.00  0.00    +0.195 C 
ATOM      5  C   UNL     1     -35.477  23.802   5.088  0.00  0.00    +0.040 C 
ATOM      6  C   UNL     1     -35.205  26.415   4.118  0.00  0.00    +0.164 C 
ATOM      7  C   UNL     1     -36.419  27.087   1.793  0.00  0.00    +0.167 C 
ATOM      8  C   UNL     1     -34.727  24.727   5.799  0.00  0.00    +0.006 C 
ATOM      9  C   UNL     1     -34.597  26.026   5.310  0.00  0.00    +0.035 C 
ATOM     10  C   UNL     1     -35.664  28.020   2.511  0.00  0.00    +0.168 C 
ATOM     11  C   UNL     1     -37.026  27.475   0.602  0.00  0.00    +0.057 C 
ATOM     12  C   UNL     1     -35.538  29.317   2.017  0.00  0.00    +0.108 C 
ATOM     13  C   UNL     1     -36.897  28.774   0.112  0.00  0.00    +0.009 C 
ATOM     14  C   UNL     1     -36.148  29.700   0.824  0.00  0.00    +0.010 C 
ENDROOT
BRANCH  11  15
ATOM     15  S   UNL     1     -38.008  26.323  -0.364  0.00  0.00    -0.110 S 
ATOM     16  C   UNL     1     -36.749  25.613  -1.458  0.00  0.00    +0.074 C 
ENDBRANCH  11  15
BRANCH  12  18
ATOM     17  O   UNL     1     -33.653  30.742   2.396  0.00  0.00    -0.245 OA
ATOM     18  C   UNL     1     -34.758  30.316   2.739  0.00  0.00    +0.341 C 
BRANCH  18  19
ATOM     19  O   UNL     1     -35.388  30.747   3.865  0.00  0.00    -0.477 OA
ATOM     20  H   UNL     1     -36.073  31.383   3.805  0.00  0.00    +0.295 HD
ENDBRANCH  18  19
ENDBRANCH  12  18
BRANCH   3  21
ATOM     21  O   UNL     1     -36.822  23.255   3.210  0.00  0.00    -0.448 OA
BRANCH  21  27
ATOM     22  O   UNL     1     -35.139  22.157   1.947  0.00  0.00    -0.319 OA
ATOM     23  C   UNL     1     -37.751  21.348   1.069  0.00  0.00    +0.173 C 
ATOM     24  C   UNL     1     -36.606  21.565   0.081  0.00  0.00    +0.167 C 
ATOM     25  C   UNL     1     -37.216  20.995   2.458  0.00  0.00    +0.210 C 
ATOM     26  C   UNL     1     -35.596  22.569   0.654  0.00  0.00    +0.148 C 
ATOM     27  C   UNL     1     -36.180  22.018   2.920  0.00  0.00    +0.318 C 
ATOM     28  C   UNL     1     -34.362  22.707  -0.232  0.00  0.00    +0.035 C 
BRANCH  23  29
ATOM     29  O   UNL     1     -38.592  20.300   0.592  0.00  0.00    -0.379 OA
ATOM     30  H   UNL     1     -38.268  19.993  -0.269  0.00  0.00    +0.211 HD
ENDBRANCH  23  29
BRANCH  24  31
ATOM     31  O   UNL     1     -37.158  22.061  -1.137  0.00  0.00    -0.379 OA
ATOM     32  H   UNL     1     -36.737  21.615  -1.888  0.00  0.00    +0.211 HD
ENDBRANCH  24  31
BRANCH  25  33
ATOM     33  O   UNL     1     -36.580  19.716   2.425  0.00  0.00    -0.377 OA
ATOM     34  H   UNL     1     -35.831  19.744   1.809  0.00  0.00    +0.211 HD
ENDBRANCH  25  33
ENDBRANCH  21  27
ENDBRANCH   3  21
TORSDOF 8
ENDMDL
