MODEL 1
REMARK VINA RESULT:      -7.7      0.000      0.000
REMARK  Name = 5276618
REMARK  2 active torsions:
REMARK  status: ('A' for Active; 'I' for Inactive)
REMARK    1  A    between atoms: C_19  and  O_27
REMARK    2  A    between atoms: C_21  and  O_29
REMARK                            x       y       z     vdW  Elec       q    Type
REMARK                         _______ _______ _______ _____ _____    ______ ____
ROOT
ATOM      1  O   UNL     1     -35.300  20.536   3.309  0.00  0.00    -0.291 OA
ATOM      2  O   UNL     1     -37.751  24.997   1.657  0.00  0.00    -0.291 OA
ATOM      3  O   UNL     1     -34.468  19.198   0.676  0.00  0.00    -0.287 OA
ATOM      4  O   UNL     1     -39.682  19.864  -0.400  0.00  0.00    -0.287 OA
ATOM      5  C   UNL     1     -35.781  21.846   1.329  0.00  0.00    +0.084 C 
ATOM      6  C   UNL     1     -36.868  22.886   0.978  0.00  0.00    +0.077 C 
ATOM      7  C   UNL     1     -38.175  22.097   0.799  0.00  0.00    +0.038 C 
ATOM      8  C   UNL     1     -36.367  20.606   0.702  0.00  0.00    +0.023 C 
ATOM      9  C   UNL     1     -37.666  20.749   0.432  0.00  0.00    +0.017 C 
ATOM     10  C   UNL     1     -35.626  21.619   2.831  0.00  0.00    +0.177 C 
ATOM     11  C   UNL     1     -34.426  22.268   0.748  0.00  0.00    +0.013 C 
ATOM     12  C   UNL     1     -37.069  24.019   1.958  0.00  0.00    +0.177 C 
ATOM     13  C   UNL     1     -35.798  22.781   3.727  0.00  0.00    +0.041 C 
ATOM     14  C   UNL     1     -36.466  23.930   3.304  0.00  0.00    +0.071 C 
ATOM     15  C   UNL     1     -35.655  19.347   0.414  0.00  0.00    +0.195 C 
ATOM     16  C   UNL     1     -38.492  19.696  -0.171  0.00  0.00    +0.192 C 
ATOM     17  C   UNL     1     -36.444  18.258  -0.207  0.00  0.00    +0.075 C 
ATOM     18  C   UNL     1     -37.806  18.425  -0.488  0.00  0.00    +0.045 C 
ATOM     19  C   UNL     1     -36.603  25.014   4.181  0.00  0.00    +0.136 C 
ATOM     20  C   UNL     1     -35.278  22.714   5.027  0.00  0.00    +0.003 C 
ATOM     21  C   UNL     1     -35.814  17.045  -0.513  0.00  0.00    +0.137 C 
ATOM     22  C   UNL     1     -38.533  17.381  -1.072  0.00  0.00    +0.003 C 
ATOM     23  C   UNL     1     -36.077  24.947   5.471  0.00  0.00    +0.037 C 
ATOM     24  C   UNL     1     -35.417  23.798   5.895  0.00  0.00    +0.003 C 
ATOM     25  C   UNL     1     -36.545  16.008  -1.095  0.00  0.00    +0.037 C 
ATOM     26  C   UNL     1     -37.899  16.175  -1.374  0.00  0.00    +0.003 C 
ENDROOT
BRANCH  19  27
ATOM     27  O   UNL     1     -37.235  26.173   3.834  0.00  0.00    -0.505 OA
ATOM     28  H   UNL     1     -36.888  26.708   3.148  0.00  0.00    +0.292 HD
ENDBRANCH  19  27
BRANCH  21  29
ATOM     29  O   UNL     1     -34.493  16.816  -0.267  0.00  0.00    -0.505 OA
ATOM     30  H   UNL     1     -33.841  17.340  -0.686  0.00  0.00    +0.292 HD
ENDBRANCH  21  29
TORSDOF 2
ENDMDL
MODEL 2
REMARK VINA RESULT:      -7.1      4.183      9.325
REMARK  Name = 5276618
REMARK  2 active torsions:
REMARK  status: ('A' for Active; 'I' for Inactive)
REMARK    1  A    between atoms: C_19  and  O_27
REMARK    2  A    between atoms: C_21  and  O_29
REMARK                            x       y       z     vdW  Elec       q    Type
REMARK                         _______ _______ _______ _____ _____    ______ ____
ROOT
ATOM      1  O   UNL     1     -36.152  27.477   2.333  0.00  0.00    -0.291 OA
ATOM      2  O   UNL     1     -35.366  22.406   3.856  0.00  0.00    -0.291 OA
ATOM      3  O   UNL     1     -33.293  28.541   2.000  0.00  0.00    -0.287 OA
ATOM      4  O   UNL     1     -32.845  26.654   7.003  0.00  0.00    -0.287 OA
ATOM      5  C   UNL     1     -34.424  25.809   2.651  0.00  0.00    +0.084 C 
ATOM      6  C   UNL     1     -34.326  24.526   3.506  0.00  0.00    +0.077 C 
ATOM      7  C   UNL     1     -34.175  24.991   4.963  0.00  0.00    +0.038 C 
ATOM      8  C   UNL     1     -33.698  26.791   3.537  0.00  0.00    +0.023 C 
ATOM      9  C   UNL     1     -33.581  26.343   4.789  0.00  0.00    +0.017 C 
ATOM     10  C   UNL     1     -35.858  26.289   2.447  0.00  0.00    +0.177 C 
ATOM     11  C   UNL     1     -33.771  25.594   1.281  0.00  0.00    +0.013 C 
ATOM     12  C   UNL     1     -35.464  23.538   3.385  0.00  0.00    +0.177 C 
ATOM     13  C   UNL     1     -36.915  25.267   2.297  0.00  0.00    +0.041 C 
ATOM     14  C   UNL     1     -36.719  23.955   2.724  0.00  0.00    +0.071 C 
ATOM     15  C   UNL     1     -33.174  28.111   3.140  0.00  0.00    +0.195 C 
ATOM     16  C   UNL     1     -32.928  27.098   5.865  0.00  0.00    +0.192 C 
ATOM     17  C   UNL     1     -32.495  28.906   4.190  0.00  0.00    +0.075 C 
ATOM     18  C   UNL     1     -32.378  28.420   5.498  0.00  0.00    +0.045 C 
ATOM     19  C   UNL     1     -37.742  23.012   2.560  0.00  0.00    +0.136 C 
ATOM     20  C   UNL     1     -38.135  25.637   1.716  0.00  0.00    +0.003 C 
ATOM     21  C   UNL     1     -31.968  30.162   3.865  0.00  0.00    +0.137 C 
ATOM     22  C   UNL     1     -31.735  29.189   6.476  0.00  0.00    +0.003 C 
ATOM     23  C   UNL     1     -38.953  23.382   1.973  0.00  0.00    +0.037 C 
ATOM     24  C   UNL     1     -39.150  24.694   1.553  0.00  0.00    +0.003 C 
ATOM     25  C   UNL     1     -31.328  30.924   4.843  0.00  0.00    +0.037 C 
ATOM     26  C   UNL     1     -31.212  30.440   6.144  0.00  0.00    +0.003 C 
ENDROOT
BRANCH  19  27
ATOM     27  O   UNL     1     -37.619  21.708   2.945  0.00  0.00    -0.505 OA
ATOM     28  H   UNL     1     -36.828  21.240   2.764  0.00  0.00    +0.292 HD
ENDBRANCH  19  27
BRANCH  21  29
ATOM     29  O   UNL     1     -32.047  30.694   2.612  0.00  0.00    -0.505 OA
ATOM     30  H   UNL     1     -32.800  30.529   2.080  0.00  0.00    +0.292 HD
ENDBRANCH  21  29
TORSDOF 2
ENDMDL
MODEL 3
REMARK VINA RESULT:      -7.1      3.559      8.251
REMARK  Name = 5276618
REMARK  2 active torsions:
REMARK  status: ('A' for Active; 'I' for Inactive)
REMARK    1  A    between atoms: C_19  and  O_27
REMARK    2  A    between atoms: C_21  and  O_29
REMARK                            x       y       z     vdW  Elec       q    Type
REMARK                         _______ _______ _______ _____ _____    ______ ____
ROOT
ATOM      1  O   UNL     1     -34.227  24.559   2.617  0.00  0.00    -0.291 OA
ATOM      2  O   UNL     1     -39.427  23.330   2.314  0.00  0.00    -0.291 OA
ATOM      3  O   UNL     1     -34.236  27.171   4.227  0.00  0.00    -0.287 OA
ATOM      4  O   UNL     1     -37.722  28.598   0.406  0.00  0.00    -0.287 OA
ATOM      5  C   UNL     1     -36.412  25.229   3.419  0.00  0.00    +0.084 C 
ATOM      6  C   UNL     1     -37.850  25.026   2.891  0.00  0.00    +0.077 C 
ATOM      7  C   UNL     1     -37.993  25.947   1.668  0.00  0.00    +0.038 C 
ATOM      8  C   UNL     1     -36.124  26.621   2.915  0.00  0.00    +0.023 C 
ATOM      9  C   UNL     1     -36.977  26.994   1.959  0.00  0.00    +0.017 C 
ATOM     10  C   UNL     1     -35.403  24.260   2.809  0.00  0.00    +0.177 C 
ATOM     11  C   UNL     1     -36.376  25.090   4.945  0.00  0.00    +0.013 C 
ATOM     12  C   UNL     1     -38.251  23.613   2.532  0.00  0.00    +0.177 C 
ATOM     13  C   UNL     1     -35.854  22.883   2.521  0.00  0.00    +0.041 C 
ATOM     14  C   UNL     1     -37.209  22.572   2.411  0.00  0.00    +0.071 C 
ATOM     15  C   UNL     1     -35.036  27.510   3.364  0.00  0.00    +0.195 C 
ATOM     16  C   UNL     1     -36.923  28.295   1.282  0.00  0.00    +0.192 C 
ATOM     17  C   UNL     1     -34.947  28.840   2.719  0.00  0.00    +0.075 C 
ATOM     18  C   UNL     1     -35.853  29.218   1.719  0.00  0.00    +0.045 C 
ATOM     19  C   UNL     1     -37.598  21.253   2.143  0.00  0.00    +0.136 C 
ATOM     20  C   UNL     1     -34.892  21.878   2.355  0.00  0.00    +0.003 C 
ATOM     21  C   UNL     1     -33.941  29.729   3.116  0.00  0.00    +0.137 C 
ATOM     22  C   UNL     1     -35.749  30.479   1.120  0.00  0.00    +0.003 C 
ATOM     23  C   UNL     1     -36.637  20.254   1.986  0.00  0.00    +0.037 C 
ATOM     24  C   UNL     1     -35.285  20.566   2.090  0.00  0.00    +0.003 C 
ATOM     25  C   UNL     1     -33.842  30.985   2.516  0.00  0.00    +0.037 C 
ATOM     26  C   UNL     1     -34.743  31.359   1.522  0.00  0.00    +0.003 C 
ENDROOT
BRANCH  19  27
ATOM     27  O   UNL     1     -38.904  20.873   2.030  0.00  0.00    -0.505 OA
ATOM     28  H   UNL     1     -39.576  21.378   2.445  0.00  0.00    +0.292 HD
ENDBRANCH  19  27
BRANCH  21  29
ATOM     29  O   UNL     1     -33.028  29.426   4.082  0.00  0.00    -0.505 OA
ATOM     30  H   UNL     1     -32.666  28.564   4.131  0.00  0.00    +0.292 HD
ENDBRANCH  21  29
TORSDOF 2
ENDMDL
MODEL 4
REMARK VINA RESULT:      -7.0      9.801     11.942
REMARK  Name = 5276618
REMARK  2 active torsions:
REMARK  status: ('A' for Active; 'I' for Inactive)
REMARK    1  A    between atoms: C_19  and  O_27
REMARK    2  A    between atoms: C_21  and  O_29
REMARK                            x       y       z     vdW  Elec       q    Type
REMARK                         _______ _______ _______ _____ _____    ______ ____
ROOT
ATOM      1  O   UNL     1     -47.922  28.086   4.997  0.00  0.00    -0.291 OA
ATOM      2  O   UNL     1     -42.788  29.578   5.252  0.00  0.00    -0.291 OA
ATOM      3  O   UNL     1     -47.777  25.058   5.474  0.00  0.00    -0.287 OA
ATOM      4  O   UNL     1     -44.255  25.380   1.440  0.00  0.00    -0.287 OA
ATOM      5  C   UNL     1     -45.701  27.260   5.504  0.00  0.00    +0.084 C 
ATOM      6  C   UNL     1     -44.279  27.719   5.112  0.00  0.00    +0.077 C 
ATOM      7  C   UNL     1     -44.101  27.349   3.631  0.00  0.00    +0.038 C 
ATOM      8  C   UNL     1     -45.927  26.159   4.499  0.00  0.00    +0.023 C 
ATOM      9  C   UNL     1     -45.063  26.225   3.483  0.00  0.00    +0.017 C 
ATOM     10  C   UNL     1     -46.759  28.342   5.303  0.00  0.00    +0.177 C 
ATOM     11  C   UNL     1     -45.733  26.798   6.965  0.00  0.00    +0.013 C 
ATOM     12  C   UNL     1     -43.948  29.178   5.331  0.00  0.00    +0.177 C 
ATOM     13  C   UNL     1     -46.377  29.743   5.574  0.00  0.00    +0.041 C 
ATOM     14  C   UNL     1     -45.040  30.135   5.608  0.00  0.00    +0.071 C 
ATOM     15  C   UNL     1     -46.968  25.116   4.557  0.00  0.00    +0.195 C 
ATOM     16  C   UNL     1     -45.061  25.284   2.356  0.00  0.00    +0.192 C 
ATOM     17  C   UNL     1     -46.998  24.135   3.448  0.00  0.00    +0.075 C 
ATOM     18  C   UNL     1     -46.083  24.216   2.390  0.00  0.00    +0.045 C 
ATOM     19  C   UNL     1     -44.715  31.472   5.876  0.00  0.00    +0.136 C 
ATOM     20  C   UNL     1     -47.387  30.688   5.798  0.00  0.00    +0.003 C 
ATOM     21  C   UNL     1     -47.958  23.116   3.460  0.00  0.00    +0.137 C 
ATOM     22  C   UNL     1     -46.131  23.280   1.350  0.00  0.00    +0.003 C 
ATOM     23  C   UNL     1     -45.724  32.408   6.104  0.00  0.00    +0.037 C 
ATOM     24  C   UNL     1     -47.059  32.017   6.064  0.00  0.00    +0.003 C 
ATOM     25  C   UNL     1     -48.001  22.186   2.420  0.00  0.00    +0.037 C 
ATOM     26  C   UNL     1     -47.091  22.267   1.369  0.00  0.00    +0.003 C 
ENDROOT
BRANCH  19  27
ATOM     27  O   UNL     1     -43.430  31.926   5.933  0.00  0.00    -0.505 OA
ATOM     28  H   UNL     1     -42.743  31.354   6.214  0.00  0.00    +0.292 HD
ENDBRANCH  19  27
BRANCH  21  29
ATOM     29  O   UNL     1     -48.878  22.980   4.457  0.00  0.00    -0.505 OA
ATOM     30  H   UNL     1     -48.941  23.630   5.128  0.00  0.00    +0.292 HD
ENDBRANCH  21  29
TORSDOF 2
ENDMDL
MODEL 5
REMARK VINA RESULT:      -6.9      4.401      8.670
REMARK  Name = 5276618
REMARK  2 active torsions:
REMARK  status: ('A' for Active; 'I' for Inactive)
REMARK    1  A    between atoms: C_19  and  O_27
REMARK    2  A    between atoms: C_21  and  O_29
REMARK                            x       y       z     vdW  Elec       q    Type
REMARK                         _______ _______ _______ _____ _____    ______ ____
ROOT
ATOM      1  O   UNL     1     -34.252  26.143   5.022  0.00  0.00    -0.291 OA
ATOM      2  O   UNL     1     -35.195  22.287   1.432  0.00  0.00    -0.291 OA
ATOM      3  O   UNL     1     -34.880  28.705   3.454  0.00  0.00    -0.287 OA
ATOM      4  O   UNL     1     -31.399  26.514   0.008  0.00  0.00    -0.287 OA
ATOM      5  C   UNL     1     -35.117  25.761   2.792  0.00  0.00    +0.084 C 
ATOM      6  C   UNL     1     -34.920  24.637   1.750  0.00  0.00    +0.077 C 
ATOM      7  C   UNL     1     -33.499  24.814   1.192  0.00  0.00    +0.038 C 
ATOM      8  C   UNL     1     -34.140  26.790   2.282  0.00  0.00    +0.023 C 
ATOM      9  C   UNL     1     -33.260  26.263   1.427  0.00  0.00    +0.017 C 
ATOM     10  C   UNL     1     -34.715  25.350   4.206  0.00  0.00    +0.177 C 
ATOM     11  C   UNL     1     -36.577  26.229   2.806  0.00  0.00    +0.013 C 
ATOM     12  C   UNL     1     -35.120  23.218   2.232  0.00  0.00    +0.177 C 
ATOM     13  C   UNL     1     -34.977  23.956   4.622  0.00  0.00    +0.041 C 
ATOM     14  C   UNL     1     -35.190  22.948   3.683  0.00  0.00    +0.071 C 
ATOM     15  C   UNL     1     -34.091  28.216   2.656  0.00  0.00    +0.195 C 
ATOM     16  C   UNL     1     -32.190  27.035   0.784  0.00  0.00    +0.192 C 
ATOM     17  C   UNL     1     -33.034  29.038   2.024  0.00  0.00    +0.075 C 
ATOM     18  C   UNL     1     -32.120  28.472   1.125  0.00  0.00    +0.045 C 
ATOM     19  C   UNL     1     -35.442  21.639   4.117  0.00  0.00    +0.136 C 
ATOM     20  C   UNL     1     -35.006  23.655   5.990  0.00  0.00    +0.003 C 
ATOM     21  C   UNL     1     -32.949  30.401   2.334  0.00  0.00    +0.137 C 
ATOM     22  C   UNL     1     -31.127  29.267   0.542  0.00  0.00    +0.003 C 
ATOM     23  C   UNL     1     -35.478  21.344   5.480  0.00  0.00    +0.037 C 
ATOM     24  C   UNL     1     -35.259  22.350   6.416  0.00  0.00    +0.003 C 
ATOM     25  C   UNL     1     -31.957  31.189   1.749  0.00  0.00    +0.037 C 
ATOM     26  C   UNL     1     -31.050  30.625   0.855  0.00  0.00    +0.003 C 
ENDROOT
BRANCH  19  27
ATOM     27  O   UNL     1     -35.669  20.604   3.257  0.00  0.00    -0.505 OA
ATOM     28  H   UNL     1     -34.958  20.237   2.770  0.00  0.00    +0.292 HD
ENDBRANCH  19  27
BRANCH  21  29
ATOM     29  O   UNL     1     -33.805  31.016   3.198  0.00  0.00    -0.505 OA
ATOM     30  H   UNL     1     -34.109  31.884   3.020  0.00  0.00    +0.292 HD
ENDBRANCH  21  29
TORSDOF 2
ENDMDL
MODEL 6
REMARK VINA RESULT:      -6.9      1.469      7.365
REMARK  Name = 5276618
REMARK  2 active torsions:
REMARK  status: ('A' for Active; 'I' for Inactive)
REMARK    1  A    between atoms: C_19  and  O_27
REMARK    2  A    between atoms: C_21  and  O_29
REMARK                            x       y       z     vdW  Elec       q    Type
REMARK                         _______ _______ _______ _____ _____    ______ ____
ROOT
ATOM      1  O   UNL     1     -38.954  22.521   0.740  0.00  0.00    -0.291 OA
ATOM      2  O   UNL     1     -35.936  18.181  -0.097  0.00  0.00    -0.291 OA
ATOM      3  O   UNL     1     -36.869  24.716   1.240  0.00  0.00    -0.287 OA
ATOM      4  O   UNL     1     -35.154  21.168   4.880  0.00  0.00    -0.287 OA
ATOM      5  C   UNL     1     -36.658  21.798   0.467  0.00  0.00    +0.084 C 
ATOM      6  C   UNL     1     -35.937  20.445   0.659  0.00  0.00    +0.077 C 
ATOM      7  C   UNL     1     -35.851  20.217   2.177  0.00  0.00    +0.038 C 
ATOM      8  C   UNL     1     -36.333  22.477   1.773  0.00  0.00    +0.023 C 
ATOM      9  C   UNL     1     -35.909  21.609   2.696  0.00  0.00    +0.017 C 
ATOM     10  C   UNL     1     -38.173  21.660   0.341  0.00  0.00    +0.177 C 
ATOM     11  C   UNL     1     -36.119  22.522  -0.773  0.00  0.00    +0.013 C 
ATOM     12  C   UNL     1     -36.554  19.242  -0.018  0.00  0.00    +0.177 C 
ATOM     13  C   UNL     1     -38.704  20.478  -0.368  0.00  0.00    +0.041 C 
ATOM     14  C   UNL     1     -37.926  19.337  -0.556  0.00  0.00    +0.071 C 
ATOM     15  C   UNL     1     -36.463  23.915   2.072  0.00  0.00    +0.195 C 
ATOM     16  C   UNL     1     -35.534  21.994   4.061  0.00  0.00    +0.192 C 
ATOM     17  C   UNL     1     -36.084  24.354   3.435  0.00  0.00    +0.075 C 
ATOM     18  C   UNL     1     -35.638  23.432   4.391  0.00  0.00    +0.045 C 
ATOM     19  C   UNL     1     -38.462  18.237  -1.240  0.00  0.00    +0.136 C 
ATOM     20  C   UNL     1     -40.018  20.515  -0.854  0.00  0.00    +0.003 C 
ATOM     21  C   UNL     1     -36.176  25.710   3.769  0.00  0.00    +0.137 C 
ATOM     22  C   UNL     1     -35.287  23.868   5.674  0.00  0.00    +0.003 C 
ATOM     23  C   UNL     1     -39.768  18.281  -1.728  0.00  0.00    +0.037 C 
ATOM     24  C   UNL     1     -40.546  19.418  -1.535  0.00  0.00    +0.003 C 
ATOM     25  C   UNL     1     -35.825  26.139   5.050  0.00  0.00    +0.037 C 
ATOM     26  C   UNL     1     -35.382  25.221   5.999  0.00  0.00    +0.003 C 
ENDROOT
BRANCH  19  27
ATOM     27  O   UNL     1     -37.758  17.091  -1.469  0.00  0.00    -0.505 OA
ATOM     28  H   UNL     1     -38.183  16.258  -1.399  0.00  0.00    +0.292 HD
ENDBRANCH  19  27
BRANCH  21  29
ATOM     29  O   UNL     1     -36.602  26.660   2.888  0.00  0.00    -0.505 OA
ATOM     30  H   UNL     1     -36.782  26.428   1.999  0.00  0.00    +0.292 HD
ENDBRANCH  21  29
TORSDOF 2
ENDMDL
MODEL 7
REMARK VINA RESULT:      -6.9      3.911      8.746
REMARK  Name = 5276618
REMARK  2 active torsions:
REMARK  status: ('A' for Active; 'I' for Inactive)
REMARK    1  A    between atoms: C_19  and  O_27
REMARK    2  A    between atoms: C_21  and  O_29
REMARK                            x       y       z     vdW  Elec       q    Type
REMARK                         _______ _______ _______ _____ _____    ______ ____
ROOT
ATOM      1  O   UNL     1     -33.901  24.040   4.070  0.00  0.00    -0.291 OA
ATOM      2  O   UNL     1     -38.534  25.551   1.856  0.00  0.00    -0.291 OA
ATOM      3  O   UNL     1     -33.324  26.305   6.057  0.00  0.00    -0.287 OA
ATOM      4  O   UNL     1     -34.031  29.290   1.656  0.00  0.00    -0.287 OA
ATOM      5  C   UNL     1     -35.657  25.701   4.227  0.00  0.00    +0.084 C 
ATOM      6  C   UNL     1     -36.708  26.239   3.230  0.00  0.00    +0.077 C 
ATOM      7  C   UNL     1     -35.939  27.116   2.228  0.00  0.00    +0.038 C 
ATOM      8  C   UNL     1     -34.598  26.770   4.121  0.00  0.00    +0.023 C 
ATOM      9  C   UNL     1     -34.753  27.520   3.029  0.00  0.00    +0.017 C 
ATOM     10  C   UNL     1     -35.058  24.362   3.806  0.00  0.00    +0.177 C 
ATOM     11  C   UNL     1     -36.270  25.555   5.625  0.00  0.00    +0.013 C 
ATOM     12  C   UNL     1     -37.540  25.212   2.497  0.00  0.00    +0.177 C 
ATOM     13  C   UNL     1     -35.941  23.390   3.129  0.00  0.00    +0.041 C 
ATOM     14  C   UNL     1     -37.131  23.793   2.525  0.00  0.00    +0.071 C 
ATOM     15  C   UNL     1     -33.486  27.000   5.063  0.00  0.00    +0.195 C 
ATOM     16  C   UNL     1     -33.858  28.627   2.670  0.00  0.00    +0.192 C 
ATOM     17  C   UNL     1     -32.562  28.115   4.749  0.00  0.00    +0.075 C 
ATOM     18  C   UNL     1     -32.740  28.896   3.600  0.00  0.00    +0.045 C 
ATOM     19  C   UNL     1     -37.947  22.841   1.898  0.00  0.00    +0.136 C 
ATOM     20  C   UNL     1     -35.563  22.042   3.097  0.00  0.00    +0.003 C 
ATOM     21  C   UNL     1     -31.497  28.386   5.615  0.00  0.00    +0.137 C 
ATOM     22  C   UNL     1     -31.854  29.943   3.321  0.00  0.00    +0.003 C 
ATOM     23  C   UNL     1     -37.570  21.498   1.875  0.00  0.00    +0.037 C 
ATOM     24  C   UNL     1     -36.379  21.098   2.473  0.00  0.00    +0.003 C 
ATOM     25  C   UNL     1     -30.616  29.431   5.332  0.00  0.00    +0.037 C 
ATOM     26  C   UNL     1     -30.794  30.207   4.189  0.00  0.00    +0.003 C 
ENDROOT
BRANCH  19  27
ATOM     27  O   UNL     1     -39.128  23.159   1.294  0.00  0.00    -0.505 OA
ATOM     28  H   UNL     1     -39.197  23.940   0.781  0.00  0.00    +0.292 HD
ENDBRANCH  19  27
BRANCH  21  29
ATOM     29  O   UNL     1     -31.266  27.666   6.750  0.00  0.00    -0.505 OA
ATOM     30  H   UNL     1     -30.962  26.782   6.690  0.00  0.00    +0.292 HD
ENDBRANCH  21  29
TORSDOF 2
ENDMDL
MODEL 8
REMARK VINA RESULT:      -6.9      4.247      7.851
REMARK  Name = 5276618
REMARK  2 active torsions:
REMARK  status: ('A' for Active; 'I' for Inactive)
REMARK    1  A    between atoms: C_19  and  O_27
REMARK    2  A    between atoms: C_21  and  O_29
REMARK                            x       y       z     vdW  Elec       q    Type
REMARK                         _______ _______ _______ _____ _____    ______ ____
ROOT
ATOM      1  O   UNL     1     -40.391  26.929   2.715  0.00  0.00    -0.291 OA
ATOM      2  O   UNL     1     -41.515  22.535  -0.126  0.00  0.00    -0.291 OA
ATOM      3  O   UNL     1     -37.440  27.440   2.044  0.00  0.00    -0.287 OA
ATOM      4  O   UNL     1     -37.010  22.326   3.611  0.00  0.00    -0.287 OA
ATOM      5  C   UNL     1     -39.469  25.421   1.058  0.00  0.00    +0.084 C 
ATOM      6  C   UNL     1     -39.769  23.957   0.665  0.00  0.00    +0.077 C 
ATOM      7  C   UNL     1     -39.211  23.085   1.801  0.00  0.00    +0.038 C 
ATOM      8  C   UNL     1     -38.274  25.229   1.959  0.00  0.00    +0.023 C 
ATOM      9  C   UNL     1     -38.153  23.963   2.365  0.00  0.00    +0.017 C 
ATOM     10  C   UNL     1     -40.594  26.074   1.857  0.00  0.00    +0.177 C 
ATOM     11  C   UNL     1     -39.190  26.266  -0.190  0.00  0.00    +0.013 C 
ATOM     12  C   UNL     1     -41.215  23.607   0.396  0.00  0.00    +0.177 C 
ATOM     13  C   UNL     1     -41.985  25.713   1.513  0.00  0.00    +0.041 C 
ATOM     14  C   UNL     1     -42.277  24.551   0.800  0.00  0.00    +0.071 C 
ATOM     15  C   UNL     1     -37.327  26.272   2.395  0.00  0.00    +0.195 C 
ATOM     16  C   UNL     1     -37.085  23.495   3.257  0.00  0.00    +0.192 C 
ATOM     17  C   UNL     1     -36.224  25.845   3.288  0.00  0.00    +0.075 C 
ATOM     18  C   UNL     1     -36.108  24.512   3.702  0.00  0.00    +0.045 C 
ATOM     19  C   UNL     1     -43.609  24.246   0.487  0.00  0.00    +0.136 C 
ATOM     20  C   UNL     1     -43.023  26.563   1.919  0.00  0.00    +0.003 C 
ATOM     21  C   UNL     1     -35.289  26.792   3.722  0.00  0.00    +0.137 C 
ATOM     22  C   UNL     1     -35.060  24.131   4.548  0.00  0.00    +0.003 C 
ATOM     23  C   UNL     1     -44.639  25.098   0.886  0.00  0.00    +0.037 C 
ATOM     24  C   UNL     1     -44.347  26.255   1.603  0.00  0.00    +0.003 C 
ATOM     25  C   UNL     1     -34.246  26.406   4.565  0.00  0.00    +0.037 C 
ATOM     26  C   UNL     1     -34.132  25.081   4.977  0.00  0.00    +0.003 C 
ENDROOT
BRANCH  19  27
ATOM     27  O   UNL     1     -43.969  23.132  -0.214  0.00  0.00    -0.505 OA
ATOM     28  H   UNL     1     -43.535  22.318  -0.054  0.00  0.00    +0.292 HD
ENDBRANCH  19  27
BRANCH  21  29
ATOM     29  O   UNL     1     -35.343  28.105   3.357  0.00  0.00    -0.505 OA
ATOM     30  H   UNL     1     -34.552  28.598   3.266  0.00  0.00    +0.292 HD
ENDBRANCH  21  29
TORSDOF 2
ENDMDL
MODEL 9
REMARK VINA RESULT:      -6.8      1.672      2.095
REMARK  Name = 5276618
REMARK  2 active torsions:
REMARK  status: ('A' for Active; 'I' for Inactive)
REMARK    1  A    between atoms: C_19  and  O_27
REMARK    2  A    between atoms: C_21  and  O_29
REMARK                            x       y       z     vdW  Elec       q    Type
REMARK                         _______ _______ _______ _____ _____    ______ ____
ROOT
ATOM      1  O   UNL     1     -36.171  20.103   2.573  0.00  0.00    -0.291 OA
ATOM      2  O   UNL     1     -37.417  25.283   3.085  0.00  0.00    -0.291 OA
ATOM      3  O   UNL     1     -36.211  19.688  -0.467  0.00  0.00    -0.287 OA
ATOM      4  O   UNL     1     -41.092  21.844   0.090  0.00  0.00    -0.287 OA
ATOM      5  C   UNL     1     -36.553  22.125   1.296  0.00  0.00    +0.084 C 
ATOM      6  C   UNL     1     -37.323  23.435   1.578  0.00  0.00    +0.077 C 
ATOM      7  C   UNL     1     -38.816  23.079   1.501  0.00  0.00    +0.038 C 
ATOM      8  C   UNL     1     -37.574  21.369   0.483  0.00  0.00    +0.023 C 
ATOM      9  C   UNL     1     -38.798  21.887   0.613  0.00  0.00    +0.017 C 
ATOM     10  C   UNL     1     -36.233  21.330   2.559  0.00  0.00    +0.177 C 
ATOM     11  C   UNL     1     -35.246  22.420   0.550  0.00  0.00    +0.013 C 
ATOM     12  C   UNL     1     -37.017  24.138   2.881  0.00  0.00    +0.177 C 
ATOM     13  C   UNL     1     -35.905  22.083   3.786  0.00  0.00    +0.041 C 
ATOM     14  C   UNL     1     -36.259  23.424   3.929  0.00  0.00    +0.071 C 
ATOM     15  C   UNL     1     -37.325  20.183  -0.356  0.00  0.00    +0.195 C 
ATOM     16  C   UNL     1     -39.985  21.344  -0.058  0.00  0.00    +0.192 C 
ATOM     17  C   UNL     1     -38.492  19.606  -1.064  0.00  0.00    +0.075 C 
ATOM     18  C   UNL     1     -39.769  20.162  -0.920  0.00  0.00    +0.045 C 
ATOM     19  C   UNL     1     -35.925  24.108   5.106  0.00  0.00    +0.136 C 
ATOM     20  C   UNL     1     -35.226  21.426   4.821  0.00  0.00    +0.003 C 
ATOM     21  C   UNL     1     -38.310  18.486  -1.885  0.00  0.00    +0.137 C 
ATOM     22  C   UNL     1     -40.858  19.599  -1.596  0.00  0.00    +0.003 C 
ATOM     23  C   UNL     1     -35.242  23.452   6.131  0.00  0.00    +0.037 C 
ATOM     24  C   UNL     1     -34.894  22.112   5.990  0.00  0.00    +0.003 C 
ATOM     25  C   UNL     1     -39.399  17.928  -2.556  0.00  0.00    +0.037 C 
ATOM     26  C   UNL     1     -40.669  18.483  -2.412  0.00  0.00    +0.003 C 
ENDROOT
BRANCH  19  27
ATOM     27  O   UNL     1     -36.231  25.421   5.314  0.00  0.00    -0.505 OA
ATOM     28  H   UNL     1     -36.976  25.800   4.891  0.00  0.00    +0.292 HD
ENDBRANCH  19  27
BRANCH  21  29
ATOM     29  O   UNL     1     -37.095  17.895  -2.069  0.00  0.00    -0.505 OA
ATOM     30  H   UNL     1     -36.423  18.343  -2.542  0.00  0.00    +0.292 HD
ENDBRANCH  21  29
TORSDOF 2
ENDMDL
