MODEL 1
REMARK VINA RESULT:      -5.3      0.000      0.000
REMARK  Name = 5486945
REMARK  10 active torsions:
REMARK  status: ('A' for Active; 'I' for Inactive)
REMARK    1  A    between atoms: N_2  and  C_5
REMARK    2  A    between atoms: C_3  and  C_17
REMARK    3  A    between atoms: C_5  and  C_9
REMARK    4  A    between atoms: N_8  and  C_11
REMARK    5  A    between atoms: C_11  and  C_14
REMARK    6  A    between atoms: C_17  and  N_19
REMARK    7  A    between atoms: C_17  and  C_25
REMARK    8  A    between atoms: N_19  and  O_23
REMARK    9  A    between atoms: C_20  and  C_22
REMARK   10  A    between atoms: C_25  and  C_27
REMARK                            x       y       z     vdW  Elec       q    Type
REMARK                         _______ _______ _______ _____ _____    ______ ____
ROOT
ATOM      1  O   UNL     1     -34.413  24.319   1.950  0.00  0.00    -0.273 OA
ATOM      2  N   UNL     1     -36.070  22.750   2.372  0.00  0.00    -0.297 N 
ATOM      3  C   UNL     1     -35.469  23.995   2.489  0.00  0.00    +0.243 C 
ATOM      4  H   UNL     1     -36.919  22.594   2.846  0.00  0.00    +0.150 HD
ENDROOT
BRANCH   2   5
ATOM      5  C   UNL     1     -35.513  21.670   1.590  0.00  0.00    +0.149 C 
ATOM      6  C   UNL     1     -35.133  20.488   2.469  0.00  0.00    +0.031 C 
BRANCH   5   9
ATOM      7  O   UNL     1     -36.278  20.546  -0.416  0.00  0.00    -0.273 OA
ATOM      8  N   UNL     1     -37.787  21.833   0.790  0.00  0.00    -0.295 N 
ATOM      9  C   UNL     1     -36.545  21.263   0.546  0.00  0.00    +0.241 C 
ATOM     10  H   UNL     1     -37.900  22.395   1.590  0.00  0.00    +0.150 HD
BRANCH   8  11
ATOM     11  C   UNL     1     -38.920  21.633  -0.082  0.00  0.00    +0.175 C 
BRANCH  11  14
ATOM     12  O   UNL     1     -41.185  20.841   0.242  0.00  0.00    -0.273 OA
ATOM     13  N   UNL     1     -39.910  21.345   2.087  0.00  0.00    -0.327 N 
ATOM     14  C   UNL     1     -40.122  21.213   0.732  0.00  0.00    +0.239 C 
ATOM     15  H   UNL     1     -40.622  21.103   2.723  0.00  0.00    +0.145 HD
ATOM     16  H   UNL     1     -39.047  21.683   2.420  0.00  0.00    +0.145 HD
ENDBRANCH  11  14
ENDBRANCH   8  11
ENDBRANCH   5   9
ENDBRANCH   2   5
BRANCH   3  17
ATOM     17  C   UNL     1     -36.254  24.931   3.405  0.00  0.00    +0.179 C 
BRANCH  17  19
ATOM     18  O   UNL     1     -37.605  26.974   1.956  0.00  0.00    -0.271 OA
ATOM     19  N   UNL     1     -37.631  24.926   2.980  0.00  0.00    -0.164 N 
ATOM     20  C   UNL     1     -38.215  25.955   2.279  0.00  0.00    +0.265 C 
BRANCH  20  22
ATOM     21 CL   UNL     1     -40.712  26.243   3.287  0.00  0.00    -0.103 Cl
ATOM     22  C   UNL     1     -39.676  25.739   1.941  0.00  0.00    +0.182 C 
ENDBRANCH  20  22
BRANCH  19  23
ATOM     23  O   UNL     1     -38.310  23.759   3.357  0.00  0.00    -0.291 OA
ATOM     24  H   UNL     1     -38.413  23.180   2.585  0.00  0.00    +0.242 HD
ENDBRANCH  19  23
ENDBRANCH  17  19
BRANCH  17  25
ATOM     25  C   UNL     1     -36.082  24.577   4.902  0.00  0.00    +0.030 C 
ATOM     26  C   UNL     1     -35.945  25.858   5.736  0.00  0.00    +0.002 C 
BRANCH  25  27
ATOM     27  C   UNL     1     -34.903  23.610   5.148  0.00  0.00    +0.002 C 
ATOM     28  C   UNL     1     -35.277  22.398   5.992  0.00  0.00    +0.000 C 
ENDBRANCH  25  27
ENDBRANCH  17  25
ENDBRANCH   3  17
TORSDOF 10
ENDMDL
MODEL 2
REMARK VINA RESULT:      -5.3      3.196      6.413
REMARK  Name = 5486945
REMARK  10 active torsions:
REMARK  status: ('A' for Active; 'I' for Inactive)
REMARK    1  A    between atoms: N_2  and  C_5
REMARK    2  A    between atoms: C_3  and  C_17
REMARK    3  A    between atoms: C_5  and  C_9
REMARK    4  A    between atoms: N_8  and  C_11
REMARK    5  A    between atoms: C_11  and  C_14
REMARK    6  A    between atoms: C_17  and  N_19
REMARK    7  A    between atoms: C_17  and  C_25
REMARK    8  A    between atoms: N_19  and  O_23
REMARK    9  A    between atoms: C_20  and  C_22
REMARK   10  A    between atoms: C_25  and  C_27
REMARK                            x       y       z     vdW  Elec       q    Type
REMARK                         _______ _______ _______ _____ _____    ______ ____
ROOT
ATOM      1  O   UNL     1     -34.890  23.335   2.866  0.00  0.00    -0.273 OA
ATOM      2  N   UNL     1     -36.468  22.297   4.216  0.00  0.00    -0.297 N 
ATOM      3  C   UNL     1     -35.881  22.621   3.001  0.00  0.00    +0.243 C 
ATOM      4  H   UNL     1     -37.261  21.714   4.212  0.00  0.00    +0.150 HD
ENDROOT
BRANCH   2   5
ATOM      5  C   UNL     1     -35.971  22.772   5.487  0.00  0.00    +0.149 C 
ATOM      6  C   UNL     1     -34.628  22.144   5.827  0.00  0.00    +0.031 C 
BRANCH   5   9
ATOM      7  O   UNL     1     -36.812  25.019   5.144  0.00  0.00    -0.273 OA
ATOM      8  N   UNL     1     -34.562  24.729   5.634  0.00  0.00    -0.295 N 
ATOM      9  C   UNL     1     -35.859  24.289   5.412  0.00  0.00    +0.241 C 
ATOM     10  H   UNL     1     -33.867  24.064   5.842  0.00  0.00    +0.150 HD
BRANCH   8  11
ATOM     11  C   UNL     1     -34.191  26.123   5.574  0.00  0.00    +0.175 C 
BRANCH  11  14
ATOM     12  O   UNL     1     -33.331  26.261   3.315  0.00  0.00    -0.273 OA
ATOM     13  N   UNL     1     -35.212  27.464   3.863  0.00  0.00    -0.327 N 
ATOM     14  C   UNL     1     -34.183  26.588   4.136  0.00  0.00    +0.239 C 
ATOM     15  H   UNL     1     -35.313  27.838   2.958  0.00  0.00    +0.145 HD
ATOM     16  H   UNL     1     -35.845  27.716   4.573  0.00  0.00    +0.145 HD
ENDBRANCH  11  14
ENDBRANCH   8  11
ENDBRANCH   5   9
ENDBRANCH   2   5
BRANCH   3  17
ATOM     17  C   UNL     1     -36.633  22.012   1.818  0.00  0.00    +0.179 C 
BRANCH  17  19
ATOM     18  O   UNL     1     -34.887  21.155  -0.258  0.00  0.00    -0.271 OA
ATOM     19  N   UNL     1     -36.131  20.679   1.604  0.00  0.00    -0.164 N 
ATOM     20  C   UNL     1     -35.286  20.340   0.573  0.00  0.00    +0.265 C 
BRANCH  20  22
ATOM     21 CL   UNL     1     -33.365  18.621   1.405  0.00  0.00    -0.103 Cl
ATOM     22  C   UNL     1     -34.889  18.878   0.537  0.00  0.00    +0.182 C 
ENDBRANCH  20  22
BRANCH  19  23
ATOM     23  O   UNL     1     -36.597  19.765   2.559  0.00  0.00    -0.291 OA
ATOM     24  H   UNL     1     -35.842  19.342   2.999  0.00  0.00    +0.242 HD
ENDBRANCH  19  23
ENDBRANCH  17  19
BRANCH  17  25
ATOM     25  C   UNL     1     -38.169  22.058   2.006  0.00  0.00    +0.030 C 
ATOM     26  C   UNL     1     -38.867  21.376   0.821  0.00  0.00    +0.002 C 
BRANCH  25  27
ATOM     27  C   UNL     1     -38.694  23.493   2.225  0.00  0.00    +0.002 C 
ATOM     28  C   UNL     1     -40.171  23.658   1.889  0.00  0.00    +0.000 C 
ENDBRANCH  25  27
ENDBRANCH  17  25
ENDBRANCH   3  17
TORSDOF 10
ENDMDL
MODEL 3
REMARK VINA RESULT:      -5.2      4.053      7.055
REMARK  Name = 5486945
REMARK  10 active torsions:
REMARK  status: ('A' for Active; 'I' for Inactive)
REMARK    1  A    between atoms: N_2  and  C_5
REMARK    2  A    between atoms: C_3  and  C_17
REMARK    3  A    between atoms: C_5  and  C_9
REMARK    4  A    between atoms: N_8  and  C_11
REMARK    5  A    between atoms: C_11  and  C_14
REMARK    6  A    between atoms: C_17  and  N_19
REMARK    7  A    between atoms: C_17  and  C_25
REMARK    8  A    between atoms: N_19  and  O_23
REMARK    9  A    between atoms: C_20  and  C_22
REMARK   10  A    between atoms: C_25  and  C_27
REMARK                            x       y       z     vdW  Elec       q    Type
REMARK                         _______ _______ _______ _____ _____    ______ ____
ROOT
ATOM      1  O   UNL     1     -33.303  25.361   3.675  0.00  0.00    -0.273 OA
ATOM      2  N   UNL     1     -34.712  26.758   2.469  0.00  0.00    -0.297 N 
ATOM      3  C   UNL     1     -34.420  25.647   3.249  0.00  0.00    +0.243 C 
ATOM      4  H   UNL     1     -35.643  26.895   2.181  0.00  0.00    +0.150 HD
ENDROOT
BRANCH   2   5
ATOM      5  C   UNL     1     -33.717  27.722   2.060  0.00  0.00    +0.149 C 
ATOM      6  C   UNL     1     -34.137  28.445   0.789  0.00  0.00    +0.031 C 
BRANCH   5   9
ATOM      7  O   UNL     1     -34.291  29.630   3.438  0.00  0.00    -0.273 OA
ATOM      8  N   UNL     1     -32.344  28.458   3.906  0.00  0.00    -0.295 N 
ATOM      9  C   UNL     1     -33.515  28.706   3.204  0.00  0.00    +0.241 C 
ATOM     10  H   UNL     1     -31.788  27.690   3.641  0.00  0.00    +0.150 HD
BRANCH   8  11
ATOM     11  C   UNL     1     -31.908  29.279   5.011  0.00  0.00    +0.175 C 
BRANCH  11  14
ATOM     12  O   UNL     1     -32.747  27.518   6.444  0.00  0.00    -0.273 OA
ATOM     13  N   UNL     1     -31.288  29.063   7.320  0.00  0.00    -0.327 N 
ATOM     14  C   UNL     1     -32.030  28.505   6.302  0.00  0.00    +0.239 C 
ATOM     15  H   UNL     1     -31.286  28.648   8.213  0.00  0.00    +0.145 HD
ATOM     16  H   UNL     1     -30.759  29.876   7.155  0.00  0.00    +0.145 HD
ENDBRANCH  11  14
ENDBRANCH   8  11
ENDBRANCH   5   9
ENDBRANCH   2   5
BRANCH   3  17
ATOM     17  C   UNL     1     -35.652  24.779   3.500  0.00  0.00    +0.179 C 
BRANCH  17  19
ATOM     18  O   UNL     1     -37.577  22.700   3.241  0.00  0.00    -0.271 OA
ATOM     19  N   UNL     1     -35.558  23.612   2.661  0.00  0.00    -0.164 N 
ATOM     20  C   UNL     1     -36.534  22.645   2.588  0.00  0.00    +0.265 C 
BRANCH  20  22
ATOM     21 CL   UNL     1     -35.165  20.314   2.427  0.00  0.00    -0.103 Cl
ATOM     22  C   UNL     1     -36.222  21.502   1.645  0.00  0.00    +0.182 C 
ENDBRANCH  20  22
BRANCH  19  23
ATOM     23  O   UNL     1     -34.364  23.567   1.927  0.00  0.00    -0.291 OA
ATOM     24  H   UNL     1     -34.138  24.459   1.621  0.00  0.00    +0.242 HD
ENDBRANCH  19  23
ENDBRANCH  17  19
BRANCH  17  25
ATOM     25  C   UNL     1     -35.838  24.434   4.998  0.00  0.00    +0.030 C 
ATOM     26  C   UNL     1     -35.809  25.715   5.842  0.00  0.00    +0.002 C 
BRANCH  25  27
ATOM     27  C   UNL     1     -34.806  23.400   5.497  0.00  0.00    +0.002 C 
ATOM     28  C   UNL     1     -35.432  22.230   6.247  0.00  0.00    +0.000 C 
ENDBRANCH  25  27
ENDBRANCH  17  25
ENDBRANCH   3  17
TORSDOF 10
ENDMDL
MODEL 4
REMARK VINA RESULT:      -5.1      2.401      3.648
REMARK  Name = 5486945
REMARK  10 active torsions:
REMARK  status: ('A' for Active; 'I' for Inactive)
REMARK    1  A    between atoms: N_2  and  C_5
REMARK    2  A    between atoms: C_3  and  C_17
REMARK    3  A    between atoms: C_5  and  C_9
REMARK    4  A    between atoms: N_8  and  C_11
REMARK    5  A    between atoms: C_11  and  C_14
REMARK    6  A    between atoms: C_17  and  N_19
REMARK    7  A    between atoms: C_17  and  C_25
REMARK    8  A    between atoms: N_19  and  O_23
REMARK    9  A    between atoms: C_20  and  C_22
REMARK   10  A    between atoms: C_25  and  C_27
REMARK                            x       y       z     vdW  Elec       q    Type
REMARK                         _______ _______ _______ _____ _____    ______ ____
ROOT
ATOM      1  O   UNL     1     -38.426  24.856   4.140  0.00  0.00    -0.273 OA
ATOM      2  N   UNL     1     -37.900  23.762   2.161  0.00  0.00    -0.297 N 
ATOM      3  C   UNL     1     -37.598  24.453   3.326  0.00  0.00    +0.243 C 
ATOM      4  H   UNL     1     -37.159  23.483   1.577  0.00  0.00    +0.150 HD
ENDROOT
BRANCH   2   5
ATOM      5  C   UNL     1     -39.250  23.433   1.762  0.00  0.00    +0.149 C 
ATOM      6  C   UNL     1     -39.696  24.273   0.575  0.00  0.00    +0.031 C 
BRANCH   5   9
ATOM      7  O   UNL     1     -40.177  21.196   1.829  0.00  0.00    -0.273 OA
ATOM      8  N   UNL     1     -38.204  21.554   0.661  0.00  0.00    -0.295 N 
ATOM      9  C   UNL     1     -39.293  21.949   1.426  0.00  0.00    +0.241 C 
ATOM     10  H   UNL     1     -37.548  22.235   0.387  0.00  0.00    +0.150 HD
BRANCH   8  11
ATOM     11  C   UNL     1     -37.996  20.186   0.249  0.00  0.00    +0.175 C 
BRANCH  11  14
ATOM     12  O   UNL     1     -35.835  19.094   0.228  0.00  0.00    -0.273 OA
ATOM     13  N   UNL     1     -36.691  19.826   2.232  0.00  0.00    -0.327 N 
ATOM     14  C   UNL     1     -36.722  19.656   0.865  0.00  0.00    +0.239 C 
ATOM     15  H   UNL     1     -35.911  19.519   2.749  0.00  0.00    +0.145 HD
ATOM     16  H   UNL     1     -37.448  20.253   2.692  0.00  0.00    +0.145 HD
ENDBRANCH  11  14
ENDBRANCH   8  11
ENDBRANCH   5   9
ENDBRANCH   2   5
BRANCH   3  17
ATOM     17  C   UNL     1     -36.097  24.695   3.480  0.00  0.00    +0.179 C 
BRANCH  17  19
ATOM     18  O   UNL     1     -35.031  26.093   1.242  0.00  0.00    -0.271 OA
ATOM     19  N   UNL     1     -35.858  26.112   3.378  0.00  0.00    -0.164 N 
ATOM     20  C   UNL     1     -35.338  26.718   2.257  0.00  0.00    +0.265 C 
BRANCH  20  22
ATOM     21 CL   UNL     1     -33.626  28.614   3.157  0.00  0.00    -0.103 Cl
ATOM     22  C   UNL     1     -35.166  28.219   2.373  0.00  0.00    +0.182 C 
ENDBRANCH  20  22
BRANCH  19  23
ATOM     23  O   UNL     1     -36.212  26.807   4.543  0.00  0.00    -0.291 OA
ATOM     24  H   UNL     1     -36.393  26.174   5.256  0.00  0.00    +0.242 HD
ENDBRANCH  19  23
ENDBRANCH  17  19
BRANCH  17  25
ATOM     25  C   UNL     1     -35.527  24.078   4.780  0.00  0.00    +0.030 C 
ATOM     26  C   UNL     1     -34.056  24.479   4.955  0.00  0.00    +0.002 C 
BRANCH  25  27
ATOM     27  C   UNL     1     -35.709  22.545   4.834  0.00  0.00    +0.002 C 
ATOM     28  C   UNL     1     -35.232  21.922   6.139  0.00  0.00    +0.000 C 
ENDBRANCH  25  27
ENDBRANCH  17  25
ENDBRANCH   3  17
TORSDOF 10
ENDMDL
MODEL 5
REMARK VINA RESULT:      -5.1      3.897      6.990
REMARK  Name = 5486945
REMARK  10 active torsions:
REMARK  status: ('A' for Active; 'I' for Inactive)
REMARK    1  A    between atoms: N_2  and  C_5
REMARK    2  A    between atoms: C_3  and  C_17
REMARK    3  A    between atoms: C_5  and  C_9
REMARK    4  A    between atoms: N_8  and  C_11
REMARK    5  A    between atoms: C_11  and  C_14
REMARK    6  A    between atoms: C_17  and  N_19
REMARK    7  A    between atoms: C_17  and  C_25
REMARK    8  A    between atoms: N_19  and  O_23
REMARK    9  A    between atoms: C_20  and  C_22
REMARK   10  A    between atoms: C_25  and  C_27
REMARK                            x       y       z     vdW  Elec       q    Type
REMARK                         _______ _______ _______ _____ _____    ______ ____
ROOT
ATOM      1  O   UNL     1     -37.274  22.227   2.529  0.00  0.00    -0.273 OA
ATOM      2  N   UNL     1     -35.282  22.313   3.717  0.00  0.00    -0.297 N 
ATOM      3  C   UNL     1     -36.049  22.141   2.574  0.00  0.00    +0.243 C 
ATOM      4  H   UNL     1     -34.305  22.223   3.643  0.00  0.00    +0.150 HD
ENDROOT
BRANCH   2   5
ATOM      5  C   UNL     1     -35.847  22.616   5.012  0.00  0.00    +0.149 C 
ATOM      6  C   UNL     1     -35.061  21.948   6.130  0.00  0.00    +0.031 C 
BRANCH   5   9
ATOM      7  O   UNL     1     -36.833  24.828   4.930  0.00  0.00    -0.273 OA
ATOM      8  N   UNL     1     -34.622  24.613   5.600  0.00  0.00    -0.295 N 
ATOM      9  C   UNL     1     -35.853  24.130   5.180  0.00  0.00    +0.241 C 
ATOM     10  H   UNL     1     -33.897  23.971   5.775  0.00  0.00    +0.150 HD
BRANCH   8  11
ATOM     11  C   UNL     1     -34.361  26.021   5.791  0.00  0.00    +0.175 C 
BRANCH  11  14
ATOM     12  O   UNL     1     -32.920  26.560   3.922  0.00  0.00    -0.273 OA
ATOM     13  N   UNL     1     -35.053  27.416   3.964  0.00  0.00    -0.327 N 
ATOM     14  C   UNL     1     -34.016  26.661   4.467  0.00  0.00    +0.239 C 
ATOM     15  H   UNL     1     -34.949  27.885   3.104  0.00  0.00    +0.145 HD
ATOM     16  H   UNL     1     -35.898  27.487   4.464  0.00  0.00    +0.145 HD
ENDBRANCH  11  14
ENDBRANCH   8  11
ENDBRANCH   5   9
ENDBRANCH   2   5
BRANCH   3  17
ATOM     17  C   UNL     1     -35.196  21.792   1.355  0.00  0.00    +0.179 C 
BRANCH  17  19
ATOM     18  O   UNL     1     -32.774  20.655   0.386  0.00  0.00    -0.271 OA
ATOM     19  N   UNL     1     -34.773  20.421   1.480  0.00  0.00    -0.164 N 
ATOM     20  C   UNL     1     -33.582  19.943   0.984  0.00  0.00    +0.265 C 
BRANCH  20  22
ATOM     21 CL   UNL     1     -31.610  18.101   1.214  0.00  0.00    -0.103 Cl
ATOM     22  C   UNL     1     -33.344  18.466   1.225  0.00  0.00    +0.182 C 
ENDBRANCH  20  22
BRANCH  19  23
ATOM     23  O   UNL     1     -35.705  19.626   2.162  0.00  0.00    -0.291 OA
ATOM     24  H   UNL     1     -35.912  20.032   3.019  0.00  0.00    +0.242 HD
ENDBRANCH  19  23
ENDBRANCH  17  19
BRANCH  17  25
ATOM     25  C   UNL     1     -35.925  22.081   0.020  0.00  0.00    +0.030 C 
ATOM     26  C   UNL     1     -36.357  20.766  -0.642  0.00  0.00    +0.002 C 
BRANCH  25  27
ATOM     27  C   UNL     1     -35.078  22.947  -0.938  0.00  0.00    +0.002 C 
ATOM     28  C   UNL     1     -34.993  24.410  -0.520  0.00  0.00    +0.000 C 
ENDBRANCH  25  27
ENDBRANCH  17  25
ENDBRANCH   3  17
TORSDOF 10
ENDMDL
MODEL 6
REMARK VINA RESULT:      -5.1      4.455      6.393
REMARK  Name = 5486945
REMARK  10 active torsions:
REMARK  status: ('A' for Active; 'I' for Inactive)
REMARK    1  A    between atoms: N_2  and  C_5
REMARK    2  A    between atoms: C_3  and  C_17
REMARK    3  A    between atoms: C_5  and  C_9
REMARK    4  A    between atoms: N_8  and  C_11
REMARK    5  A    between atoms: C_11  and  C_14
REMARK    6  A    between atoms: C_17  and  N_19
REMARK    7  A    between atoms: C_17  and  C_25
REMARK    8  A    between atoms: N_19  and  O_23
REMARK    9  A    between atoms: C_20  and  C_22
REMARK   10  A    between atoms: C_25  and  C_27
REMARK                            x       y       z     vdW  Elec       q    Type
REMARK                         _______ _______ _______ _____ _____    ______ ____
ROOT
ATOM      1  O   UNL     1     -31.603  27.416   3.471  0.00  0.00    -0.273 OA
ATOM      2  N   UNL     1     -33.588  27.664   4.650  0.00  0.00    -0.297 N 
ATOM      3  C   UNL     1     -32.646  28.026   3.696  0.00  0.00    +0.243 C 
ATOM      4  H   UNL     1     -34.392  28.223   4.748  0.00  0.00    +0.150 HD
ENDROOT
BRANCH   2   5
ATOM      5  C   UNL     1     -33.445  26.508   5.505  0.00  0.00    +0.149 C 
ATOM      6  C   UNL     1     -33.002  26.907   6.905  0.00  0.00    +0.031 C 
BRANCH   5   9
ATOM      7  O   UNL     1     -35.861  26.369   5.636  0.00  0.00    -0.273 OA
ATOM      8  N   UNL     1     -34.633  24.405   5.509  0.00  0.00    -0.295 N 
ATOM      9  C   UNL     1     -34.785  25.784   5.544  0.00  0.00    +0.241 C 
ATOM     10  H   UNL     1     -33.726  24.031   5.434  0.00  0.00    +0.150 HD
BRANCH   8  11
ATOM     11  C   UNL     1     -35.753  23.496   5.577  0.00  0.00    +0.175 C 
BRANCH  11  14
ATOM     12  O   UNL     1     -35.504  21.748   3.920  0.00  0.00    -0.273 OA
ATOM     13  N   UNL     1     -34.794  21.350   6.070  0.00  0.00    -0.327 N 
ATOM     14  C   UNL     1     -35.336  22.133   5.074  0.00  0.00    +0.239 C 
ATOM     15  H   UNL     1     -34.484  20.438   5.866  0.00  0.00    +0.145 HD
ATOM     16  H   UNL     1     -34.717  21.702   6.986  0.00  0.00    +0.145 HD
ENDBRANCH  11  14
ENDBRANCH   8  11
ENDBRANCH   5   9
ENDBRANCH   2   5
BRANCH   3  17
ATOM     17  C   UNL     1     -33.033  29.308   2.962  0.00  0.00    +0.179 C 
BRANCH  17  19
ATOM     18  O   UNL     1     -33.923  28.267   0.467  0.00  0.00    -0.271 OA
ATOM     19  N   UNL     1     -34.396  29.177   2.515  0.00  0.00    -0.164 N 
ATOM     20  C   UNL     1     -34.750  28.661   1.290  0.00  0.00    +0.265 C 
BRANCH  20  22
ATOM     21 CL   UNL     1     -36.968  27.177   1.752  0.00  0.00    -0.103 Cl
ATOM     22  C   UNL     1     -36.242  28.622   1.027  0.00  0.00    +0.182 C 
ENDBRANCH  20  22
BRANCH  19  23
ATOM     23  O   UNL     1     -35.324  29.631   3.463  0.00  0.00    -0.291 OA
ATOM     24  H   UNL     1     -35.897  28.896   3.734  0.00  0.00    +0.242 HD
ENDBRANCH  19  23
ENDBRANCH  17  19
BRANCH  17  25
ATOM     25  C   UNL     1     -32.797  30.576   3.818  0.00  0.00    +0.030 C 
ATOM     26  C   UNL     1     -32.696  31.813   2.916  0.00  0.00    +0.002 C 
BRANCH  25  27
ATOM     27  C   UNL     1     -31.564  30.443   4.740  0.00  0.00    +0.002 C 
ATOM     28  C   UNL     1     -31.900  30.549   6.222  0.00  0.00    +0.000 C 
ENDBRANCH  25  27
ENDBRANCH  17  25
ENDBRANCH   3  17
TORSDOF 10
ENDMDL
MODEL 7
REMARK VINA RESULT:      -5.0      3.578      7.058
REMARK  Name = 5486945
REMARK  10 active torsions:
REMARK  status: ('A' for Active; 'I' for Inactive)
REMARK    1  A    between atoms: N_2  and  C_5
REMARK    2  A    between atoms: C_3  and  C_17
REMARK    3  A    between atoms: C_5  and  C_9
REMARK    4  A    between atoms: N_8  and  C_11
REMARK    5  A    between atoms: C_11  and  C_14
REMARK    6  A    between atoms: C_17  and  N_19
REMARK    7  A    between atoms: C_17  and  C_25
REMARK    8  A    between atoms: N_19  and  O_23
REMARK    9  A    between atoms: C_20  and  C_22
REMARK   10  A    between atoms: C_25  and  C_27
REMARK                            x       y       z     vdW  Elec       q    Type
REMARK                         _______ _______ _______ _____ _____    ______ ____
ROOT
ATOM      1  O   UNL     1     -35.768  25.759   0.841  0.00  0.00    -0.273 OA
ATOM      2  N   UNL     1     -36.203  27.377   2.448  0.00  0.00    -0.297 N 
ATOM      3  C   UNL     1     -36.332  26.122   1.871  0.00  0.00    +0.243 C 
ATOM      4  H   UNL     1     -36.699  27.565   3.277  0.00  0.00    +0.150 HD
ENDROOT
BRANCH   2   5
ATOM      5  C   UNL     1     -35.375  28.424   1.892  0.00  0.00    +0.149 C 
ATOM      6  C   UNL     1     -36.212  29.615   1.450  0.00  0.00    +0.031 C 
BRANCH   5   9
ATOM      7  O   UNL     1     -34.338  29.951   3.461  0.00  0.00    -0.273 OA
ATOM      8  N   UNL     1     -33.453  27.820   3.224  0.00  0.00    -0.295 N 
ATOM      9  C   UNL     1     -34.360  28.834   2.950  0.00  0.00    +0.241 C 
ATOM     10  H   UNL     1     -33.554  26.957   2.761  0.00  0.00    +0.150 HD
BRANCH   8  11
ATOM     11  C   UNL     1     -32.366  27.978   4.162  0.00  0.00    +0.175 C 
BRANCH  11  14
ATOM     12  O   UNL     1     -32.365  28.124   6.579  0.00  0.00    -0.273 OA
ATOM     13  N   UNL     1     -33.834  26.683   5.553  0.00  0.00    -0.327 N 
ATOM     14  C   UNL     1     -32.841  27.639   5.556  0.00  0.00    +0.239 C 
ATOM     15  H   UNL     1     -34.225  26.377   6.404  0.00  0.00    +0.145 HD
ATOM     16  H   UNL     1     -34.151  26.305   4.702  0.00  0.00    +0.145 HD
ENDBRANCH  11  14
ENDBRANCH   8  11
ENDBRANCH   5   9
ENDBRANCH   2   5
BRANCH   3  17
ATOM     17  C   UNL     1     -37.297  25.227   2.648  0.00  0.00    +0.179 C 
BRANCH  17  19
ATOM     18  O   UNL     1     -36.011  22.828   3.475  0.00  0.00    -0.271 OA
ATOM     19  N   UNL     1     -36.718  24.956   3.939  0.00  0.00    -0.164 N 
ATOM     20  C   UNL     1     -36.110  23.766   4.266  0.00  0.00    +0.265 C 
BRANCH  20  22
ATOM     21 CL   UNL     1     -35.569  22.025   6.269  0.00  0.00    -0.103 Cl
ATOM     22  C   UNL     1     -35.576  23.697   5.682  0.00  0.00    +0.182 C 
ENDBRANCH  20  22
BRANCH  19  23
ATOM     23  O   UNL     1     -36.841  26.035   4.826  0.00  0.00    -0.291 OA
ATOM     24  H   UNL     1     -37.056  26.840   4.329  0.00  0.00    +0.242 HD
ENDBRANCH  19  23
ENDBRANCH  17  19
BRANCH  17  25
ATOM     25  C   UNL     1     -38.720  25.829   2.738  0.00  0.00    +0.030 C 
ATOM     26  C   UNL     1     -39.681  24.820   3.381  0.00  0.00    +0.002 C 
BRANCH  25  27
ATOM     27  C   UNL     1     -39.242  26.318   1.369  0.00  0.00    +0.002 C 
ATOM     28  C   UNL     1     -40.740  26.591   1.352  0.00  0.00    +0.000 C 
ENDBRANCH  25  27
ENDBRANCH  17  25
ENDBRANCH   3  17
TORSDOF 10
ENDMDL
MODEL 8
REMARK VINA RESULT:      -5.0      2.243      3.512
REMARK  Name = 5486945
REMARK  10 active torsions:
REMARK  status: ('A' for Active; 'I' for Inactive)
REMARK    1  A    between atoms: N_2  and  C_5
REMARK    2  A    between atoms: C_3  and  C_17
REMARK    3  A    between atoms: C_5  and  C_9
REMARK    4  A    between atoms: N_8  and  C_11
REMARK    5  A    between atoms: C_11  and  C_14
REMARK    6  A    between atoms: C_17  and  N_19
REMARK    7  A    between atoms: C_17  and  C_25
REMARK    8  A    between atoms: N_19  and  O_23
REMARK    9  A    between atoms: C_20  and  C_22
REMARK   10  A    between atoms: C_25  and  C_27
REMARK                            x       y       z     vdW  Elec       q    Type
REMARK                         _______ _______ _______ _____ _____    ______ ____
ROOT
ATOM      1  O   UNL     1     -35.378  23.302   1.525  0.00  0.00    -0.273 OA
ATOM      2  N   UNL     1     -36.987  22.241   2.818  0.00  0.00    -0.297 N 
ATOM      3  C   UNL     1     -36.221  23.327   2.418  0.00  0.00    +0.243 C 
ATOM      4  H   UNL     1     -37.636  22.370   3.547  0.00  0.00    +0.150 HD
ENDROOT
BRANCH   2   5
ATOM      5  C   UNL     1     -36.877  20.930   2.219  0.00  0.00    +0.149 C 
ATOM      6  C   UNL     1     -37.296  20.954   0.757  0.00  0.00    +0.031 C 
BRANCH   5   9
ATOM      7  O   UNL     1     -34.891  20.297   3.454  0.00  0.00    -0.273 OA
ATOM      8  N   UNL     1     -34.811  20.304   1.135  0.00  0.00    -0.295 N 
ATOM      9  C   UNL     1     -35.434  20.465   2.365  0.00  0.00    +0.241 C 
ATOM     10  H   UNL     1     -35.333  20.463   0.316  0.00  0.00    +0.150 HD
BRANCH   8  11
ATOM     11  C   UNL     1     -33.428  19.910   1.008  0.00  0.00    +0.175 C 
BRANCH  11  14
ATOM     12  O   UNL     1     -32.362  17.846   1.692  0.00  0.00    -0.273 OA
ATOM     13  N   UNL     1     -34.358  17.742   0.555  0.00  0.00    -0.327 N 
ATOM     14  C   UNL     1     -33.309  18.410   1.150  0.00  0.00    +0.239 C 
ATOM     15  H   UNL     1     -34.393  16.759   0.580  0.00  0.00    +0.145 HD
ATOM     16  H   UNL     1     -35.071  18.249   0.105  0.00  0.00    +0.145 HD
ENDBRANCH  11  14
ENDBRANCH   8  11
ENDBRANCH   5   9
ENDBRANCH   2   5
BRANCH   3  17
ATOM     17  C   UNL     1     -36.516  24.577   3.246  0.00  0.00    +0.179 C 
BRANCH  17  19
ATOM     18  O   UNL     1     -37.394  26.495   1.336  0.00  0.00    -0.271 OA
ATOM     19  N   UNL     1     -37.875  24.979   2.984  0.00  0.00    -0.164 N 
ATOM     20  C   UNL     1     -38.223  25.917   2.040  0.00  0.00    +0.265 C 
BRANCH  20  22
ATOM     21 CL   UNL     1     -40.071  27.161   0.500  0.00  0.00    -0.103 Cl
ATOM     22  C   UNL     1     -39.710  26.189   1.938  0.00  0.00    +0.182 C 
ENDBRANCH  20  22
BRANCH  19  23
ATOM     23  O   UNL     1     -38.804  24.311   3.795  0.00  0.00    -0.291 OA
ATOM     24  H   UNL     1     -38.812  23.367   3.570  0.00  0.00    +0.242 HD
ENDBRANCH  19  23
ENDBRANCH  17  19
BRANCH  17  25
ATOM     25  C   UNL     1     -36.226  24.372   4.753  0.00  0.00    +0.030 C 
ATOM     26  C   UNL     1     -36.056  25.729   5.448  0.00  0.00    +0.002 C 
BRANCH  25  27
ATOM     27  C   UNL     1     -35.012  23.450   5.000  0.00  0.00    +0.002 C 
ATOM     28  C   UNL     1     -35.218  22.467   6.145  0.00  0.00    +0.000 C 
ENDBRANCH  25  27
ENDBRANCH  17  25
ENDBRANCH   3  17
TORSDOF 10
ENDMDL
MODEL 9
REMARK VINA RESULT:      -5.0      2.659      4.471
REMARK  Name = 5486945
REMARK  10 active torsions:
REMARK  status: ('A' for Active; 'I' for Inactive)
REMARK    1  A    between atoms: N_2  and  C_5
REMARK    2  A    between atoms: C_3  and  C_17
REMARK    3  A    between atoms: C_5  and  C_9
REMARK    4  A    between atoms: N_8  and  C_11
REMARK    5  A    between atoms: C_11  and  C_14
REMARK    6  A    between atoms: C_17  and  N_19
REMARK    7  A    between atoms: C_17  and  C_25
REMARK    8  A    between atoms: N_19  and  O_23
REMARK    9  A    between atoms: C_20  and  C_22
REMARK   10  A    between atoms: C_25  and  C_27
REMARK                            x       y       z     vdW  Elec       q    Type
REMARK                         _______ _______ _______ _____ _____    ______ ____
ROOT
ATOM      1  O   UNL     1     -36.749  24.767   2.254  0.00  0.00    -0.273 OA
ATOM      2  N   UNL     1     -38.474  23.667   3.349  0.00  0.00    -0.297 N 
ATOM      3  C   UNL     1     -37.146  23.885   3.011  0.00  0.00    +0.243 C 
ATOM      4  H   UNL     1     -38.684  22.930   3.967  0.00  0.00    +0.150 HD
ENDROOT
BRANCH   2   5
ATOM      5  C   UNL     1     -39.564  24.467   2.838  0.00  0.00    +0.149 C 
ATOM      6  C   UNL     1     -39.219  25.948   2.858  0.00  0.00    +0.031 C 
BRANCH   5   9
ATOM      7  O   UNL     1     -39.913  24.759   0.458  0.00  0.00    -0.273 OA
ATOM      8  N   UNL     1     -40.131  22.635   1.369  0.00  0.00    -0.295 N 
ATOM      9  C   UNL     1     -39.869  23.997   1.422  0.00  0.00    +0.241 C 
ATOM     10  H   UNL     1     -40.069  22.110   2.199  0.00  0.00    +0.150 HD
BRANCH   8  11
ATOM     11  C   UNL     1     -40.488  21.958   0.145  0.00  0.00    +0.175 C 
BRANCH  11  14
ATOM     12  O   UNL     1     -39.945  19.791  -0.788  0.00  0.00    -0.273 OA
ATOM     13  N   UNL     1     -38.654  20.618   0.925  0.00  0.00    -0.327 N 
ATOM     14  C   UNL     1     -39.684  20.686   0.012  0.00  0.00    +0.239 C 
ATOM     15  H   UNL     1     -38.058  19.835   0.938  0.00  0.00    +0.145 HD
ATOM     16  H   UNL     1     -38.515  21.353   1.565  0.00  0.00    +0.145 HD
ENDBRANCH  11  14
ENDBRANCH   8  11
ENDBRANCH   5   9
ENDBRANCH   2   5
BRANCH   3  17
ATOM     17  C   UNL     1     -36.210  22.869   3.666  0.00  0.00    +0.179 C 
BRANCH  17  19
ATOM     18  O   UNL     1     -36.135  20.170   2.769  0.00  0.00    -0.271 OA
ATOM     19  N   UNL     1     -35.357  22.320   2.643  0.00  0.00    -0.164 N 
ATOM     20  C   UNL     1     -35.379  20.998   2.262  0.00  0.00    +0.265 C 
BRANCH  20  22
ATOM     21 CL   UNL     1     -33.566  19.117   1.549  0.00  0.00    -0.103 Cl
ATOM     22  C   UNL     1     -34.391  20.639   1.171  0.00  0.00    +0.182 C 
ENDBRANCH  20  22
BRANCH  19  23
ATOM     23  O   UNL     1     -34.503  23.277   2.078  0.00  0.00    -0.291 OA
ATOM     24  H   UNL     1     -34.199  23.888   2.768  0.00  0.00    +0.242 HD
ENDBRANCH  19  23
ENDBRANCH  17  19
BRANCH  17  25
ATOM     25  C   UNL     1     -35.421  23.471   4.854  0.00  0.00    +0.030 C 
ATOM     26  C   UNL     1     -35.319  22.448   5.993  0.00  0.00    +0.002 C 
BRANCH  25  27
ATOM     27  C   UNL     1     -36.019  24.808   5.342  0.00  0.00    +0.002 C 
ATOM     28  C   UNL     1     -34.968  25.870   5.644  0.00  0.00    +0.000 C 
ENDBRANCH  25  27
ENDBRANCH  17  25
ENDBRANCH   3  17
TORSDOF 10
ENDMDL
