MODEL 1
REMARK VINA RESULT:      -6.8      0.000      0.000
REMARK  Name = 54758482
REMARK  7 active torsions:
REMARK  status: ('A' for Active; 'I' for Inactive)
REMARK    1  A    between atoms: C_3  and  C_27
REMARK    2  A    between atoms: C_4  and  O_31
REMARK    3  A    between atoms: C_11  and  O_17
REMARK    4  A    between atoms: C_13  and  C_16
REMARK    5  A    between atoms: O_17  and  C_18
REMARK    6  A    between atoms: C_18  and  C_20
REMARK    7  A    between atoms: C_20  and  N_21
REMARK                            x       y       z     vdW  Elec       q    Type
REMARK                         _______ _______ _______ _____ _____    ______ ____
ROOT
ATOM      1  N   UNL     1     -33.352  27.029   5.758  0.00  0.00    -0.275 N 
ATOM      2  N   UNL     1     -35.055  26.903   4.110  0.00  0.00    -0.229 NA
ATOM      3  C   UNL     1     -36.512  24.973   4.057  0.00  0.00    +0.056 C 
ATOM      4  C   UNL     1     -35.842  24.429   5.146  0.00  0.00    +0.143 C 
ATOM      5  C   UNL     1     -34.428  26.342   5.168  0.00  0.00    +0.137 C 
ATOM      6  C   UNL     1     -34.780  25.120   5.719  0.00  0.00    +0.071 C 
ATOM      7  C   UNL     1     -36.083  26.202   3.580  0.00  0.00    +0.103 C 
ATOM      8  H   UNL     1     -33.249  26.853   6.721  0.00  0.00    +0.156 HD
ATOM      9  N   UNL     1     -31.450  28.441   6.054  0.00  0.00    -0.353 NA
ATOM     10  N   UNL     1     -31.563  29.081   3.326  0.00  0.00    -0.246 NA
ATOM     11  C   UNL     1     -30.568  29.284   5.482  0.00  0.00    +0.306 C 
ATOM     12  C   UNL     1     -32.389  27.923   5.239  0.00  0.00    +0.190 C 
ATOM     13  C   UNL     1     -30.624  29.599   4.143  0.00  0.00    +0.211 C 
ATOM     14  C   UNL     1     -32.444  28.237   3.898  0.00  0.00    +0.201 C 
ENDROOT
BRANCH   3  17
ATOM     15  N   UNL     1     -38.778  22.789   2.368  0.00  0.00    -0.208 N 
ATOM     16  N   UNL     1     -39.676  23.759   2.611  0.00  0.00    -0.176 NA
ATOM     17  C   UNL     1     -37.613  24.301   3.430  0.00  0.00    +0.041 C 
ATOM     18  C   UNL     1     -37.528  23.064   2.838  0.00  0.00    +0.086 C 
ATOM     19  C   UNL     1     -38.958  24.680   3.260  0.00  0.00    +0.119 C 
ATOM     20  C   UNL     1     -39.185  21.595   1.667  0.00  0.00    +0.140 C 
ENDBRANCH   3  17
BRANCH  13  22
ATOM     21  N   UNL     1     -28.956  31.211   2.998  0.00  0.00    -0.189 NA
ATOM     22  C   UNL     1     -29.704  30.487   3.512  0.00  0.00    +0.125 C 
ENDBRANCH  13  22
BRANCH   4  23
ATOM     23  O   UNL     1     -36.204  23.224   5.671  0.00  0.00    -0.471 OA
ATOM     24  C   UNL     1     -35.152  22.342   6.054  0.00  0.00    +0.252 C 
ENDBRANCH   4  23
BRANCH  11  25
ATOM     25  O   UNL     1     -29.608  29.820   6.296  0.00  0.00    -0.456 OA
BRANCH  25  26
ATOM     26  C   UNL     1     -28.787  28.895   7.010  0.00  0.00    +0.148 C 
ATOM     27  C   UNL     1     -28.246  29.612   8.240  0.00  0.00    +0.045 C 
BRANCH  26  28
ATOM     28  C   UNL     1     -27.685  28.393   6.074  0.00  0.00    -0.033 C 
BRANCH  28  29
ATOM     29  N   UNL     1     -27.710  26.945   5.923  0.00  0.00    +0.387 N 
ATOM     30  C   UNL     1     -27.140  26.292   7.103  0.00  0.00    -0.101 C 
ATOM     31  C   UNL     1     -26.986  26.536   4.718  0.00  0.00    -0.101 C 
ATOM     32  H   UNL     1     -28.685  26.654   5.830  0.00  0.00    -0.080 HD
ENDBRANCH  28  29
ENDBRANCH  26  28
ENDBRANCH  25  26
ENDBRANCH  11  25
TORSDOF 7
ENDMDL
MODEL 2
REMARK VINA RESULT:      -6.1      6.730      9.852
REMARK  Name = 54758482
REMARK  7 active torsions:
REMARK  status: ('A' for Active; 'I' for Inactive)
REMARK    1  A    between atoms: C_3  and  C_27
REMARK    2  A    between atoms: C_4  and  O_31
REMARK    3  A    between atoms: C_11  and  O_17
REMARK    4  A    between atoms: C_13  and  C_16
REMARK    5  A    between atoms: O_17  and  C_18
REMARK    6  A    between atoms: C_18  and  C_20
REMARK    7  A    between atoms: C_20  and  N_21
REMARK                            x       y       z     vdW  Elec       q    Type
REMARK                         _______ _______ _______ _____ _____    ______ ____
ROOT
ATOM      1  N   UNL     1     -34.259  19.461   2.089  0.00  0.00    -0.275 N 
ATOM      2  N   UNL     1     -34.449  18.489  -0.068  0.00  0.00    -0.229 NA
ATOM      3  C   UNL     1     -32.684  17.048  -0.877  0.00  0.00    +0.056 C 
ATOM      4  C   UNL     1     -31.982  17.230   0.308  0.00  0.00    +0.143 C 
ATOM      5  C   UNL     1     -33.737  18.643   1.071  0.00  0.00    +0.137 C 
ATOM      6  C   UNL     1     -32.511  18.041   1.306  0.00  0.00    +0.071 C 
ATOM      7  C   UNL     1     -33.902  17.694  -1.015  0.00  0.00    +0.103 C 
ATOM      8  H   UNL     1     -33.989  19.187   2.995  0.00  0.00    +0.156 HD
ATOM      9  N   UNL     1     -35.445  21.195   3.223  0.00  0.00    -0.353 NA
ATOM     10  N   UNL     1     -36.334  22.143   0.738  0.00  0.00    -0.246 NA
ATOM     11  C   UNL     1     -36.246  22.273   3.116  0.00  0.00    +0.306 C 
ATOM     12  C   UNL     1     -35.097  20.598   2.066  0.00  0.00    +0.190 C 
ATOM     13  C   UNL     1     -36.682  22.739   1.896  0.00  0.00    +0.211 C 
ATOM     14  C   UNL     1     -35.533  21.064   0.845  0.00  0.00    +0.201 C 
ENDROOT
BRANCH   3  17
ATOM     15  N   UNL     1     -31.820  14.482  -3.209  0.00  0.00    -0.208 N 
ATOM     16  N   UNL     1     -31.086  15.449  -3.788  0.00  0.00    -0.176 NA
ATOM     17  C   UNL     1     -32.181  16.222  -1.937  0.00  0.00    +0.041 C 
ATOM     18  C   UNL     1     -32.494  14.894  -2.097  0.00  0.00    +0.086 C 
ATOM     19  C   UNL     1     -31.312  16.508  -3.007  0.00  0.00    +0.119 C 
ATOM     20  C   UNL     1     -31.836  13.156  -3.778  0.00  0.00    +0.140 C 
ENDBRANCH   3  17
BRANCH  13  22
ATOM     21  N   UNL     1     -38.217  24.804   1.637  0.00  0.00    -0.189 NA
ATOM     22  C   UNL     1     -37.529  23.878   1.754  0.00  0.00    +0.125 C 
ENDBRANCH  13  22
BRANCH   4  23
ATOM     23  O   UNL     1     -30.776  16.629   0.518  0.00  0.00    -0.471 OA
ATOM     24  C   UNL     1     -29.639  17.481   0.635  0.00  0.00    +0.252 C 
ENDBRANCH   4  23
BRANCH  11  25
ATOM     25  O   UNL     1     -36.610  22.891   4.281  0.00  0.00    -0.456 OA
BRANCH  25  26
ATOM     26  C   UNL     1     -35.550  23.394   5.095  0.00  0.00    +0.148 C 
ATOM     27  C   UNL     1     -35.456  22.507   6.330  0.00  0.00    +0.045 C 
BRANCH  26  28
ATOM     28  C   UNL     1     -35.842  24.859   5.430  0.00  0.00    -0.033 C 
BRANCH  28  29
ATOM     29  N   UNL     1     -34.801  25.752   4.938  0.00  0.00    +0.387 N 
ATOM     30  C   UNL     1     -33.977  25.080   3.931  0.00  0.00    -0.101 C 
ATOM     31  C   UNL     1     -33.964  26.228   6.041  0.00  0.00    -0.101 C 
ATOM     32  H   UNL     1     -35.254  26.557   4.503  0.00  0.00    -0.080 HD
ENDBRANCH  28  29
ENDBRANCH  26  28
ENDBRANCH  25  26
ENDBRANCH  11  25
TORSDOF 7
ENDMDL
MODEL 3
REMARK VINA RESULT:      -6.0      2.857      9.856
REMARK  Name = 54758482
REMARK  7 active torsions:
REMARK  status: ('A' for Active; 'I' for Inactive)
REMARK    1  A    between atoms: C_3  and  C_27
REMARK    2  A    between atoms: C_4  and  O_31
REMARK    3  A    between atoms: C_11  and  O_17
REMARK    4  A    between atoms: C_13  and  C_16
REMARK    5  A    between atoms: O_17  and  C_18
REMARK    6  A    between atoms: C_18  and  C_20
REMARK    7  A    between atoms: C_20  and  N_21
REMARK                            x       y       z     vdW  Elec       q    Type
REMARK                         _______ _______ _______ _____ _____    ______ ____
ROOT
ATOM      1  N   UNL     1     -34.861  28.107   3.379  0.00  0.00    -0.275 N 
ATOM      2  N   UNL     1     -32.941  28.953   4.489  0.00  0.00    -0.229 NA
ATOM      3  C   UNL     1     -31.599  30.649   3.409  0.00  0.00    +0.056 C 
ATOM      4  C   UNL     1     -32.451  30.634   2.311  0.00  0.00    +0.143 C 
ATOM      5  C   UNL     1     -33.747  28.966   3.404  0.00  0.00    +0.137 C 
ATOM      6  C   UNL     1     -33.548  29.780   2.300  0.00  0.00    +0.071 C 
ATOM      7  C   UNL     1     -31.885  29.797   4.463  0.00  0.00    +0.103 C 
ATOM      8  H   UNL     1     -35.619  28.456   2.857  0.00  0.00    +0.156 HD
ATOM      9  N   UNL     1     -36.292  26.235   3.761  0.00  0.00    -0.353 NA
ATOM     10  N   UNL     1     -34.259  25.058   5.293  0.00  0.00    -0.246 NA
ATOM     11  C   UNL     1     -36.446  25.030   4.345  0.00  0.00    +0.306 C 
ATOM     12  C   UNL     1     -35.105  26.841   3.957  0.00  0.00    +0.190 C 
ATOM     13  C   UNL     1     -35.447  24.452   5.098  0.00  0.00    +0.211 C 
ATOM     14  C   UNL     1     -34.106  26.263   4.709  0.00  0.00    +0.201 C 
ENDROOT
BRANCH   3  17
ATOM     15  N   UNL     1     -28.379  32.196   3.475  0.00  0.00    -0.208 N 
ATOM     16  N   UNL     1     -29.081  33.331   3.635  0.00  0.00    -0.176 NA
ATOM     17  C   UNL     1     -30.454  31.512   3.469  0.00  0.00    +0.041 C 
ATOM     18  C   UNL     1     -29.154  31.078   3.370  0.00  0.00    +0.086 C 
ATOM     19  C   UNL     1     -30.348  32.906   3.630  0.00  0.00    +0.119 C 
ATOM     20  C   UNL     1     -26.938  32.245   3.428  0.00  0.00    +0.140 C 
ENDBRANCH   3  17
BRANCH  13  22
ATOM     21  N   UNL     1     -35.692  22.143   6.236  0.00  0.00    -0.189 NA
ATOM     22  C   UNL     1     -35.583  23.179   5.726  0.00  0.00    +0.125 C 
ENDBRANCH  13  22
BRANCH   4  23
ATOM     23  O   UNL     1     -32.235  31.444   1.235  0.00  0.00    -0.471 OA
ATOM     24  C   UNL     1     -33.167  32.501   1.024  0.00  0.00    +0.252 C 
ENDBRANCH   4  23
BRANCH  11  25
ATOM     25  O   UNL     1     -37.645  24.400   4.157  0.00  0.00    -0.456 OA
BRANCH  25  26
ATOM     26  C   UNL     1     -38.315  24.657   2.922  0.00  0.00    +0.148 C 
ATOM     27  C   UNL     1     -39.808  24.731   3.214  0.00  0.00    +0.045 C 
BRANCH  26  28
ATOM     28  C   UNL     1     -37.951  23.551   1.929  0.00  0.00    -0.033 C 
BRANCH  28  29
ATOM     29  N   UNL     1     -37.993  22.229   2.539  0.00  0.00    +0.387 N 
ATOM     30  C   UNL     1     -36.686  21.575   2.446  0.00  0.00    -0.101 C 
ATOM     31  C   UNL     1     -39.021  21.399   1.908  0.00  0.00    -0.101 C 
ATOM     32  H   UNL     1     -38.230  22.344   3.526  0.00  0.00    -0.080 HD
ENDBRANCH  28  29
ENDBRANCH  26  28
ENDBRANCH  25  26
ENDBRANCH  11  25
TORSDOF 7
ENDMDL
MODEL 4
REMARK VINA RESULT:      -5.9      6.247     10.735
REMARK  Name = 54758482
REMARK  7 active torsions:
REMARK  status: ('A' for Active; 'I' for Inactive)
REMARK    1  A    between atoms: C_3  and  C_27
REMARK    2  A    between atoms: C_4  and  O_31
REMARK    3  A    between atoms: C_11  and  O_17
REMARK    4  A    between atoms: C_13  and  C_16
REMARK    5  A    between atoms: O_17  and  C_18
REMARK    6  A    between atoms: C_18  and  C_20
REMARK    7  A    between atoms: C_20  and  N_21
REMARK                            x       y       z     vdW  Elec       q    Type
REMARK                         _______ _______ _______ _____ _____    ______ ____
ROOT
ATOM      1  N   UNL     1     -39.743  25.749   3.675  0.00  0.00    -0.275 N 
ATOM      2  N   UNL     1     -39.178  23.733   2.559  0.00  0.00    -0.229 NA
ATOM      3  C   UNL     1     -36.908  22.906   2.683  0.00  0.00    +0.056 C 
ATOM      4  C   UNL     1     -36.549  23.991   3.473  0.00  0.00    +0.143 C 
ATOM      5  C   UNL     1     -38.791  24.774   3.329  0.00  0.00    +0.137 C 
ATOM      6  C   UNL     1     -37.502  24.947   3.808  0.00  0.00    +0.071 C 
ATOM      7  C   UNL     1     -38.224  22.823   2.254  0.00  0.00    +0.103 C 
ATOM      8  H   UNL     1     -39.574  26.178   4.545  0.00  0.00    +0.156 HD
ATOM      9  N   UNL     1     -41.640  27.196   3.599  0.00  0.00    -0.353 NA
ATOM     10  N   UNL     1     -42.309  26.106   1.103  0.00  0.00    -0.246 NA
ATOM     11  C   UNL     1     -42.724  27.604   2.909  0.00  0.00    +0.306 C 
ATOM     12  C   UNL     1     -40.897  26.233   3.019  0.00  0.00    +0.190 C 
ATOM     13  C   UNL     1     -43.052  27.068   1.684  0.00  0.00    +0.211 C 
ATOM     14  C   UNL     1     -41.225  25.698   1.793  0.00  0.00    +0.201 C 
ENDROOT
BRANCH   3  17
ATOM     15  N   UNL     1     -34.377  20.839   1.240  0.00  0.00    -0.208 N 
ATOM     16  N   UNL     1     -34.720  19.978   2.213  0.00  0.00    -0.176 NA
ATOM     17  C   UNL     1     -35.963  21.893   2.309  0.00  0.00    +0.041 C 
ATOM     18  C   UNL     1     -35.091  22.001   1.253  0.00  0.00    +0.086 C 
ATOM     19  C   UNL     1     -35.689  20.628   2.863  0.00  0.00    +0.119 C 
ATOM     20  C   UNL     1     -33.334  20.487   0.306  0.00  0.00    +0.140 C 
ENDBRANCH   3  17
BRANCH  13  22
ATOM     21  N   UNL     1     -45.119  27.818   0.322  0.00  0.00    -0.189 NA
ATOM     22  C   UNL     1     -44.191  27.482   0.933  0.00  0.00    +0.125 C 
ENDBRANCH  13  22
BRANCH   4  23
ATOM     23  O   UNL     1     -35.274  24.142   3.932  0.00  0.00    -0.471 OA
ATOM     24  C   UNL     1     -35.058  23.926   5.325  0.00  0.00    +0.252 C 
ENDBRANCH   4  23
BRANCH  11  25
ATOM     25  O   UNL     1     -43.490  28.581   3.483  0.00  0.00    -0.456 OA
BRANCH  25  26
ATOM     26  C   UNL     1     -44.045  28.287   4.766  0.00  0.00    +0.148 C 
ATOM     27  C   UNL     1     -44.984  27.100   4.602  0.00  0.00    +0.045 C 
BRANCH  26  28
ATOM     28  C   UNL     1     -44.747  29.540   5.295  0.00  0.00    -0.033 C 
BRANCH  28  29
ATOM     29  N   UNL     1     -43.830  30.424   6.003  0.00  0.00    +0.387 N 
ATOM     30  C   UNL     1     -43.899  30.191   7.447  0.00  0.00    -0.101 C 
ATOM     31  C   UNL     1     -44.126  31.826   5.701  0.00  0.00    -0.101 C 
ATOM     32  H   UNL     1     -42.882  30.217   5.685  0.00  0.00    -0.080 HD
ENDBRANCH  28  29
ENDBRANCH  26  28
ENDBRANCH  25  26
ENDBRANCH  11  25
TORSDOF 7
ENDMDL
MODEL 5
REMARK VINA RESULT:      -5.7      3.462      9.730
REMARK  Name = 54758482
REMARK  7 active torsions:
REMARK  status: ('A' for Active; 'I' for Inactive)
REMARK    1  A    between atoms: C_3  and  C_27
REMARK    2  A    between atoms: C_4  and  O_31
REMARK    3  A    between atoms: C_11  and  O_17
REMARK    4  A    between atoms: C_13  and  C_16
REMARK    5  A    between atoms: O_17  and  C_18
REMARK    6  A    between atoms: C_18  and  C_20
REMARK    7  A    between atoms: C_20  and  N_21
REMARK                            x       y       z     vdW  Elec       q    Type
REMARK                         _______ _______ _______ _____ _____    ______ ____
ROOT
ATOM      1  N   UNL     1     -35.345  27.953   2.930  0.00  0.00    -0.275 N 
ATOM      2  N   UNL     1     -33.518  29.075   3.949  0.00  0.00    -0.229 NA
ATOM      3  C   UNL     1     -32.332  30.777   2.706  0.00  0.00    +0.056 C 
ATOM      4  C   UNL     1     -33.172  30.578   1.618  0.00  0.00    +0.143 C 
ATOM      5  C   UNL     1     -34.315  28.910   2.870  0.00  0.00    +0.137 C 
ATOM      6  C   UNL     1     -34.186  29.629   1.692  0.00  0.00    +0.071 C 
ATOM      7  C   UNL     1     -32.544  30.007   3.839  0.00  0.00    +0.103 C 
ATOM      8  H   UNL     1     -36.129  28.179   2.379  0.00  0.00    +0.156 HD
ATOM      9  N   UNL     1     -36.599  26.002   3.495  0.00  0.00    -0.353 NA
ATOM     10  N   UNL     1     -34.476  25.170   5.127  0.00  0.00    -0.246 NA
ATOM     11  C   UNL     1     -36.644  24.850   4.192  0.00  0.00    +0.306 C 
ATOM     12  C   UNL     1     -35.474  26.731   3.628  0.00  0.00    +0.190 C 
ATOM     13  C   UNL     1     -35.602  24.442   4.994  0.00  0.00    +0.211 C 
ATOM     14  C   UNL     1     -34.431  26.323   4.429  0.00  0.00    +0.201 C 
ENDROOT
BRANCH   3  17
ATOM     15  N   UNL     1     -30.186  33.628   2.889  0.00  0.00    -0.208 N 
ATOM     16  N   UNL     1     -29.253  32.782   2.416  0.00  0.00    -0.176 NA
ATOM     17  C   UNL     1     -31.272  31.744   2.680  0.00  0.00    +0.041 C 
ATOM     18  C   UNL     1     -31.411  33.055   3.065  0.00  0.00    +0.086 C 
ATOM     19  C   UNL     1     -29.923  31.634   2.291  0.00  0.00    +0.119 C 
ATOM     20  C   UNL     1     -29.836  35.001   3.160  0.00  0.00    +0.140 C 
ENDBRANCH   3  17
BRANCH  13  22
ATOM     21  N   UNL     1     -35.641  22.240   6.351  0.00  0.00    -0.189 NA
ATOM     22  C   UNL     1     -35.623  23.228   5.742  0.00  0.00    +0.125 C 
ENDBRANCH  13  22
BRANCH   4  23
ATOM     23  O   UNL     1     -33.025  31.297   0.468  0.00  0.00    -0.471 OA
ATOM     24  C   UNL     1     -34.052  31.166  -0.512  0.00  0.00    +0.252 C 
ENDBRANCH   4  23
BRANCH  11  25
ATOM     25  O   UNL     1     -37.779  24.097   4.069  0.00  0.00    -0.456 OA
BRANCH  25  26
ATOM     26  C   UNL     1     -38.184  23.764   2.741  0.00  0.00    +0.148 C 
ATOM     27  C   UNL     1     -39.669  24.078   2.619  0.00  0.00    +0.045 C 
BRANCH  26  28
ATOM     28  C   UNL     1     -37.859  22.290   2.484  0.00  0.00    -0.033 C 
BRANCH  28  29
ATOM     29  N   UNL     1     -36.539  22.115   1.893  0.00  0.00    +0.387 N 
ATOM     30  C   UNL     1     -36.651  21.704   0.492  0.00  0.00    -0.101 C 
ATOM     31  C   UNL     1     -35.760  21.132   2.649  0.00  0.00    -0.101 C 
ATOM     32  H   UNL     1     -36.054  23.012   1.931  0.00  0.00    -0.080 HD
ENDBRANCH  28  29
ENDBRANCH  26  28
ENDBRANCH  25  26
ENDBRANCH  11  25
TORSDOF 7
ENDMDL
MODEL 6
REMARK VINA RESULT:      -5.7      4.859      9.039
REMARK  Name = 54758482
REMARK  7 active torsions:
REMARK  status: ('A' for Active; 'I' for Inactive)
REMARK    1  A    between atoms: C_3  and  C_27
REMARK    2  A    between atoms: C_4  and  O_31
REMARK    3  A    between atoms: C_11  and  O_17
REMARK    4  A    between atoms: C_13  and  C_16
REMARK    5  A    between atoms: O_17  and  C_18
REMARK    6  A    between atoms: C_18  and  C_20
REMARK    7  A    between atoms: C_20  and  N_21
REMARK                            x       y       z     vdW  Elec       q    Type
REMARK                         _______ _______ _______ _____ _____    ______ ____
ROOT
ATOM      1  N   UNL     1     -40.058  25.639   3.371  0.00  0.00    -0.275 N 
ATOM      2  N   UNL     1     -41.902  25.586   1.877  0.00  0.00    -0.229 NA
ATOM      3  C   UNL     1     -43.937  26.752   2.465  0.00  0.00    +0.056 C 
ATOM      4  C   UNL     1     -43.362  27.168   3.660  0.00  0.00    +0.143 C 
ATOM      5  C   UNL     1     -41.376  26.009   3.049  0.00  0.00    +0.137 C 
ATOM      6  C   UNL     1     -42.057  26.794   3.965  0.00  0.00    +0.071 C 
ATOM      7  C   UNL     1     -43.172  25.969   1.615  0.00  0.00    +0.103 C 
ATOM      8  H   UNL     1     -39.587  26.297   3.931  0.00  0.00    +0.156 HD
ATOM      9  N   UNL     1     -38.014  24.414   3.506  0.00  0.00    -0.353 NA
ATOM     10  N   UNL     1     -39.166  22.412   1.915  0.00  0.00    -0.246 NA
ATOM     11  C   UNL     1     -37.336  23.303   3.155  0.00  0.00    +0.306 C 
ATOM     12  C   UNL     1     -39.277  24.506   3.048  0.00  0.00    +0.190 C 
ATOM     13  C   UNL     1     -37.902  22.321   2.373  0.00  0.00    +0.211 C 
ATOM     14  C   UNL     1     -39.844  23.523   2.267  0.00  0.00    +0.201 C 
ENDROOT
BRANCH   3  17
ATOM     15  N   UNL     1     -47.441  27.001   1.817  0.00  0.00    -0.208 N 
ATOM     16  N   UNL     1     -47.125  28.217   1.339  0.00  0.00    -0.176 NA
ATOM     17  C   UNL     1     -45.278  27.110   2.104  0.00  0.00    +0.041 C 
ATOM     18  C   UNL     1     -46.371  26.298   2.286  0.00  0.00    +0.086 C 
ATOM     19  C   UNL     1     -45.803  28.278   1.517  0.00  0.00    +0.119 C 
ATOM     20  C   UNL     1     -48.814  26.557   1.797  0.00  0.00    +0.140 C 
ENDBRANCH   3  17
BRANCH  13  22
ATOM     21  N   UNL     1     -36.643  20.172   1.673  0.00  0.00    -0.189 NA
ATOM     22  C   UNL     1     -37.208  21.136   1.987  0.00  0.00    +0.125 C 
ENDBRANCH  13  22
BRANCH   4  23
ATOM     23  O   UNL     1     -44.051  27.939   4.548  0.00  0.00    -0.471 OA
ATOM     24  C   UNL     1     -43.484  29.204   4.882  0.00  0.00    +0.252 C 
ENDBRANCH   4  23
BRANCH  11  25
ATOM     25  O   UNL     1     -36.051  23.193   3.610  0.00  0.00    -0.456 OA
BRANCH  25  26
ATOM     26  C   UNL     1     -35.269  24.387   3.612  0.00  0.00    +0.148 C 
ATOM     27  C   UNL     1     -34.552  24.471   2.271  0.00  0.00    +0.045 C 
BRANCH  26  28
ATOM     28  C   UNL     1     -34.309  24.343   4.804  0.00  0.00    -0.033 C 
BRANCH  28  29
ATOM     29  N   UNL     1     -34.560  25.423   5.750  0.00  0.00    +0.387 N 
ATOM     30  C   UNL     1     -35.902  25.978   5.557  0.00  0.00    -0.101 C 
ATOM     31  C   UNL     1     -33.551  26.475   5.614  0.00  0.00    -0.101 C 
ATOM     32  H   UNL     1     -34.501  25.036   6.693  0.00  0.00    -0.080 HD
ENDBRANCH  28  29
ENDBRANCH  26  28
ENDBRANCH  25  26
ENDBRANCH  11  25
TORSDOF 7
ENDMDL
MODEL 7
REMARK VINA RESULT:      -5.6      6.577     10.307
REMARK  Name = 54758482
REMARK  7 active torsions:
REMARK  status: ('A' for Active; 'I' for Inactive)
REMARK    1  A    between atoms: C_3  and  C_27
REMARK    2  A    between atoms: C_4  and  O_31
REMARK    3  A    between atoms: C_11  and  O_17
REMARK    4  A    between atoms: C_13  and  C_16
REMARK    5  A    between atoms: O_17  and  C_18
REMARK    6  A    between atoms: C_18  and  C_20
REMARK    7  A    between atoms: C_20  and  N_21
REMARK                            x       y       z     vdW  Elec       q    Type
REMARK                         _______ _______ _______ _____ _____    ______ ____
ROOT
ATOM      1  N   UNL     1     -34.271  19.970   1.994  0.00  0.00    -0.275 N 
ATOM      2  N   UNL     1     -34.669  18.194   0.471  0.00  0.00    -0.229 NA
ATOM      3  C   UNL     1     -32.797  17.164  -0.663  0.00  0.00    +0.056 C 
ATOM      4  C   UNL     1     -31.921  18.022  -0.009  0.00  0.00    +0.143 C 
ATOM      5  C   UNL     1     -33.785  19.011   1.088  0.00  0.00    +0.137 C 
ATOM      6  C   UNL     1     -32.415  18.965   0.885  0.00  0.00    +0.071 C 
ATOM      7  C   UNL     1     -34.151  17.290  -0.391  0.00  0.00    +0.103 C 
ATOM      8  H   UNL     1     -33.639  20.189   2.717  0.00  0.00    +0.156 HD
ATOM      9  N   UNL     1     -35.686  21.561   3.073  0.00  0.00    -0.353 NA
ATOM     10  N   UNL     1     -37.632  21.087   1.109  0.00  0.00    -0.246 NA
ATOM     11  C   UNL     1     -36.873  22.200   3.076  0.00  0.00    +0.306 C 
ATOM     12  C   UNL     1     -35.489  20.682   2.072  0.00  0.00    +0.190 C 
ATOM     13  C   UNL     1     -37.828  21.966   2.111  0.00  0.00    +0.211 C 
ATOM     14  C   UNL     1     -36.444  20.449   1.106  0.00  0.00    +0.201 C 
ENDROOT
BRANCH   3  17
ATOM     15  N   UNL     1     -31.640  14.273  -2.414  0.00  0.00    -0.208 N 
ATOM     16  N   UNL     1     -31.665  15.084  -3.486  0.00  0.00    -0.176 NA
ATOM     17  C   UNL     1     -32.338  16.174  -1.594  0.00  0.00    +0.041 C 
ATOM     18  C   UNL     1     -32.034  14.878  -1.257  0.00  0.00    +0.086 C 
ATOM     19  C   UNL     1     -32.092  16.243  -2.978  0.00  0.00    +0.119 C 
ATOM     20  C   UNL     1     -31.222  12.900  -2.563  0.00  0.00    +0.140 C 
ENDBRANCH   3  17
BRANCH  13  22
ATOM     21  N   UNL     1     -40.119  23.167   2.073  0.00  0.00    -0.189 NA
ATOM     22  C   UNL     1     -39.091  22.628   2.090  0.00  0.00    +0.125 C 
ENDBRANCH  13  22
BRANCH   4  23
ATOM     23  O   UNL     1     -30.576  17.959  -0.225  0.00  0.00    -0.471 OA
ATOM     24  C   UNL     1     -29.757  17.618   0.891  0.00  0.00    +0.252 C 
ENDBRANCH   4  23
BRANCH  11  25
ATOM     25  O   UNL     1     -37.091  23.096   4.085  0.00  0.00    -0.456 OA
BRANCH  25  26
ATOM     26  C   UNL     1     -36.104  24.113   4.261  0.00  0.00    +0.148 C 
ATOM     27  C   UNL     1     -35.283  23.752   5.492  0.00  0.00    +0.045 C 
BRANCH  26  28
ATOM     28  C   UNL     1     -36.810  25.465   4.385  0.00  0.00    -0.033 C 
BRANCH  28  29
ATOM     29  N   UNL     1     -36.716  26.248   3.160  0.00  0.00    +0.387 N 
ATOM     30  C   UNL     1     -37.969  26.175   2.404  0.00  0.00    -0.101 C 
ATOM     31  C   UNL     1     -35.598  25.786   2.335  0.00  0.00    -0.101 C 
ATOM     32  H   UNL     1     -36.549  27.221   3.418  0.00  0.00    -0.080 HD
ENDBRANCH  28  29
ENDBRANCH  26  28
ENDBRANCH  25  26
ENDBRANCH  11  25
TORSDOF 7
ENDMDL
MODEL 8
REMARK VINA RESULT:      -5.6      6.273      9.594
REMARK  Name = 54758482
REMARK  7 active torsions:
REMARK  status: ('A' for Active; 'I' for Inactive)
REMARK    1  A    between atoms: C_3  and  C_27
REMARK    2  A    between atoms: C_4  and  O_31
REMARK    3  A    between atoms: C_11  and  O_17
REMARK    4  A    between atoms: C_13  and  C_16
REMARK    5  A    between atoms: O_17  and  C_18
REMARK    6  A    between atoms: C_18  and  C_20
REMARK    7  A    between atoms: C_20  and  N_21
REMARK                            x       y       z     vdW  Elec       q    Type
REMARK                         _______ _______ _______ _____ _____    ______ ____
ROOT
ATOM      1  N   UNL     1     -34.456  20.541   2.118  0.00  0.00    -0.275 N 
ATOM      2  N   UNL     1     -36.103  21.933   1.127  0.00  0.00    -0.229 NA
ATOM      3  C   UNL     1     -37.241  23.577   2.488  0.00  0.00    +0.056 C 
ATOM      4  C   UNL     1     -36.505  23.177   3.597  0.00  0.00    +0.143 C 
ATOM      5  C   UNL     1     -35.407  21.572   2.227  0.00  0.00    +0.137 C 
ATOM      6  C   UNL     1     -35.568  22.157   3.473  0.00  0.00    +0.071 C 
ATOM      7  C   UNL     1     -37.005  22.928   1.286  0.00  0.00    +0.103 C 
ATOM      8  H   UNL     1     -33.701  20.630   2.743  0.00  0.00    +0.156 HD
ATOM      9  N   UNL     1     -33.323  18.566   1.401  0.00  0.00    -0.353 NA
ATOM     10  N   UNL     1     -35.375  18.123  -0.458  0.00  0.00    -0.246 NA
ATOM     11  C   UNL     1     -33.317  17.504   0.572  0.00  0.00    +0.306 C 
ATOM     12  C   UNL     1     -34.372  19.403   1.285  0.00  0.00    +0.190 C 
ATOM     13  C   UNL     1     -34.325  17.287  -0.341  0.00  0.00    +0.211 C 
ATOM     14  C   UNL     1     -35.381  19.185   0.372  0.00  0.00    +0.201 C 
ENDROOT
BRANCH   3  17
ATOM     15  N   UNL     1     -40.124  25.657   2.839  0.00  0.00    -0.208 N 
ATOM     16  N   UNL     1     -39.274  26.650   2.525  0.00  0.00    -0.176 NA
ATOM     17  C   UNL     1     -38.219  24.623   2.563  0.00  0.00    +0.041 C 
ATOM     18  C   UNL     1     -39.542  24.424   2.875  0.00  0.00    +0.086 C 
ATOM     19  C   UNL     1     -38.112  26.012   2.357  0.00  0.00    +0.119 C 
ATOM     20  C   UNL     1     -41.511  25.957   3.100  0.00  0.00    +0.140 C 
ENDBRANCH   3  17
BRANCH  13  22
ATOM     21  N   UNL     1     -34.360  15.264  -1.952  0.00  0.00    -0.189 NA
ATOM     22  C   UNL     1     -34.344  16.172  -1.230  0.00  0.00    +0.125 C 
ENDBRANCH  13  22
BRANCH   4  23
ATOM     23  O   UNL     1     -36.681  23.767   4.814  0.00  0.00    -0.471 OA
ATOM     24  C   UNL     1     -35.594  24.536   5.323  0.00  0.00    +0.252 C 
ENDBRANCH   4  23
BRANCH  11  25
ATOM     25  O   UNL     1     -32.259  16.644   0.676  0.00  0.00    -0.456 OA
BRANCH  25  26
ATOM     26  C   UNL     1     -31.102  16.957  -0.100  0.00  0.00    +0.148 C 
ATOM     27  C   UNL     1     -30.673  15.687  -0.822  0.00  0.00    +0.045 C 
BRANCH  26  28
ATOM     28  C   UNL     1     -30.022  17.513   0.832  0.00  0.00    -0.033 C 
BRANCH  28  29
ATOM     29  N   UNL     1     -29.434  18.743   0.319  0.00  0.00    +0.387 N 
ATOM     30  C   UNL     1     -30.342  19.392  -0.630  0.00  0.00    -0.101 C 
ATOM     31  C   UNL     1     -28.143  18.474  -0.318  0.00  0.00    -0.101 C 
ATOM     32  H   UNL     1     -29.283  19.373   1.107  0.00  0.00    -0.080 HD
ENDBRANCH  28  29
ENDBRANCH  26  28
ENDBRANCH  25  26
ENDBRANCH  11  25
TORSDOF 7
ENDMDL
MODEL 9
REMARK VINA RESULT:      -5.6      2.154      3.137
REMARK  Name = 54758482
REMARK  7 active torsions:
REMARK  status: ('A' for Active; 'I' for Inactive)
REMARK    1  A    between atoms: C_3  and  C_27
REMARK    2  A    between atoms: C_4  and  O_31
REMARK    3  A    between atoms: C_11  and  O_17
REMARK    4  A    between atoms: C_13  and  C_16
REMARK    5  A    between atoms: O_17  and  C_18
REMARK    6  A    between atoms: C_18  and  C_20
REMARK    7  A    between atoms: C_20  and  N_21
REMARK                            x       y       z     vdW  Elec       q    Type
REMARK                         _______ _______ _______ _____ _____    ______ ____
ROOT
ATOM      1  N   UNL     1     -34.861  25.764   4.009  0.00  0.00    -0.275 N 
ATOM      2  N   UNL     1     -36.878  25.413   2.809  0.00  0.00    -0.229 NA
ATOM      3  C   UNL     1     -37.555  23.157   2.263  0.00  0.00    +0.056 C 
ATOM      4  C   UNL     1     -36.420  22.657   2.891  0.00  0.00    +0.143 C 
ATOM      5  C   UNL     1     -35.786  24.890   3.410  0.00  0.00    +0.137 C 
ATOM      6  C   UNL     1     -35.514  23.533   3.478  0.00  0.00    +0.071 C 
ATOM      7  C   UNL     1     -37.736  24.531   2.249  0.00  0.00    +0.103 C 
ATOM      8  H   UNL     1     -34.389  25.375   4.780  0.00  0.00    +0.156 HD
ATOM      9  N   UNL     1     -33.540  27.697   4.478  0.00  0.00    -0.353 NA
ATOM     10  N   UNL     1     -34.764  28.997   2.316  0.00  0.00    -0.246 NA
ATOM     11  C   UNL     1     -33.227  28.962   4.138  0.00  0.00    +0.306 C 
ATOM     12  C   UNL     1     -34.475  27.092   3.720  0.00  0.00    +0.190 C 
ATOM     13  C   UNL     1     -33.829  29.601   3.076  0.00  0.00    +0.211 C 
ATOM     14  C   UNL     1     -35.076  27.731   2.657  0.00  0.00    +0.201 C 
ENDROOT
BRANCH   3  17
ATOM     15  N   UNL     1     -39.516  21.035   0.161  0.00  0.00    -0.208 N 
ATOM     16  N   UNL     1     -40.350  20.997   1.215  0.00  0.00    -0.176 NA
ATOM     17  C   UNL     1     -38.520  22.296   1.642  0.00  0.00    +0.041 C 
ATOM     18  C   UNL     1     -38.405  21.799   0.366  0.00  0.00    +0.086 C 
ATOM     19  C   UNL     1     -39.736  21.768   2.115  0.00  0.00    +0.119 C 
ATOM     20  C   UNL     1     -39.842  20.304  -1.039  0.00  0.00    +0.140 C 
ENDBRANCH   3  17
BRANCH  13  22
ATOM     21  N   UNL     1     -33.263  32.027   2.381  0.00  0.00    -0.189 NA
ATOM     22  C   UNL     1     -33.517  30.938   2.693  0.00  0.00    +0.125 C 
ENDBRANCH  13  22
BRANCH   4  23
ATOM     23  O   UNL     1     -36.171  21.318   2.945  0.00  0.00    -0.471 OA
ATOM     24  C   UNL     1     -35.119  20.821   2.121  0.00  0.00    +0.252 C 
ENDBRANCH   4  23
BRANCH  11  25
ATOM     25  O   UNL     1     -32.280  29.591   4.897  0.00  0.00    -0.456 OA
BRANCH  25  26
ATOM     26  C   UNL     1     -31.620  28.796   5.883  0.00  0.00    +0.148 C 
ATOM     27  C   UNL     1     -31.676  29.555   7.202  0.00  0.00    +0.045 C 
BRANCH  26  28
ATOM     28  C   UNL     1     -30.190  28.518   5.411  0.00  0.00    -0.033 C 
BRANCH  28  29
ATOM     29  N   UNL     1     -29.199  28.908   6.404  0.00  0.00    +0.387 N 
ATOM     30  C   UNL     1     -28.330  29.964   5.880  0.00  0.00    -0.101 C 
ATOM     31  C   UNL     1     -28.400  27.753   6.820  0.00  0.00    -0.101 C 
ATOM     32  H   UNL     1     -29.695  29.270   7.220  0.00  0.00    -0.080 HD
ENDBRANCH  28  29
ENDBRANCH  26  28
ENDBRANCH  25  26
ENDBRANCH  11  25
TORSDOF 7
ENDMDL
