MODEL 1
REMARK VINA RESULT:      -6.7      0.000      0.000
REMARK  Name = 54715766
REMARK  9 active torsions:
REMARK  status: ('A' for Active; 'I' for Inactive)
REMARK    1  A    between atoms: C_1  and  C_24
REMARK    2  A    between atoms: C_2  and  C_10
REMARK    3  A    between atoms: C_3  and  O_7
REMARK    4  A    between atoms: C_5  and  O_22
REMARK    5  A    between atoms: C_10  and  C_11
REMARK    6  A    between atoms: C_13  and  O_18
REMARK    7  A    between atoms: C_17  and  O_20
REMARK    8  A    between atoms: C_24  and  C_27
REMARK    9  A    between atoms: C_29  and  O_32
REMARK                            x       y       z     vdW  Elec       q    Type
REMARK                         _______ _______ _______ _____ _____    ______ ____
ROOT
ATOM      1  C   UNL     1     -36.020  23.813   4.457  0.00  0.00    -0.006 C 
ATOM      2  C   UNL     1     -36.220  23.398   3.141  0.00  0.00    +0.069 C 
ATOM      3  C   UNL     1     -35.946  22.079   2.776  0.00  0.00    +0.139 C 
ATOM      4  C   UNL     1     -35.547  22.909   5.409  0.00  0.00    +0.033 C 
ATOM      5  C   UNL     1     -35.272  21.591   5.043  0.00  0.00    +0.136 C 
ATOM      6  C   UNL     1     -35.472  21.176   3.727  0.00  0.00    +0.073 C 
ENDROOT
BRANCH   3   7
ATOM      7  O   UNL     1     -36.132  21.653   1.495  0.00  0.00    -0.505 OA
ATOM      8  H   UNL     1     -35.811  22.164   0.779  0.00  0.00    +0.292 HD
ENDBRANCH   3   7
BRANCH   2  10
ATOM      9  O   UNL     1     -35.957  24.754   1.254  0.00  0.00    -0.286 OA
ATOM     10  C   UNL     1     -36.714  24.338   2.140  0.00  0.00    +0.201 C 
BRANCH  10  11
ATOM     11  C   UNL     1     -38.123  24.830   2.136  0.00  0.00    +0.069 C 
ATOM     12  C   UNL     1     -39.183  23.927   2.075  0.00  0.00    -0.013 C 
ATOM     13  C   UNL     1     -38.375  26.200   2.191  0.00  0.00    +0.139 C 
ATOM     14  C   UNL     1     -40.497  24.394   2.069  0.00  0.00    +0.033 C 
ATOM     15  C   UNL     1     -39.690  26.668   2.186  0.00  0.00    +0.073 C 
ATOM     16  C   UNL     1     -38.942  22.454   2.015  0.00  0.00    +0.031 C 
ATOM     17  C   UNL     1     -40.750  25.765   2.124  0.00  0.00    +0.136 C 
BRANCH  13  18
ATOM     18  O   UNL     1     -37.354  27.101   2.250  0.00  0.00    -0.505 OA
ATOM     19  H   UNL     1     -36.470  26.802   2.336  0.00  0.00    +0.292 HD
ENDBRANCH  13  18
BRANCH  17  20
ATOM     20  O   UNL     1     -42.032  26.221   2.120  0.00  0.00    -0.505 OA
ATOM     21  H   UNL     1     -42.360  26.695   1.380  0.00  0.00    +0.292 HD
ENDBRANCH  17  20
ENDBRANCH  10  11
ENDBRANCH   2  10
BRANCH   5  22
ATOM     22  O   UNL     1     -34.810  20.710   5.972  0.00  0.00    -0.505 OA
ATOM     23  H   UNL     1     -33.982  20.289   5.848  0.00  0.00    +0.292 HD
ENDBRANCH   5  22
BRANCH   1  24
ATOM     24  C   UNL     1     -36.308  25.229   4.880  0.00  0.00    +0.091 C 
BRANCH  24  27
ATOM     25  O   UNL     1     -34.881  26.849   3.733  0.00  0.00    -0.425 OA
ATOM     26  O   UNL     1     -33.603  28.351   2.603  0.00  0.00    -0.244 OA
ATOM     27  C   UNL     1     -35.085  26.085   4.908  0.00  0.00    +0.134 C 
ATOM     28  C   UNL     1     -34.234  26.146   5.939  0.00  0.00    +0.070 C 
ATOM     29  C   UNL     1     -33.089  27.008   5.846  0.00  0.00    +0.143 C 
ATOM     30  C   UNL     1     -33.801  27.681   3.610  0.00  0.00    +0.349 C 
ATOM     31  C   UNL     1     -32.866  27.743   4.752  0.00  0.00    +0.119 C 
BRANCH  29  32
ATOM     32  O   UNL     1     -32.232  27.048   6.924  0.00  0.00    -0.505 OA
ATOM     33  H   UNL     1     -31.553  27.693   6.960  0.00  0.00    +0.292 HD
ENDBRANCH  29  32
ENDBRANCH  24  27
ENDBRANCH   1  24
TORSDOF 9
ENDMDL
MODEL 2
REMARK VINA RESULT:      -6.6      3.339      6.802
REMARK  Name = 54715766
REMARK  9 active torsions:
REMARK  status: ('A' for Active; 'I' for Inactive)
REMARK    1  A    between atoms: C_1  and  C_24
REMARK    2  A    between atoms: C_2  and  C_10
REMARK    3  A    between atoms: C_3  and  O_7
REMARK    4  A    between atoms: C_5  and  O_22
REMARK    5  A    between atoms: C_10  and  C_11
REMARK    6  A    between atoms: C_13  and  O_18
REMARK    7  A    between atoms: C_17  and  O_20
REMARK    8  A    between atoms: C_24  and  C_27
REMARK    9  A    between atoms: C_29  and  O_32
REMARK                            x       y       z     vdW  Elec       q    Type
REMARK                         _______ _______ _______ _____ _____    ______ ____
ROOT
ATOM      1  C   UNL     1     -36.761  21.871   1.004  0.00  0.00    -0.006 C 
ATOM      2  C   UNL     1     -36.673  21.007  -0.087  0.00  0.00    +0.069 C 
ATOM      3  C   UNL     1     -37.814  20.350  -0.549  0.00  0.00    +0.139 C 
ATOM      4  C   UNL     1     -37.989  22.078   1.633  0.00  0.00    +0.033 C 
ATOM      5  C   UNL     1     -39.129  21.420   1.171  0.00  0.00    +0.136 C 
ATOM      6  C   UNL     1     -39.041  20.556   0.080  0.00  0.00    +0.073 C 
ENDROOT
BRANCH   3   7
ATOM      7  O   UNL     1     -37.751  19.501  -1.613  0.00  0.00    -0.505 OA
ATOM      8  H   UNL     1     -37.071  18.858  -1.661  0.00  0.00    +0.292 HD
ENDBRANCH   3   7
BRANCH   2  10
ATOM      9  O   UNL     1     -35.176  21.282  -1.862  0.00  0.00    -0.286 OA
ATOM     10  C   UNL     1     -35.392  20.786  -0.749  0.00  0.00    +0.201 C 
BRANCH  10  11
ATOM     11  C   UNL     1     -34.306  19.970  -0.132  0.00  0.00    +0.069 C 
ATOM     12  C   UNL     1     -33.030  20.507   0.031  0.00  0.00    -0.013 C 
ATOM     13  C   UNL     1     -34.572  18.665   0.281  0.00  0.00    +0.139 C 
ATOM     14  C   UNL     1     -32.019  19.739   0.607  0.00  0.00    +0.033 C 
ATOM     15  C   UNL     1     -33.561  17.896   0.858  0.00  0.00    +0.073 C 
ATOM     16  C   UNL     1     -32.716  21.902  -0.402  0.00  0.00    +0.031 C 
ATOM     17  C   UNL     1     -32.284  18.433   1.020  0.00  0.00    +0.136 C 
BRANCH  13  18
ATOM     18  O   UNL     1     -35.812  18.120   0.130  0.00  0.00    -0.505 OA
ATOM     19  H   UNL     1     -36.522  18.647  -0.179  0.00  0.00    +0.292 HD
ENDBRANCH  13  18
BRANCH  17  20
ATOM     20  O   UNL     1     -31.298  17.683   1.583  0.00  0.00    -0.505 OA
ATOM     21  H   UNL     1     -30.511  18.094   1.887  0.00  0.00    +0.292 HD
ENDBRANCH  17  20
ENDBRANCH  10  11
ENDBRANCH   2  10
BRANCH   5  22
ATOM     22  O   UNL     1     -40.327  21.622   1.785  0.00  0.00    -0.505 OA
ATOM     23  H   UNL     1     -40.511  22.445   2.194  0.00  0.00    +0.292 HD
ENDBRANCH   5  22
BRANCH   1  24
ATOM     24  C   UNL     1     -35.547  22.594   1.525  0.00  0.00    +0.091 C 
BRANCH  24  27
ATOM     25  O   UNL     1     -35.562  23.927   3.574  0.00  0.00    -0.425 OA
ATOM     26  O   UNL     1     -35.581  25.233   5.435  0.00  0.00    -0.244 OA
ATOM     27  C   UNL     1     -35.488  22.627   3.016  0.00  0.00    +0.134 C 
ATOM     28  C   UNL     1     -35.374  21.540   3.788  0.00  0.00    +0.070 C 
ATOM     29  C   UNL     1     -35.326  21.701   5.215  0.00  0.00    +0.143 C 
ATOM     30  C   UNL     1     -35.519  24.117   4.929  0.00  0.00    +0.349 C 
ATOM     31  C   UNL     1     -35.393  22.913   5.775  0.00  0.00    +0.119 C 
BRANCH  29  32
ATOM     32  O   UNL     1     -35.208  20.563   5.981  0.00  0.00    -0.505 OA
ATOM     33  H   UNL     1     -34.928  20.625   6.873  0.00  0.00    +0.292 HD
ENDBRANCH  29  32
ENDBRANCH  24  27
ENDBRANCH   1  24
TORSDOF 9
ENDMDL
MODEL 3
REMARK VINA RESULT:      -6.6      1.607      2.722
REMARK  Name = 54715766
REMARK  9 active torsions:
REMARK  status: ('A' for Active; 'I' for Inactive)
REMARK    1  A    between atoms: C_1  and  C_24
REMARK    2  A    between atoms: C_2  and  C_10
REMARK    3  A    between atoms: C_3  and  O_7
REMARK    4  A    between atoms: C_5  and  O_22
REMARK    5  A    between atoms: C_10  and  C_11
REMARK    6  A    between atoms: C_13  and  O_18
REMARK    7  A    between atoms: C_17  and  O_20
REMARK    8  A    between atoms: C_24  and  C_27
REMARK    9  A    between atoms: C_29  and  O_32
REMARK                            x       y       z     vdW  Elec       q    Type
REMARK                         _______ _______ _______ _____ _____    ______ ____
ROOT
ATOM      1  C   UNL     1     -35.986  24.190   4.618  0.00  0.00    -0.006 C 
ATOM      2  C   UNL     1     -36.472  23.570   3.467  0.00  0.00    +0.069 C 
ATOM      3  C   UNL     1     -36.274  22.202   3.276  0.00  0.00    +0.139 C 
ATOM      4  C   UNL     1     -35.302  23.443   5.577  0.00  0.00    +0.033 C 
ATOM      5  C   UNL     1     -35.104  22.075   5.385  0.00  0.00    +0.136 C 
ATOM      6  C   UNL     1     -35.590  21.455   4.234  0.00  0.00    +0.073 C 
ENDROOT
BRANCH   3   7
ATOM      7  O   UNL     1     -36.739  21.576   2.158  0.00  0.00    -0.505 OA
ATOM      8  H   UNL     1     -36.167  21.036   1.650  0.00  0.00    +0.292 HD
ENDBRANCH   3   7
BRANCH   2  10
ATOM      9  O   UNL     1     -38.346  24.039   2.150  0.00  0.00    -0.286 OA
ATOM     10  C   UNL     1     -37.188  24.345   2.460  0.00  0.00    +0.201 C 
BRANCH  10  11
ATOM     11  C   UNL     1     -36.573  25.518   1.771  0.00  0.00    +0.069 C 
ATOM     12  C   UNL     1     -35.348  25.386   1.119  0.00  0.00    -0.013 C 
ATOM     13  C   UNL     1     -37.228  26.748   1.784  0.00  0.00    +0.139 C 
ATOM     14  C   UNL     1     -34.777  26.486   0.479  0.00  0.00    +0.033 C 
ATOM     15  C   UNL     1     -36.658  27.848   1.143  0.00  0.00    +0.073 C 
ATOM     16  C   UNL     1     -34.623  24.080   1.089  0.00  0.00    +0.031 C 
ATOM     17  C   UNL     1     -35.433  27.718   0.491  0.00  0.00    +0.136 C 
BRANCH  13  18
ATOM     18  O   UNL     1     -38.426  26.899   2.417  0.00  0.00    -0.505 OA
ATOM     19  H   UNL     1     -38.948  27.660   2.256  0.00  0.00    +0.292 HD
ENDBRANCH  13  18
BRANCH  17  20
ATOM     20  O   UNL     1     -34.877  28.791  -0.134  0.00  0.00    -0.505 OA
ATOM     21  H   UNL     1     -34.805  28.804  -1.069  0.00  0.00    +0.292 HD
ENDBRANCH  17  20
ENDBRANCH  10  11
ENDBRANCH   2  10
BRANCH   5  22
ATOM     22  O   UNL     1     -34.436  21.346   6.320  0.00  0.00    -0.505 OA
ATOM     23  H   UNL     1     -33.970  20.573   6.068  0.00  0.00    +0.292 HD
ENDBRANCH   5  22
BRANCH   1  24
ATOM     24  C   UNL     1     -36.186  25.664   4.852  0.00  0.00    +0.091 C 
BRANCH  24  27
ATOM     25  O   UNL     1     -34.602  27.271   3.912  0.00  0.00    -0.425 OA
ATOM     26  O   UNL     1     -33.177  28.773   2.973  0.00  0.00    -0.244 OA
ATOM     27  C   UNL     1     -34.899  26.407   4.994  0.00  0.00    +0.134 C 
ATOM     28  C   UNL     1     -34.074  26.288   6.042  0.00  0.00    +0.070 C 
ATOM     29  C   UNL     1     -32.861  27.057   6.062  0.00  0.00    +0.143 C 
ATOM     30  C   UNL     1     -33.455  28.018   3.899  0.00  0.00    +0.349 C 
ATOM     31  C   UNL     1     -32.549  27.882   5.058  0.00  0.00    +0.119 C 
BRANCH  29  32
ATOM     32  O   UNL     1     -32.033  26.912   7.153  0.00  0.00    -0.505 OA
ATOM     33  H   UNL     1     -32.393  26.682   7.988  0.00  0.00    +0.292 HD
ENDBRANCH  29  32
ENDBRANCH  24  27
ENDBRANCH   1  24
TORSDOF 9
ENDMDL
MODEL 4
REMARK VINA RESULT:      -6.5      2.430      4.947
REMARK  Name = 54715766
REMARK  9 active torsions:
REMARK  status: ('A' for Active; 'I' for Inactive)
REMARK    1  A    between atoms: C_1  and  C_24
REMARK    2  A    between atoms: C_2  and  C_10
REMARK    3  A    between atoms: C_3  and  O_7
REMARK    4  A    between atoms: C_5  and  O_22
REMARK    5  A    between atoms: C_10  and  C_11
REMARK    6  A    between atoms: C_13  and  O_18
REMARK    7  A    between atoms: C_17  and  O_20
REMARK    8  A    between atoms: C_24  and  C_27
REMARK    9  A    between atoms: C_29  and  O_32
REMARK                            x       y       z     vdW  Elec       q    Type
REMARK                         _______ _______ _______ _____ _____    ______ ____
ROOT
ATOM      1  C   UNL     1     -35.833  22.209   3.324  0.00  0.00    -0.006 C 
ATOM      2  C   UNL     1     -36.114  23.570   3.444  0.00  0.00    +0.069 C 
ATOM      3  C   UNL     1     -35.900  24.221   4.660  0.00  0.00    +0.139 C 
ATOM      4  C   UNL     1     -35.336  21.500   4.418  0.00  0.00    +0.033 C 
ATOM      5  C   UNL     1     -35.123  22.152   5.633  0.00  0.00    +0.136 C 
ATOM      6  C   UNL     1     -35.404  23.512   5.753  0.00  0.00    +0.073 C 
ENDROOT
BRANCH   3   7
ATOM      7  O   UNL     1     -36.170  25.549   4.800  0.00  0.00    -0.505 OA
ATOM      8  H   UNL     1     -36.898  25.828   5.320  0.00  0.00    +0.292 HD
ENDBRANCH   3   7
BRANCH   2  10
ATOM      9  O   UNL     1     -35.895  25.088   1.680  0.00  0.00    -0.286 OA
ATOM     10  C   UNL     1     -36.635  24.317   2.305  0.00  0.00    +0.201 C 
BRANCH  10  11
ATOM     11  C   UNL     1     -38.049  24.192   1.847  0.00  0.00    +0.069 C 
ATOM     12  C   UNL     1     -38.333  23.763   0.551  0.00  0.00    -0.013 C 
ATOM     13  C   UNL     1     -39.088  24.506   2.722  0.00  0.00    +0.139 C 
ATOM     14  C   UNL     1     -39.657  23.650   0.129  0.00  0.00    +0.033 C 
ATOM     15  C   UNL     1     -40.413  24.393   2.300  0.00  0.00    +0.073 C 
ATOM     16  C   UNL     1     -37.240  23.420  -0.407  0.00  0.00    +0.031 C 
ATOM     17  C   UNL     1     -40.698  23.965   1.004  0.00  0.00    +0.136 C 
BRANCH  13  18
ATOM     18  O   UNL     1     -38.833  24.928   3.993  0.00  0.00    -0.505 OA
ATOM     19  H   UNL     1     -38.282  24.420   4.553  0.00  0.00    +0.292 HD
ENDBRANCH  13  18
BRANCH  17  20
ATOM     20  O   UNL     1     -41.990  23.854   0.592  0.00  0.00    -0.505 OA
ATOM     21  H   UNL     1     -42.658  23.611   1.203  0.00  0.00    +0.292 HD
ENDBRANCH  17  20
ENDBRANCH  10  11
ENDBRANCH   2  10
BRANCH   5  22
ATOM     22  O   UNL     1     -34.638  21.460   6.700  0.00  0.00    -0.505 OA
ATOM     23  H   UNL     1     -33.909  20.880   6.592  0.00  0.00    +0.292 HD
ENDBRANCH   5  22
BRANCH   1  24
ATOM     24  C   UNL     1     -36.053  21.480   2.025  0.00  0.00    +0.091 C 
BRANCH  24  27
ATOM     25  O   UNL     1     -34.388  19.716   1.727  0.00  0.00    -0.425 OA
ATOM     26  O   UNL     1     -32.880  18.029   1.500  0.00  0.00    -0.244 OA
ATOM     27  C   UNL     1     -34.780  21.034   1.388  0.00  0.00    +0.134 C 
ATOM     28  C   UNL     1     -34.046  21.792   0.562  0.00  0.00    +0.070 C 
ATOM     29  C   UNL     1     -32.835  21.250   0.012  0.00  0.00    +0.143 C 
ATOM     30  C   UNL     1     -33.240  19.168   1.220  0.00  0.00    +0.349 C 
ATOM     31  C   UNL     1     -32.436  20.010   0.311  0.00  0.00    +0.119 C 
BRANCH  29  32
ATOM     32  O   UNL     1     -32.104  22.054  -0.833  0.00  0.00    -0.505 OA
ATOM     33  H   UNL     1     -32.051  21.850  -1.747  0.00  0.00    +0.292 HD
ENDBRANCH  29  32
ENDBRANCH  24  27
ENDBRANCH   1  24
TORSDOF 9
ENDMDL
MODEL 5
REMARK VINA RESULT:      -6.5      2.588      4.189
REMARK  Name = 54715766
REMARK  9 active torsions:
REMARK  status: ('A' for Active; 'I' for Inactive)
REMARK    1  A    between atoms: C_1  and  C_24
REMARK    2  A    between atoms: C_2  and  C_10
REMARK    3  A    between atoms: C_3  and  O_7
REMARK    4  A    between atoms: C_5  and  O_22
REMARK    5  A    between atoms: C_10  and  C_11
REMARK    6  A    between atoms: C_13  and  O_18
REMARK    7  A    between atoms: C_17  and  O_20
REMARK    8  A    between atoms: C_24  and  C_27
REMARK    9  A    between atoms: C_29  and  O_32
REMARK                            x       y       z     vdW  Elec       q    Type
REMARK                         _______ _______ _______ _____ _____    ______ ____
ROOT
ATOM      1  C   UNL     1     -34.811  22.297   0.877  0.00  0.00    -0.006 C 
ATOM      2  C   UNL     1     -35.752  21.605   1.638  0.00  0.00    +0.069 C 
ATOM      3  C   UNL     1     -35.575  20.245   1.897  0.00  0.00    +0.139 C 
ATOM      4  C   UNL     1     -33.693  21.629   0.374  0.00  0.00    +0.033 C 
ATOM      5  C   UNL     1     -33.518  20.270   0.633  0.00  0.00    +0.136 C 
ATOM      6  C   UNL     1     -34.459  19.578   1.395  0.00  0.00    +0.073 C 
ENDROOT
BRANCH   3   7
ATOM      7  O   UNL     1     -36.484  19.549   2.638  0.00  0.00    -0.505 OA
ATOM      8  H   UNL     1     -36.352  18.637   2.806  0.00  0.00    +0.292 HD
ENDBRANCH   3   7
BRANCH   2  10
ATOM      9  O   UNL     1     -38.059  21.911   1.861  0.00  0.00    -0.286 OA
ATOM     10  C   UNL     1     -36.923  22.296   2.166  0.00  0.00    +0.201 C 
BRANCH  10  11
ATOM     11  C   UNL     1     -36.811  23.473   3.077  0.00  0.00    +0.069 C 
ATOM     12  C   UNL     1     -36.114  23.366   4.280  0.00  0.00    -0.013 C 
ATOM     13  C   UNL     1     -37.409  24.681   2.722  0.00  0.00    +0.139 C 
ATOM     14  C   UNL     1     -36.015  24.468   5.128  0.00  0.00    +0.033 C 
ATOM     15  C   UNL     1     -37.310  25.784   3.570  0.00  0.00    +0.073 C 
ATOM     16  C   UNL     1     -35.463  22.084   4.687  0.00  0.00    +0.031 C 
ATOM     17  C   UNL     1     -36.613  25.678   4.773  0.00  0.00    +0.136 C 
BRANCH  13  18
ATOM     18  O   UNL     1     -38.096  24.807   1.552  0.00  0.00    -0.505 OA
ATOM     19  H   UNL     1     -37.979  24.176   0.869  0.00  0.00    +0.292 HD
ENDBRANCH  13  18
BRANCH  17  20
ATOM     20  O   UNL     1     -36.516  26.754   5.601  0.00  0.00    -0.505 OA
ATOM     21  H   UNL     1     -35.683  27.002   5.952  0.00  0.00    +0.292 HD
ENDBRANCH  17  20
ENDBRANCH  10  11
ENDBRANCH   2  10
BRANCH   5  22
ATOM     22  O   UNL     1     -32.428  19.618   0.143  0.00  0.00    -0.505 OA
ATOM     23  H   UNL     1     -32.371  19.422  -0.772  0.00  0.00    +0.292 HD
ENDBRANCH   5  22
BRANCH   1  24
ATOM     24  C   UNL     1     -34.974  23.764   0.581  0.00  0.00    +0.091 C 
BRANCH  24  27
ATOM     25  O   UNL     1     -33.951  25.096   2.357  0.00  0.00    -0.425 OA
ATOM     26  O   UNL     1     -33.065  26.323   4.054  0.00  0.00    -0.244 OA
ATOM     27  C   UNL     1     -33.814  24.580   1.045  0.00  0.00    +0.134 C 
ATOM     28  C   UNL     1     -32.722  24.824   0.308  0.00  0.00    +0.070 C 
ATOM     29  C   UNL     1     -31.671  25.628   0.866  0.00  0.00    +0.143 C 
ATOM     30  C   UNL     1     -32.968  25.866   2.920  0.00  0.00    +0.349 C 
ATOM     31  C   UNL     1     -31.768  26.130   2.101  0.00  0.00    +0.119 C 
BRANCH  29  32
ATOM     32  O   UNL     1     -30.563  25.860   0.083  0.00  0.00    -0.505 OA
ATOM     33  H   UNL     1     -30.195  25.165  -0.428  0.00  0.00    +0.292 HD
ENDBRANCH  29  32
ENDBRANCH  24  27
ENDBRANCH   1  24
TORSDOF 9
ENDMDL
MODEL 6
REMARK VINA RESULT:      -6.5      2.093      5.181
REMARK  Name = 54715766
REMARK  9 active torsions:
REMARK  status: ('A' for Active; 'I' for Inactive)
REMARK    1  A    between atoms: C_1  and  C_24
REMARK    2  A    between atoms: C_2  and  C_10
REMARK    3  A    between atoms: C_3  and  O_7
REMARK    4  A    between atoms: C_5  and  O_22
REMARK    5  A    between atoms: C_10  and  C_11
REMARK    6  A    between atoms: C_13  and  O_18
REMARK    7  A    between atoms: C_17  and  O_20
REMARK    8  A    between atoms: C_24  and  C_27
REMARK    9  A    between atoms: C_29  and  O_32
REMARK                            x       y       z     vdW  Elec       q    Type
REMARK                         _______ _______ _______ _____ _____    ______ ____
ROOT
ATOM      1  C   UNL     1     -35.691  22.777   3.017  0.00  0.00    -0.006 C 
ATOM      2  C   UNL     1     -35.805  24.018   3.643  0.00  0.00    +0.069 C 
ATOM      3  C   UNL     1     -35.688  24.113   5.030  0.00  0.00    +0.139 C 
ATOM      4  C   UNL     1     -35.459  21.631   3.778  0.00  0.00    +0.033 C 
ATOM      5  C   UNL     1     -35.343  21.726   5.165  0.00  0.00    +0.136 C 
ATOM      6  C   UNL     1     -35.457  22.967   5.791  0.00  0.00    +0.073 C 
ENDROOT
BRANCH   3   7
ATOM      7  O   UNL     1     -35.797  25.316   5.662  0.00  0.00    -0.505 OA
ATOM      8  H   UNL     1     -36.442  25.437   6.331  0.00  0.00    +0.292 HD
ENDBRANCH   3   7
BRANCH   2  10
ATOM      9  O   UNL     1     -35.161  26.077   2.740  0.00  0.00    -0.286 OA
ATOM     10  C   UNL     1     -36.047  25.221   2.853  0.00  0.00    +0.201 C 
BRANCH  10  11
ATOM     11  C   UNL     1     -37.344  25.471   2.159  0.00  0.00    +0.069 C 
ATOM     12  C   UNL     1     -37.366  25.779   0.800  0.00  0.00    -0.013 C 
ATOM     13  C   UNL     1     -38.537  25.396   2.877  0.00  0.00    +0.139 C 
ATOM     14  C   UNL     1     -38.581  26.014   0.158  0.00  0.00    +0.033 C 
ATOM     15  C   UNL     1     -39.753  25.631   2.235  0.00  0.00    +0.073 C 
ATOM     16  C   UNL     1     -36.104  25.866   0.006  0.00  0.00    +0.031 C 
ATOM     17  C   UNL     1     -39.775  25.940   0.876  0.00  0.00    +0.136 C 
BRANCH  13  18
ATOM     18  O   UNL     1     -38.539  25.097   4.207  0.00  0.00    -0.505 OA
ATOM     19  H   UNL     1     -38.940  24.307   4.509  0.00  0.00    +0.292 HD
ENDBRANCH  13  18
BRANCH  17  20
ATOM     20  O   UNL     1     -40.962  26.169   0.249  0.00  0.00    -0.505 OA
ATOM     21  H   UNL     1     -41.140  27.009  -0.127  0.00  0.00    +0.292 HD
ENDBRANCH  17  20
ENDBRANCH  10  11
ENDBRANCH   2  10
BRANCH   5  22
ATOM     22  O   UNL     1     -35.118  20.608   5.907  0.00  0.00    -0.505 OA
ATOM     23  H   UNL     1     -35.476  20.538   6.771  0.00  0.00    +0.292 HD
ENDBRANCH   5  22
BRANCH   1  24
ATOM     24  C   UNL     1     -35.812  22.644   1.522  0.00  0.00    +0.091 C 
BRANCH  24  27
ATOM     25  O   UNL     1     -37.425  22.431  -0.302  0.00  0.00    -0.425 OA
ATOM     26  O   UNL     1     -38.871  22.261  -2.048  0.00  0.00    -0.244 OA
ATOM     27  C   UNL     1     -37.187  22.262   1.084  0.00  0.00    +0.134 C 
ATOM     28  C   UNL     1     -38.136  21.796   1.907  0.00  0.00    +0.070 C 
ATOM     29  C   UNL     1     -39.423  21.464   1.365  0.00  0.00    +0.143 C 
ATOM     30  C   UNL     1     -38.641  22.123  -0.851  0.00  0.00    +0.349 C 
ATOM     31  C   UNL     1     -39.683  21.611   0.062  0.00  0.00    +0.119 C 
BRANCH  29  32
ATOM     32  O   UNL     1     -40.377  20.988   2.237  0.00  0.00    -0.505 OA
ATOM     33  H   UNL     1     -40.166  20.865   3.142  0.00  0.00    +0.292 HD
ENDBRANCH  29  32
ENDBRANCH  24  27
ENDBRANCH   1  24
TORSDOF 9
ENDMDL
MODEL 7
REMARK VINA RESULT:      -6.5      1.976      5.272
REMARK  Name = 54715766
REMARK  9 active torsions:
REMARK  status: ('A' for Active; 'I' for Inactive)
REMARK    1  A    between atoms: C_1  and  C_24
REMARK    2  A    between atoms: C_2  and  C_10
REMARK    3  A    between atoms: C_3  and  O_7
REMARK    4  A    between atoms: C_5  and  O_22
REMARK    5  A    between atoms: C_10  and  C_11
REMARK    6  A    between atoms: C_13  and  O_18
REMARK    7  A    between atoms: C_17  and  O_20
REMARK    8  A    between atoms: C_24  and  C_27
REMARK    9  A    between atoms: C_29  and  O_32
REMARK                            x       y       z     vdW  Elec       q    Type
REMARK                         _______ _______ _______ _____ _____    ______ ____
ROOT
ATOM      1  C   UNL     1     -38.085  25.035   2.016  0.00  0.00    -0.006 C 
ATOM      2  C   UNL     1     -38.778  24.106   1.240  0.00  0.00    +0.069 C 
ATOM      3  C   UNL     1     -40.170  24.044   1.304  0.00  0.00    +0.139 C 
ATOM      4  C   UNL     1     -38.785  25.901   2.857  0.00  0.00    +0.033 C 
ATOM      5  C   UNL     1     -40.177  25.837   2.922  0.00  0.00    +0.136 C 
ATOM      6  C   UNL     1     -40.870  24.909   2.145  0.00  0.00    +0.073 C 
ENDROOT
BRANCH   3   7
ATOM      7  O   UNL     1     -40.867  23.143   0.555  0.00  0.00    -0.505 OA
ATOM      8  H   UNL     1     -40.773  22.225   0.718  0.00  0.00    +0.292 HD
ENDBRANCH   3   7
BRANCH   2  10
ATOM      9  O   UNL     1     -38.242  23.236  -0.863  0.00  0.00    -0.286 OA
ATOM     10  C   UNL     1     -38.053  23.197   0.359  0.00  0.00    +0.201 C 
BRANCH  10  11
ATOM     11  C   UNL     1     -37.070  22.200   0.876  0.00  0.00    +0.069 C 
ATOM     12  C   UNL     1     -35.735  22.258   0.479  0.00  0.00    -0.013 C 
ATOM     13  C   UNL     1     -37.493  21.208   1.760  0.00  0.00    +0.139 C 
ATOM     14  C   UNL     1     -34.822  21.322   0.964  0.00  0.00    +0.033 C 
ATOM     15  C   UNL     1     -36.580  20.272   2.246  0.00  0.00    +0.073 C 
ATOM     16  C   UNL     1     -35.254  23.310  -0.467  0.00  0.00    +0.031 C 
ATOM     17  C   UNL     1     -35.245  20.328   1.848  0.00  0.00    +0.136 C 
BRANCH  13  18
ATOM     18  O   UNL     1     -38.794  21.133   2.160  0.00  0.00    -0.505 OA
ATOM     19  H   UNL     1     -39.028  20.599   2.894  0.00  0.00    +0.292 HD
ENDBRANCH  13  18
BRANCH  17  20
ATOM     20  O   UNL     1     -34.355  19.415   2.322  0.00  0.00    -0.505 OA
ATOM     21  H   UNL     1     -33.457  19.452   2.055  0.00  0.00    +0.292 HD
ENDBRANCH  17  20
ENDBRANCH  10  11
ENDBRANCH   2  10
BRANCH   5  22
ATOM     22  O   UNL     1     -40.860  26.682   3.742  0.00  0.00    -0.505 OA
ATOM     23  H   UNL     1     -40.415  27.396   4.155  0.00  0.00    +0.292 HD
ENDBRANCH   5  22
BRANCH   1  24
ATOM     24  C   UNL     1     -36.584  25.126   1.967  0.00  0.00    +0.091 C 
BRANCH  24  27
ATOM     25  O   UNL     1     -34.861  25.561   3.646  0.00  0.00    -0.425 OA
ATOM     26  O   UNL     1     -33.234  26.028   5.164  0.00  0.00    -0.244 OA
ATOM     27  C   UNL     1     -35.937  24.729   3.253  0.00  0.00    +0.134 C 
ATOM     28  C   UNL     1     -36.317  23.680   3.993  0.00  0.00    +0.070 C 
ATOM     29  C   UNL     1     -35.614  23.398   5.213  0.00  0.00    +0.143 C 
ATOM     30  C   UNL     1     -34.169  25.321   4.803  0.00  0.00    +0.349 C 
ATOM     31  C   UNL     1     -34.594  24.162   5.614  0.00  0.00    +0.119 C 
BRANCH  29  32
ATOM     32  O   UNL     1     -36.029  22.312   5.951  0.00  0.00    -0.505 OA
ATOM     33  H   UNL     1     -35.719  22.194   6.828  0.00  0.00    +0.292 HD
ENDBRANCH  29  32
ENDBRANCH  24  27
ENDBRANCH   1  24
TORSDOF 9
ENDMDL
MODEL 8
REMARK VINA RESULT:      -6.4      2.017      5.978
REMARK  Name = 54715766
REMARK  9 active torsions:
REMARK  status: ('A' for Active; 'I' for Inactive)
REMARK    1  A    between atoms: C_1  and  C_24
REMARK    2  A    between atoms: C_2  and  C_10
REMARK    3  A    between atoms: C_3  and  O_7
REMARK    4  A    between atoms: C_5  and  O_22
REMARK    5  A    between atoms: C_10  and  C_11
REMARK    6  A    between atoms: C_13  and  O_18
REMARK    7  A    between atoms: C_17  and  O_20
REMARK    8  A    between atoms: C_24  and  C_27
REMARK    9  A    between atoms: C_29  and  O_32
REMARK                            x       y       z     vdW  Elec       q    Type
REMARK                         _______ _______ _______ _____ _____    ______ ____
ROOT
ATOM      1  C   UNL     1     -37.558  21.608   1.520  0.00  0.00    -0.006 C 
ATOM      2  C   UNL     1     -36.227  21.246   1.729  0.00  0.00    +0.069 C 
ATOM      3  C   UNL     1     -35.506  20.624   0.708  0.00  0.00    +0.139 C 
ATOM      4  C   UNL     1     -38.167  21.350   0.292  0.00  0.00    +0.033 C 
ATOM      5  C   UNL     1     -37.446  20.727  -0.727  0.00  0.00    +0.136 C 
ATOM      6  C   UNL     1     -36.115  20.365  -0.519  0.00  0.00    +0.073 C 
ENDROOT
BRANCH   3   7
ATOM      7  O   UNL     1     -34.206  20.260   0.891  0.00  0.00    -0.505 OA
ATOM      8  H   UNL     1     -33.998  19.503   1.404  0.00  0.00    +0.292 HD
ENDBRANCH   3   7
BRANCH   2  10
ATOM      9  O   UNL     1     -35.157  20.575   3.696  0.00  0.00    -0.286 OA
ATOM     10  C   UNL     1     -35.585  21.512   3.011  0.00  0.00    +0.201 C 
BRANCH  10  11
ATOM     11  C   UNL     1     -35.415  22.895   3.545  0.00  0.00    +0.069 C 
ATOM     12  C   UNL     1     -34.897  23.903   2.734  0.00  0.00    -0.013 C 
ATOM     13  C   UNL     1     -35.776  23.175   4.862  0.00  0.00    +0.139 C 
ATOM     14  C   UNL     1     -34.739  25.193   3.240  0.00  0.00    +0.033 C 
ATOM     15  C   UNL     1     -35.618  24.466   5.369  0.00  0.00    +0.073 C 
ATOM     16  C   UNL     1     -34.502  23.632   1.319  0.00  0.00    +0.031 C 
ATOM     17  C   UNL     1     -35.099  25.474   4.558  0.00  0.00    +0.136 C 
BRANCH  13  18
ATOM     18  O   UNL     1     -36.283  22.204   5.673  0.00  0.00    -0.505 OA
ATOM     19  H   UNL     1     -37.018  21.697   5.393  0.00  0.00    +0.292 HD
ENDBRANCH  13  18
BRANCH  17  20
ATOM     20  O   UNL     1     -34.946  26.733   5.052  0.00  0.00    -0.505 OA
ATOM     21  H   UNL     1     -34.272  27.291   4.715  0.00  0.00    +0.292 HD
ENDBRANCH  17  20
ENDBRANCH  10  11
ENDBRANCH   2  10
BRANCH   5  22
ATOM     22  O   UNL     1     -38.040  20.475  -1.925  0.00  0.00    -0.505 OA
ATOM     23  H   UNL     1     -37.825  20.996  -2.674  0.00  0.00    +0.292 HD
ENDBRANCH   5  22
BRANCH   1  24
ATOM     24  C   UNL     1     -38.361  22.281   2.601  0.00  0.00    +0.091 C 
BRANCH  24  27
ATOM     25  O   UNL     1     -40.378  23.393   1.784  0.00  0.00    -0.425 OA
ATOM     26  O   UNL     1     -42.292  24.358   1.027  0.00  0.00    -0.244 OA
ATOM     27  C   UNL     1     -39.015  23.540   2.139  0.00  0.00    +0.134 C 
ATOM     28  C   UNL     1     -38.393  24.723   2.054  0.00  0.00    +0.070 C 
ATOM     29  C   UNL     1     -39.131  25.865   1.592  0.00  0.00    +0.143 C 
ATOM     30  C   UNL     1     -41.111  24.461   1.340  0.00  0.00    +0.349 C 
ATOM     31  C   UNL     1     -40.418  25.763   1.249  0.00  0.00    +0.119 C 
BRANCH  29  32
ATOM     32  O   UNL     1     -38.462  27.067   1.516  0.00  0.00    -0.505 OA
ATOM     33  H   UNL     1     -38.651  27.666   0.820  0.00  0.00    +0.292 HD
ENDBRANCH  29  32
ENDBRANCH  24  27
ENDBRANCH   1  24
TORSDOF 9
ENDMDL
MODEL 9
REMARK VINA RESULT:      -6.4      2.506      4.855
REMARK  Name = 54715766
REMARK  9 active torsions:
REMARK  status: ('A' for Active; 'I' for Inactive)
REMARK    1  A    between atoms: C_1  and  C_24
REMARK    2  A    between atoms: C_2  and  C_10
REMARK    3  A    between atoms: C_3  and  O_7
REMARK    4  A    between atoms: C_5  and  O_22
REMARK    5  A    between atoms: C_10  and  C_11
REMARK    6  A    between atoms: C_13  and  O_18
REMARK    7  A    between atoms: C_17  and  O_20
REMARK    8  A    between atoms: C_24  and  C_27
REMARK    9  A    between atoms: C_29  and  O_32
REMARK                            x       y       z     vdW  Elec       q    Type
REMARK                         _______ _______ _______ _____ _____    ______ ____
ROOT
ATOM      1  C   UNL     1     -35.752  22.101   3.248  0.00  0.00    -0.006 C 
ATOM      2  C   UNL     1     -36.065  23.456   3.351  0.00  0.00    +0.069 C 
ATOM      3  C   UNL     1     -35.889  24.123   4.564  0.00  0.00    +0.139 C 
ATOM      4  C   UNL     1     -35.261  21.413   4.359  0.00  0.00    +0.033 C 
ATOM      5  C   UNL     1     -35.086  22.080   5.571  0.00  0.00    +0.136 C 
ATOM      6  C   UNL     1     -35.399  23.435   5.674  0.00  0.00    +0.073 C 
ENDROOT
BRANCH   3   7
ATOM      7  O   UNL     1     -36.190  25.446   4.687  0.00  0.00    -0.505 OA
ATOM      8  H   UNL     1     -36.979  25.710   5.118  0.00  0.00    +0.292 HD
ENDBRANCH   3   7
BRANCH   2  10
ATOM      9  O   UNL     1     -35.843  24.960   1.574  0.00  0.00    -0.286 OA
ATOM     10  C   UNL     1     -36.579  24.182   2.194  0.00  0.00    +0.201 C 
BRANCH  10  11
ATOM     11  C   UNL     1     -37.983  24.025   1.714  0.00  0.00    +0.069 C 
ATOM     12  C   UNL     1     -38.237  23.568   0.422  0.00  0.00    -0.013 C 
ATOM     13  C   UNL     1     -39.043  24.340   2.563  0.00  0.00    +0.139 C 
ATOM     14  C   UNL     1     -39.551  23.425  -0.022  0.00  0.00    +0.033 C 
ATOM     15  C   UNL     1     -40.358  24.197   2.120  0.00  0.00    +0.073 C 
ATOM     16  C   UNL     1     -37.121  23.223  -0.510  0.00  0.00    +0.031 C 
ATOM     17  C   UNL     1     -40.612  23.741   0.827  0.00  0.00    +0.136 C 
BRANCH  13  18
ATOM     18  O   UNL     1     -38.818  24.790   3.830  0.00  0.00    -0.505 OA
ATOM     19  H   UNL     1     -39.202  24.346   4.560  0.00  0.00    +0.292 HD
ENDBRANCH  13  18
BRANCH  17  20
ATOM     20  O   UNL     1     -41.895  23.601   0.395  0.00  0.00    -0.505 OA
ATOM     21  H   UNL     1     -42.143  23.921  -0.451  0.00  0.00    +0.292 HD
ENDBRANCH  17  20
ENDBRANCH  10  11
ENDBRANCH   2  10
BRANCH   5  22
ATOM     22  O   UNL     1     -34.608  21.408   6.654  0.00  0.00    -0.505 OA
ATOM     23  H   UNL     1     -35.186  20.888   7.177  0.00  0.00    +0.292 HD
ENDBRANCH   5  22
BRANCH   1  24
ATOM     24  C   UNL     1     -35.931  21.356   1.953  0.00  0.00    +0.091 C 
BRANCH  24  27
ATOM     25  O   UNL     1     -33.918  21.654   0.599  0.00  0.00    -0.425 OA
ATOM     26  O   UNL     1     -32.070  22.004  -0.678  0.00  0.00    -0.244 OA
ATOM     27  C   UNL     1     -34.656  20.780   1.435  0.00  0.00    +0.134 C 
ATOM     28  C   UNL     1     -34.219  19.545   1.716  0.00  0.00    +0.070 C 
ATOM     29  C   UNL     1     -32.973  19.104   1.154  0.00  0.00    +0.143 C 
ATOM     30  C   UNL     1     -32.726  21.265   0.048  0.00  0.00    +0.349 C 
ATOM     31  C   UNL     1     -32.251  19.902   0.362  0.00  0.00    +0.119 C 
BRANCH  29  32
ATOM     32  O   UNL     1     -32.552  17.829   1.462  0.00  0.00    -0.505 OA
ATOM     33  H   UNL     1     -32.897  17.094   0.993  0.00  0.00    +0.292 HD
ENDBRANCH  29  32
ENDBRANCH  24  27
ENDBRANCH   1  24
TORSDOF 9
ENDMDL
