MODEL 1
REMARK VINA RESULT:      -7.0      0.000      0.000
REMARK  Name = 21585556
REMARK  8 active torsions:
REMARK  status: ('A' for Active; 'I' for Inactive)
REMARK    1  A    between atoms: C_6  and  O_20
REMARK    2  A    between atoms: C_8  and  O_22
REMARK    3  A    between atoms: C_9  and  O_24
REMARK    4  A    between atoms: C_14  and  C_26
REMARK    5  A    between atoms: C_27  and  C_28
REMARK    6  A    between atoms: C_29  and  C_30
REMARK    7  A    between atoms: C_31  and  C_33
REMARK    8  A    between atoms: C_33  and  O_34
REMARK                            x       y       z     vdW  Elec       q    Type
REMARK                         _______ _______ _______ _____ _____    ______ ____
ROOT
ATOM      1  O   UNL     1     -40.365  22.715   1.869  0.00  0.00    -0.476 OA
ATOM      2  O   UNL     1     -35.773  21.733   0.027  0.00  0.00    -0.293 OA
ATOM      3  O   UNL     1     -36.905  23.999   4.292  0.00  0.00    -0.449 OA
ATOM      4  O   UNL     1     -36.856  25.324   2.396  0.00  0.00    -0.245 OA
ATOM      5  C   UNL     1     -38.182  21.959   2.551  0.00  0.00    +0.108 C 
ATOM      6  C   UNL     1     -36.888  21.216   2.124  0.00  0.00    +0.171 C 
ATOM      7  C   UNL     1     -39.409  21.648   1.649  0.00  0.00    +0.200 C 
ATOM      8  C   UNL     1     -39.152  21.524   0.129  0.00  0.00    +0.158 C 
ATOM      9  C   UNL     1     -35.591  21.658   2.854  0.00  0.00    +0.142 C 
ATOM     10  C   UNL     1     -36.753  21.259   0.600  0.00  0.00    +0.180 C 
ATOM     11  C   UNL     1     -37.917  20.701  -0.191  0.00  0.00    +0.100 C 
ATOM     12  C   UNL     1     -38.304  23.448   2.586  0.00  0.00    +0.093 C 
ATOM     13  C   UNL     1     -35.614  21.421   4.377  0.00  0.00    +0.032 C 
ATOM     14  C   UNL     1     -39.549  23.788   2.241  0.00  0.00    +0.141 C 
ATOM     15  C   UNL     1     -34.555  22.261   5.115  0.00  0.00    +0.006 C 
ATOM     16  C   UNL     1     -37.286  24.390   3.052  0.00  0.00    +0.340 C 
ATOM     17  C   UNL     1     -35.093  23.532   5.797  0.00  0.00    +0.044 C 
ATOM     18  C   UNL     1     -35.706  24.571   4.846  0.00  0.00    +0.169 C 
ATOM     19  C   UNL     1     -36.077  25.844   5.598  0.00  0.00    +0.047 C 
ENDROOT
BRANCH   6  20
ATOM     20  O   UNL     1     -37.095  19.825   2.421  0.00  0.00    -0.377 OA
ATOM     21  H   UNL     1     -37.904  19.725   2.948  0.00  0.00    +0.211 HD
ENDBRANCH   6  20
BRANCH   8  22
ATOM     22  O   UNL     1     -39.019  22.799  -0.506  0.00  0.00    -0.380 OA
ATOM     23  H   UNL     1     -38.537  23.403   0.079  0.00  0.00    +0.211 HD
ENDBRANCH   8  22
BRANCH   9  24
ATOM     24  O   UNL     1     -34.474  20.892   2.369  0.00  0.00    -0.382 OA
ATOM     25  H   UNL     1     -34.135  21.296   1.555  0.00  0.00    +0.210 HD
ENDBRANCH   9  24
BRANCH  14  26
ATOM     26  C   UNL     1     -40.166  25.077   2.226  0.00  0.00    +0.037 C 
ATOM     27  C   UNL     1     -40.809  25.605   3.281  0.00  0.00    +0.003 C 
BRANCH  27  28
ATOM     28  C   UNL     1     -41.430  26.912   3.258  0.00  0.00    +0.000 C 
ATOM     29  C   UNL     1     -42.398  27.275   4.114  0.00  0.00    +0.000 C 
BRANCH  29  30
ATOM     30  C   UNL     1     -43.072  28.556   4.115  0.00  0.00    +0.007 C 
ATOM     31  C   UNL     1     -43.390  29.253   5.214  0.00  0.00    +0.082 C 
BRANCH  31  33
ATOM     32  O   UNL     1     -45.090  30.748   4.393  0.00  0.00    -0.245 OA
ATOM     33  C   UNL     1     -44.107  30.535   5.082  0.00  0.00    +0.338 C 
BRANCH  33  34
ATOM     34  O   UNL     1     -43.492  31.458   5.859  0.00  0.00    -0.477 OA
ATOM     35  H   UNL     1     -42.703  31.237   6.313  0.00  0.00    +0.295 HD
ENDBRANCH  33  34
ENDBRANCH  31  33
ENDBRANCH  29  30
ENDBRANCH  27  28
ENDBRANCH  14  26
TORSDOF 8
ENDMDL
MODEL 2
REMARK VINA RESULT:      -6.7      4.124      9.826
REMARK  Name = 21585556
REMARK  8 active torsions:
REMARK  status: ('A' for Active; 'I' for Inactive)
REMARK    1  A    between atoms: C_6  and  O_20
REMARK    2  A    between atoms: C_8  and  O_22
REMARK    3  A    between atoms: C_9  and  O_24
REMARK    4  A    between atoms: C_14  and  C_26
REMARK    5  A    between atoms: C_27  and  C_28
REMARK    6  A    between atoms: C_29  and  C_30
REMARK    7  A    between atoms: C_31  and  C_33
REMARK    8  A    between atoms: C_33  and  O_34
REMARK                            x       y       z     vdW  Elec       q    Type
REMARK                         _______ _______ _______ _____ _____    ______ ____
ROOT
ATOM      1  O   UNL     1     -36.303  22.289   3.723  0.00  0.00    -0.476 OA
ATOM      2  O   UNL     1     -34.755  27.084   3.942  0.00  0.00    -0.293 OA
ATOM      3  O   UNL     1     -36.150  24.532  -0.076  0.00  0.00    -0.449 OA
ATOM      4  O   UNL     1     -33.946  24.294   0.589  0.00  0.00    -0.245 OA
ATOM      5  C   UNL     1     -36.790  24.470   2.824  0.00  0.00    +0.108 C 
ATOM      6  C   UNL     1     -36.750  26.001   3.074  0.00  0.00    +0.171 C 
ATOM      7  C   UNL     1     -36.712  23.621   4.123  0.00  0.00    +0.200 C 
ATOM      8  C   UNL     1     -35.753  24.116   5.231  0.00  0.00    +0.158 C 
ATOM      9  C   UNL     1     -36.605  26.883   1.805  0.00  0.00    +0.142 C 
ATOM     10  C   UNL     1     -35.697  26.318   4.139  0.00  0.00    +0.180 C 
ATOM     11  C   UNL     1     -35.856  25.611   5.468  0.00  0.00    +0.100 C 
ATOM     12  C   UNL     1     -35.762  23.739   2.020  0.00  0.00    +0.093 C 
ATOM     13  C   UNL     1     -37.773  26.747   0.807  0.00  0.00    +0.032 C 
ATOM     14  C   UNL     1     -35.580  22.527   2.550  0.00  0.00    +0.141 C 
ATOM     15  C   UNL     1     -37.399  27.250  -0.600  0.00  0.00    +0.006 C 
ATOM     16  C   UNL     1     -35.148  24.201   0.775  0.00  0.00    +0.340 C 
ATOM     17  C   UNL     1     -37.047  26.144  -1.613  0.00  0.00    +0.044 C 
ATOM     18  C   UNL     1     -35.818  25.297  -1.250  0.00  0.00    +0.169 C 
ATOM     19  C   UNL     1     -35.472  24.332  -2.377  0.00  0.00    +0.047 C 
ENDROOT
BRANCH   6  20
ATOM     20  O   UNL     1     -37.998  26.347   3.698  0.00  0.00    -0.377 OA
ATOM     21  H   UNL     1     -38.659  26.540   3.013  0.00  0.00    +0.211 HD
ENDBRANCH   6  20
BRANCH   8  22
ATOM     22  O   UNL     1     -34.387  23.797   4.952  0.00  0.00    -0.380 OA
ATOM     23  H   UNL     1     -34.321  22.869   4.681  0.00  0.00    +0.211 HD
ENDBRANCH   8  22
BRANCH   9  24
ATOM     24  O   UNL     1     -36.586  28.272   2.178  0.00  0.00    -0.382 OA
ATOM     25  H   UNL     1     -37.374  28.712   1.822  0.00  0.00    +0.210 HD
ENDBRANCH   9  24
BRANCH  14  26
ATOM     26  C   UNL     1     -34.780  21.442   2.077  0.00  0.00    +0.037 C 
ATOM     27  C   UNL     1     -35.276  20.394   1.397  0.00  0.00    +0.003 C 
BRANCH  27  28
ATOM     28  C   UNL     1     -34.459  19.299   0.921  0.00  0.00    +0.000 C 
ATOM     29  C   UNL     1     -33.287  18.966   1.482  0.00  0.00    +0.000 C 
BRANCH  29  30
ATOM     30  C   UNL     1     -32.418  17.901   1.026  0.00  0.00    +0.007 C 
ATOM     31  C   UNL     1     -31.112  18.039   0.762  0.00  0.00    +0.082 C 
BRANCH  31  33
ATOM     32  O   UNL     1     -29.198  16.900  -0.153  0.00  0.00    -0.245 OA
ATOM     33  C   UNL     1     -30.340  16.881   0.273  0.00  0.00    +0.338 C 
BRANCH  33  34
ATOM     34  O   UNL     1     -31.111  15.772   0.370  0.00  0.00    -0.477 OA
ATOM     35  H   UNL     1     -30.927  15.131   1.027  0.00  0.00    +0.295 HD
ENDBRANCH  33  34
ENDBRANCH  31  33
ENDBRANCH  29  30
ENDBRANCH  27  28
ENDBRANCH  14  26
TORSDOF 8
ENDMDL
MODEL 3
REMARK VINA RESULT:      -6.7      3.230      9.597
REMARK  Name = 21585556
REMARK  8 active torsions:
REMARK  status: ('A' for Active; 'I' for Inactive)
REMARK    1  A    between atoms: C_6  and  O_20
REMARK    2  A    between atoms: C_8  and  O_22
REMARK    3  A    between atoms: C_9  and  O_24
REMARK    4  A    between atoms: C_14  and  C_26
REMARK    5  A    between atoms: C_27  and  C_28
REMARK    6  A    between atoms: C_29  and  C_30
REMARK    7  A    between atoms: C_31  and  C_33
REMARK    8  A    between atoms: C_33  and  O_34
REMARK                            x       y       z     vdW  Elec       q    Type
REMARK                         _______ _______ _______ _____ _____    ______ ____
ROOT
ATOM      1  O   UNL     1     -36.257  22.661   4.037  0.00  0.00    -0.476 OA
ATOM      2  O   UNL     1     -36.375  26.835   1.207  0.00  0.00    -0.293 OA
ATOM      3  O   UNL     1     -39.396  22.910   0.944  0.00  0.00    -0.449 OA
ATOM      4  O   UNL     1     -37.399  22.759  -0.216  0.00  0.00    -0.245 OA
ATOM      5  C   UNL     1     -37.798  24.238   3.066  0.00  0.00    +0.108 C 
ATOM      6  C   UNL     1     -38.014  25.702   2.598  0.00  0.00    +0.171 C 
ATOM      7  C   UNL     1     -36.614  24.066   4.058  0.00  0.00    +0.200 C 
ATOM      8  C   UNL     1     -35.341  24.901   3.787  0.00  0.00    +0.158 C 
ATOM      9  C   UNL     1     -39.036  25.891   1.446  0.00  0.00    +0.142 C 
ATOM     10  C   UNL     1     -36.659  26.349   2.300  0.00  0.00    +0.180 C 
ATOM     11  C   UNL     1     -35.652  26.343   3.430  0.00  0.00    +0.100 C 
ATOM     12  C   UNL     1     -37.470  23.115   2.134  0.00  0.00    +0.093 C 
ATOM     13  C   UNL     1     -40.471  25.447   1.797  0.00  0.00    +0.032 C 
ATOM     14  C   UNL     1     -36.651  22.262   2.756  0.00  0.00    +0.141 C 
ATOM     15  C   UNL     1     -41.333  25.214   0.543  0.00  0.00    +0.006 C 
ATOM     16  C   UNL     1     -38.048  22.892   0.809  0.00  0.00    +0.340 C 
ATOM     17  C   UNL     1     -41.499  23.739   0.132  0.00  0.00    +0.044 C 
ATOM     18  C   UNL     1     -40.197  23.019  -0.248  0.00  0.00    +0.169 C 
ATOM     19  C   UNL     1     -40.484  21.617  -0.771  0.00  0.00    +0.047 C 
ENDROOT
BRANCH   6  20
ATOM     20  O   UNL     1     -38.509  26.426   3.736  0.00  0.00    -0.377 OA
ATOM     21  H   UNL     1     -39.155  25.880   4.212  0.00  0.00    +0.211 HD
ENDBRANCH   6  20
BRANCH   8  22
ATOM     22  O   UNL     1     -34.535  24.343   2.745  0.00  0.00    -0.380 OA
ATOM     23  H   UNL     1     -34.004  25.045   2.338  0.00  0.00    +0.211 HD
ENDBRANCH   8  22
BRANCH   9  24
ATOM     24  O   UNL     1     -39.144  27.287   1.116  0.00  0.00    -0.382 OA
ATOM     25  H   UNL     1     -39.640  27.747   1.812  0.00  0.00    +0.210 HD
ENDBRANCH   9  24
BRANCH  14  26
ATOM     26  C   UNL     1     -36.149  21.000   2.312  0.00  0.00    +0.037 C 
ATOM     27  C   UNL     1     -35.003  20.857   1.625  0.00  0.00    +0.003 C 
BRANCH  27  28
ATOM     28  C   UNL     1     -34.500  19.575   1.179  0.00  0.00    +0.000 C 
ATOM     29  C   UNL     1     -33.278  19.121   1.496  0.00  0.00    +0.000 C 
BRANCH  29  30
ATOM     30  C   UNL     1     -32.716  17.863   1.053  0.00  0.00    +0.007 C 
ATOM     31  C   UNL     1     -33.376  16.936   0.347  0.00  0.00    +0.082 C 
BRANCH  31  33
ATOM     32  O   UNL     1     -31.524  15.408   0.165  0.00  0.00    -0.245 OA
ATOM     33  C   UNL     1     -32.699  15.678  -0.018  0.00  0.00    +0.338 C 
BRANCH  33  34
ATOM     34  O   UNL     1     -33.600  14.852  -0.601  0.00  0.00    -0.477 OA
ATOM     35  H   UNL     1     -34.473  15.153  -0.765  0.00  0.00    +0.295 HD
ENDBRANCH  33  34
ENDBRANCH  31  33
ENDBRANCH  29  30
ENDBRANCH  27  28
ENDBRANCH  14  26
TORSDOF 8
ENDMDL
MODEL 4
REMARK VINA RESULT:      -6.7      4.111      6.803
REMARK  Name = 21585556
REMARK  8 active torsions:
REMARK  status: ('A' for Active; 'I' for Inactive)
REMARK    1  A    between atoms: C_6  and  O_20
REMARK    2  A    between atoms: C_8  and  O_22
REMARK    3  A    between atoms: C_9  and  O_24
REMARK    4  A    between atoms: C_14  and  C_26
REMARK    5  A    between atoms: C_27  and  C_28
REMARK    6  A    between atoms: C_29  and  C_30
REMARK    7  A    between atoms: C_31  and  C_33
REMARK    8  A    between atoms: C_33  and  O_34
REMARK                            x       y       z     vdW  Elec       q    Type
REMARK                         _______ _______ _______ _____ _____    ______ ____
ROOT
ATOM      1  O   UNL     1     -37.604  22.876   3.332  0.00  0.00    -0.476 OA
ATOM      2  O   UNL     1     -38.251  22.552  -1.660  0.00  0.00    -0.293 OA
ATOM      3  O   UNL     1     -35.017  20.046   1.145  0.00  0.00    -0.449 OA
ATOM      4  O   UNL     1     -34.363  22.151   0.439  0.00  0.00    -0.245 OA
ATOM      5  C   UNL     1     -37.696  21.265   1.544  0.00  0.00    +0.108 C 
ATOM      6  C   UNL     1     -38.284  20.927   0.148  0.00  0.00    +0.171 C 
ATOM      7  C   UNL     1     -38.492  22.358   2.310  0.00  0.00    +0.200 C 
ATOM      8  C   UNL     1     -39.033  23.546   1.482  0.00  0.00    +0.158 C 
ATOM      9  C   UNL     1     -37.406  20.007  -0.742  0.00  0.00    +0.142 C 
ATOM     10  C   UNL     1     -38.694  22.220  -0.561  0.00  0.00    +0.180 C 
ATOM     11  C   UNL     1     -39.674  23.106   0.178  0.00  0.00    +0.100 C 
ATOM     12  C   UNL     1     -36.318  21.810   1.748  0.00  0.00    +0.093 C 
ATOM     13  C   UNL     1     -37.156  18.607  -0.148  0.00  0.00    +0.032 C 
ATOM     14  C   UNL     1     -36.338  22.657   2.780  0.00  0.00    +0.141 C 
ATOM     15  C   UNL     1     -35.949  17.904  -0.795  0.00  0.00    +0.006 C 
ATOM     16  C   UNL     1     -35.108  21.394   1.039  0.00  0.00    +0.340 C 
ATOM     17  C   UNL     1     -34.649  17.951   0.031  0.00  0.00    +0.044 C 
ATOM     18  C   UNL     1     -34.090  19.359   0.284  0.00  0.00    +0.169 C 
ATOM     19  C   UNL     1     -32.737  19.289   0.982  0.00  0.00    +0.047 C 
ENDROOT
BRANCH   6  20
ATOM     20  O   UNL     1     -39.525  20.242   0.380  0.00  0.00    -0.377 OA
ATOM     21  H   UNL     1     -39.365  19.461   0.933  0.00  0.00    +0.211 HD
ENDBRANCH   6  20
BRANCH   8  22
ATOM     22  O   UNL     1     -38.019  24.509   1.182  0.00  0.00    -0.380 OA
ATOM     23  H   UNL     1     -37.240  24.056   0.823  0.00  0.00    +0.211 HD
ENDBRANCH   8  22
BRANCH   9  24
ATOM     24  O   UNL     1     -38.066  19.771  -1.999  0.00  0.00    -0.382 OA
ATOM     25  H   UNL     1     -37.401  19.630  -2.691  0.00  0.00    +0.210 HD
ENDBRANCH   9  24
BRANCH  14  26
ATOM     26  C   UNL     1     -35.254  23.344   3.411  0.00  0.00    +0.037 C 
ATOM     27  C   UNL     1     -35.380  24.040   4.553  0.00  0.00    +0.003 C 
BRANCH  27  28
ATOM     28  C   UNL     1     -34.278  24.731   5.187  0.00  0.00    +0.000 C 
ATOM     29  C   UNL     1     -34.397  25.953   5.728  0.00  0.00    +0.000 C 
BRANCH  29  30
ATOM     30  C   UNL     1     -33.321  26.700   6.345  0.00  0.00    +0.007 C 
ATOM     31  C   UNL     1     -32.644  27.694   5.756  0.00  0.00    +0.082 C 
BRANCH  31  33
ATOM     32  O   UNL     1     -31.523  29.516   6.862  0.00  0.00    -0.245 OA
ATOM     33  C   UNL     1     -31.545  28.358   6.482  0.00  0.00    +0.338 C 
BRANCH  33  34
ATOM     34  O   UNL     1     -30.543  27.465   6.665  0.00  0.00    -0.477 OA
ATOM     35  H   UNL     1     -30.439  26.750   6.069  0.00  0.00    +0.295 HD
ENDBRANCH  33  34
ENDBRANCH  31  33
ENDBRANCH  29  30
ENDBRANCH  27  28
ENDBRANCH  14  26
TORSDOF 8
ENDMDL
MODEL 5
REMARK VINA RESULT:      -6.4      3.766      9.738
REMARK  Name = 21585556
REMARK  8 active torsions:
REMARK  status: ('A' for Active; 'I' for Inactive)
REMARK    1  A    between atoms: C_6  and  O_20
REMARK    2  A    between atoms: C_8  and  O_22
REMARK    3  A    between atoms: C_9  and  O_24
REMARK    4  A    between atoms: C_14  and  C_26
REMARK    5  A    between atoms: C_27  and  C_28
REMARK    6  A    between atoms: C_29  and  C_30
REMARK    7  A    between atoms: C_31  and  C_33
REMARK    8  A    between atoms: C_33  and  O_34
REMARK                            x       y       z     vdW  Elec       q    Type
REMARK                         _______ _______ _______ _____ _____    ______ ____
ROOT
ATOM      1  O   UNL     1     -35.635  20.768  -0.475  0.00  0.00    -0.476 OA
ATOM      2  O   UNL     1     -39.926  21.143   2.151  0.00  0.00    -0.293 OA
ATOM      3  O   UNL     1     -35.657  23.534   2.965  0.00  0.00    -0.449 OA
ATOM      4  O   UNL     1     -35.848  21.416   3.876  0.00  0.00    -0.245 OA
ATOM      5  C   UNL     1     -37.050  22.392   0.603  0.00  0.00    +0.108 C 
ATOM      6  C   UNL     1     -38.498  22.756   1.025  0.00  0.00    +0.171 C 
ATOM      7  C   UNL     1     -36.975  21.318  -0.518  0.00  0.00    +0.200 C 
ATOM      8  C   UNL     1     -37.988  20.152  -0.444  0.00  0.00    +0.158 C 
ATOM      9  C   UNL     1     -38.622  23.656   2.284  0.00  0.00    +0.142 C 
ATOM     10  C   UNL     1     -39.338  21.480   1.124  0.00  0.00    +0.180 C 
ATOM     11  C   UNL     1     -39.395  20.619  -0.119  0.00  0.00    +0.100 C 
ATOM     12  C   UNL     1     -36.042  21.805   1.539  0.00  0.00    +0.093 C 
ATOM     13  C   UNL     1     -37.970  25.044   2.133  0.00  0.00    +0.032 C 
ATOM     14  C   UNL     1     -35.269  20.953   0.862  0.00  0.00    +0.141 C 
ATOM     15  C   UNL     1     -37.703  25.715   3.493  0.00  0.00    +0.006 C 
ATOM     16  C   UNL     1     -35.828  22.190   2.934  0.00  0.00    +0.340 C 
ATOM     17  C   UNL     1     -36.247  25.625   3.989  0.00  0.00    +0.044 C 
ATOM     18  C   UNL     1     -35.733  24.199   4.240  0.00  0.00    +0.169 C 
ATOM     19  C   UNL     1     -34.340  24.225   4.858  0.00  0.00    +0.047 C 
ENDROOT
BRANCH   6  20
ATOM     20  O   UNL     1     -39.078  23.476  -0.076  0.00  0.00    -0.377 OA
ATOM     21  H   UNL     1     -39.954  23.806   0.179  0.00  0.00    +0.211 HD
ENDBRANCH   6  20
BRANCH   8  22
ATOM     22  O   UNL     1     -37.610  19.162   0.516  0.00  0.00    -0.380 OA
ATOM     23  H   UNL     1     -37.390  18.336   0.058  0.00  0.00    +0.211 HD
ENDBRANCH   8  22
BRANCH   9  24
ATOM     24  O   UNL     1     -40.009  23.918   2.560  0.00  0.00    -0.382 OA
ATOM     25  H   UNL     1     -40.238  23.560   3.432  0.00  0.00    +0.210 HD
ENDBRANCH   9  24
BRANCH  14  26
ATOM     26  C   UNL     1     -34.115  20.231   1.299  0.00  0.00    +0.037 C 
ATOM     27  C   UNL     1     -33.822  18.984   0.893  0.00  0.00    +0.003 C 
BRANCH  27  28
ATOM     28  C   UNL     1     -32.651  18.260   1.339  0.00  0.00    +0.000 C 
ATOM     29  C   UNL     1     -31.439  18.421   0.786  0.00  0.00    +0.000 C 
BRANCH  29  30
ATOM     30  C   UNL     1     -30.244  17.701   1.174  0.00  0.00    +0.007 C 
ATOM     31  C   UNL     1     -29.007  17.983   0.743  0.00  0.00    +0.082 C 
BRANCH  31  33
ATOM     32  O   UNL     1     -27.262  16.339   0.516  0.00  0.00    -0.245 OA
ATOM     33  C   UNL     1     -27.872  17.153   1.189  0.00  0.00    +0.338 C 
BRANCH  33  34
ATOM     34  O   UNL     1     -27.608  17.438   2.486  0.00  0.00    -0.477 OA
ATOM     35  H   UNL     1     -27.007  18.123   2.701  0.00  0.00    +0.295 HD
ENDBRANCH  33  34
ENDBRANCH  31  33
ENDBRANCH  29  30
ENDBRANCH  27  28
ENDBRANCH  14  26
TORSDOF 8
ENDMDL
MODEL 6
REMARK VINA RESULT:      -6.4      4.146      9.804
REMARK  Name = 21585556
REMARK  8 active torsions:
REMARK  status: ('A' for Active; 'I' for Inactive)
REMARK    1  A    between atoms: C_6  and  O_20
REMARK    2  A    between atoms: C_8  and  O_22
REMARK    3  A    between atoms: C_9  and  O_24
REMARK    4  A    between atoms: C_14  and  C_26
REMARK    5  A    between atoms: C_27  and  C_28
REMARK    6  A    between atoms: C_29  and  C_30
REMARK    7  A    between atoms: C_31  and  C_33
REMARK    8  A    between atoms: C_33  and  O_34
REMARK                            x       y       z     vdW  Elec       q    Type
REMARK                         _______ _______ _______ _____ _____    ______ ____
ROOT
ATOM      1  O   UNL     1     -34.077  23.224  -0.412  0.00  0.00    -0.476 OA
ATOM      2  O   UNL     1     -38.656  24.918   0.855  0.00  0.00    -0.293 OA
ATOM      3  O   UNL     1     -35.046  23.385   3.891  0.00  0.00    -0.449 OA
ATOM      4  O   UNL     1     -36.424  21.748   3.011  0.00  0.00    -0.245 OA
ATOM      5  C   UNL     1     -35.189  24.629   1.198  0.00  0.00    +0.108 C 
ATOM      6  C   UNL     1     -36.396  25.566   1.469  0.00  0.00    +0.171 C 
ATOM      7  C   UNL     1     -34.881  24.426  -0.312  0.00  0.00    +0.200 C 
ATOM      8  C   UNL     1     -36.091  24.289  -1.265  0.00  0.00    +0.158 C 
ATOM      9  C   UNL     1     -36.877  25.626   2.944  0.00  0.00    +0.142 C 
ATOM     10  C   UNL     1     -37.526  25.240   0.490  0.00  0.00    +0.180 C 
ATOM     11  C   UNL     1     -37.178  25.309  -0.981  0.00  0.00    +0.100 C 
ATOM     12  C   UNL     1     -35.143  23.197   1.628  0.00  0.00    +0.093 C 
ATOM     13  C   UNL     1     -35.821  26.164   3.930  0.00  0.00    +0.032 C 
ATOM     14  C   UNL     1     -34.475  22.492   0.711  0.00  0.00    +0.141 C 
ATOM     15  C   UNL     1     -36.140  25.790   5.389  0.00  0.00    +0.006 C 
ATOM     16  C   UNL     1     -35.621  22.660   2.902  0.00  0.00    +0.340 C 
ATOM     17  C   UNL     1     -35.341  24.596   5.944  0.00  0.00    +0.044 C 
ATOM     18  C   UNL     1     -35.580  23.261   5.223  0.00  0.00    +0.169 C 
ATOM     19  C   UNL     1     -34.858  22.123   5.933  0.00  0.00    +0.047 C 
ENDROOT
BRANCH   6  20
ATOM     20  O   UNL     1     -35.978  26.890   1.099  0.00  0.00    -0.377 OA
ATOM     21  H   UNL     1     -36.045  26.993   0.136  0.00  0.00    +0.211 HD
ENDBRANCH   6  20
BRANCH   8  22
ATOM     22  O   UNL     1     -36.676  22.984  -1.219  0.00  0.00    -0.380 OA
ATOM     23  H   UNL     1     -37.626  23.063  -1.039  0.00  0.00    +0.211 HD
ENDBRANCH   8  22
BRANCH   9  24
ATOM     24  O   UNL     1     -37.991  26.529   3.055  0.00  0.00    -0.382 OA
ATOM     25  H   UNL     1     -37.749  27.272   3.630  0.00  0.00    +0.210 HD
ENDBRANCH   9  24
BRANCH  14  26
ATOM     26  C   UNL     1     -34.091  21.116   0.729  0.00  0.00    +0.037 C 
ATOM     27  C   UNL     1     -32.914  20.667   0.259  0.00  0.00    +0.003 C 
BRANCH  27  28
ATOM     28  C   UNL     1     -32.531  19.272   0.282  0.00  0.00    +0.000 C 
ATOM     29  C   UNL     1     -31.298  18.859   0.613  0.00  0.00    +0.000 C 
BRANCH  29  30
ATOM     30  C   UNL     1     -30.855  17.481   0.623  0.00  0.00    +0.007 C 
ATOM     31  C   UNL     1     -31.226  16.551  -0.267  0.00  0.00    +0.082 C 
BRANCH  31  33
ATOM     32  O   UNL     1     -29.603  14.777  -0.386  0.00  0.00    -0.245 OA
ATOM     33  C   UNL     1     -30.728  15.170  -0.130  0.00  0.00    +0.338 C 
BRANCH  33  34
ATOM     34  O   UNL     1     -31.733  14.389   0.331  0.00  0.00    -0.477 OA
ATOM     35  H   UNL     1     -31.770  13.484   0.091  0.00  0.00    +0.295 HD
ENDBRANCH  33  34
ENDBRANCH  31  33
ENDBRANCH  29  30
ENDBRANCH  27  28
ENDBRANCH  14  26
TORSDOF 8
ENDMDL
MODEL 7
REMARK VINA RESULT:      -6.3      4.124      5.941
REMARK  Name = 21585556
REMARK  8 active torsions:
REMARK  status: ('A' for Active; 'I' for Inactive)
REMARK    1  A    between atoms: C_6  and  O_20
REMARK    2  A    between atoms: C_8  and  O_22
REMARK    3  A    between atoms: C_9  and  O_24
REMARK    4  A    between atoms: C_14  and  C_26
REMARK    5  A    between atoms: C_27  and  C_28
REMARK    6  A    between atoms: C_29  and  C_30
REMARK    7  A    between atoms: C_31  and  C_33
REMARK    8  A    between atoms: C_33  and  O_34
REMARK                            x       y       z     vdW  Elec       q    Type
REMARK                         _______ _______ _______ _____ _____    ______ ____
ROOT
ATOM      1  O   UNL     1     -34.882  27.518   1.377  0.00  0.00    -0.476 OA
ATOM      2  O   UNL     1     -36.132  24.741   5.398  0.00  0.00    -0.293 OA
ATOM      3  O   UNL     1     -38.512  25.027   1.055  0.00  0.00    -0.449 OA
ATOM      4  O   UNL     1     -39.017  26.653   2.622  0.00  0.00    -0.245 OA
ATOM      5  C   UNL     1     -35.706  25.336   1.979  0.00  0.00    +0.108 C 
ATOM      6  C   UNL     1     -35.723  24.222   3.059  0.00  0.00    +0.171 C 
ATOM      7  C   UNL     1     -34.519  26.329   2.121  0.00  0.00    +0.200 C 
ATOM      8  C   UNL     1     -34.122  26.750   3.555  0.00  0.00    +0.158 C 
ATOM      9  C   UNL     1     -37.000  23.341   3.091  0.00  0.00    +0.142 C 
ATOM     10  C   UNL     1     -35.386  24.827   4.423  0.00  0.00    +0.180 C 
ATOM     11  C   UNL     1     -34.074  25.577   4.517  0.00  0.00    +0.100 C 
ATOM     12  C   UNL     1     -36.808  26.332   1.805  0.00  0.00    +0.093 C 
ATOM     13  C   UNL     1     -37.249  22.542   1.797  0.00  0.00    +0.032 C 
ATOM     14  C   UNL     1     -36.279  27.499   1.428  0.00  0.00    +0.141 C 
ATOM     15  C   UNL     1     -38.706  22.061   1.677  0.00  0.00    +0.006 C 
ATOM     16  C   UNL     1     -38.243  26.060   1.890  0.00  0.00    +0.340 C 
ATOM     17  C   UNL     1     -39.596  22.906   0.747  0.00  0.00    +0.044 C 
ATOM     18  C   UNL     1     -39.786  24.368   1.179  0.00  0.00    +0.169 C 
ATOM     19  C   UNL     1     -40.790  25.076   0.277  0.00  0.00    +0.047 C 
ENDROOT
BRANCH   6  20
ATOM     20  O   UNL     1     -34.612  23.356   2.772  0.00  0.00    -0.377 OA
ATOM     21  H   UNL     1     -34.813  22.459   3.082  0.00  0.00    +0.211 HD
ENDBRANCH   6  20
BRANCH   8  22
ATOM     22  O   UNL     1     -35.001  27.739   4.097  0.00  0.00    -0.380 OA
ATOM     23  H   UNL     1     -34.588  28.149   4.872  0.00  0.00    +0.211 HD
ENDBRANCH   8  22
BRANCH   9  24
ATOM     24  O   UNL     1     -36.883  22.352   4.129  0.00  0.00    -0.382 OA
ATOM     25  H   UNL     1     -37.093  21.477   3.766  0.00  0.00    +0.210 HD
ENDBRANCH   9  24
BRANCH  14  26
ATOM     26  C   UNL     1     -36.935  28.711   1.049  0.00  0.00    +0.037 C 
ATOM     27  C   UNL     1     -36.356  29.922   1.121  0.00  0.00    +0.003 C 
BRANCH  27  28
ATOM     28  C   UNL     1     -37.026  31.145   0.734  0.00  0.00    +0.000 C 
ATOM     29  C   UNL     1     -37.454  32.055   1.622  0.00  0.00    +0.000 C 
BRANCH  29  30
ATOM     30  C   UNL     1     -38.155  33.278   1.290  0.00  0.00    +0.007 C 
ATOM     31  C   UNL     1     -38.609  34.167   2.184  0.00  0.00    +0.082 C 
BRANCH  31  33
ATOM     32  O   UNL     1     -39.335  35.817   0.588  0.00  0.00    -0.245 OA
ATOM     33  C   UNL     1     -39.337  35.362   1.720  0.00  0.00    +0.338 C 
BRANCH  33  34
ATOM     34  O   UNL     1     -40.021  35.888   2.763  0.00  0.00    -0.477 OA
ATOM     35  H   UNL     1     -39.693  35.788   3.635  0.00  0.00    +0.295 HD
ENDBRANCH  33  34
ENDBRANCH  31  33
ENDBRANCH  29  30
ENDBRANCH  27  28
ENDBRANCH  14  26
TORSDOF 8
ENDMDL
MODEL 8
REMARK VINA RESULT:      -6.2      1.852      2.092
REMARK  Name = 21585556
REMARK  8 active torsions:
REMARK  status: ('A' for Active; 'I' for Inactive)
REMARK    1  A    between atoms: C_6  and  O_20
REMARK    2  A    between atoms: C_8  and  O_22
REMARK    3  A    between atoms: C_9  and  O_24
REMARK    4  A    between atoms: C_14  and  C_26
REMARK    5  A    between atoms: C_27  and  C_28
REMARK    6  A    between atoms: C_29  and  C_30
REMARK    7  A    between atoms: C_31  and  C_33
REMARK    8  A    between atoms: C_33  and  O_34
REMARK                            x       y       z     vdW  Elec       q    Type
REMARK                         _______ _______ _______ _____ _____    ______ ____
ROOT
ATOM      1  O   UNL     1     -40.438  22.456   1.789  0.00  0.00    -0.476 OA
ATOM      2  O   UNL     1     -35.812  21.635  -0.047  0.00  0.00    -0.293 OA
ATOM      3  O   UNL     1     -37.034  23.976   4.152  0.00  0.00    -0.449 OA
ATOM      4  O   UNL     1     -37.055  25.243   2.216  0.00  0.00    -0.245 OA
ATOM      5  C   UNL     1     -38.219  21.825   2.482  0.00  0.00    +0.108 C 
ATOM      6  C   UNL     1     -36.893  21.131   2.071  0.00  0.00    +0.171 C 
ATOM      7  C   UNL     1     -39.433  21.429   1.597  0.00  0.00    +0.200 C 
ATOM      8  C   UNL     1     -39.177  21.271   0.080  0.00  0.00    +0.158 C 
ATOM      9  C   UNL     1     -35.616  21.657   2.780  0.00  0.00    +0.142 C 
ATOM     10  C   UNL     1     -36.766  21.134   0.546  0.00  0.00    +0.180 C 
ATOM     11  C   UNL     1     -37.906  20.497  -0.221  0.00  0.00    +0.100 C 
ATOM     12  C   UNL     1     -38.412  23.308   2.471  0.00  0.00    +0.093 C 
ATOM     13  C   UNL     1     -35.621  21.466   4.310  0.00  0.00    +0.032 C 
ATOM     14  C   UNL     1     -39.672  23.577   2.124  0.00  0.00    +0.141 C 
ATOM     15  C   UNL     1     -34.601  22.378   5.016  0.00  0.00    +0.006 C 
ATOM     16  C   UNL     1     -37.438  24.311   2.903  0.00  0.00    +0.340 C 
ATOM     17  C   UNL     1     -35.196  23.643   5.661  0.00  0.00    +0.044 C 
ATOM     18  C   UNL     1     -35.861  24.622   4.682  0.00  0.00    +0.169 C 
ATOM     19  C   UNL     1     -36.289  25.898   5.396  0.00  0.00    +0.047 C 
ENDROOT
BRANCH   6  20
ATOM     20  O   UNL     1     -37.033  19.743   2.412  0.00  0.00    -0.377 OA
ATOM     21  H   UNL     1     -37.201  19.227   1.607  0.00  0.00    +0.211 HD
ENDBRANCH   6  20
BRANCH   8  22
ATOM     22  O   UNL     1     -39.107  22.529  -0.595  0.00  0.00    -0.380 OA
ATOM     23  H   UNL     1     -38.369  22.518  -1.224  0.00  0.00    +0.211 HD
ENDBRANCH   8  22
BRANCH   9  24
ATOM     24  O   UNL     1     -34.466  20.930   2.313  0.00  0.00    -0.382 OA
ATOM     25  H   UNL     1     -33.677  21.231   2.792  0.00  0.00    +0.210 HD
ENDBRANCH   9  24
BRANCH  14  26
ATOM     26  C   UNL     1     -40.350  24.834   2.072  0.00  0.00    +0.037 C 
ATOM     27  C   UNL     1     -41.516  25.023   1.431  0.00  0.00    +0.003 C 
BRANCH  27  28
ATOM     28  C   UNL     1     -42.197  26.299   1.384  0.00  0.00    +0.000 C 
ATOM     29  C   UNL     1     -41.627  27.413   0.900  0.00  0.00    +0.000 C 
BRANCH  29  30
ATOM     30  C   UNL     1     -42.252  28.719   0.857  0.00  0.00    +0.007 C 
ATOM     31  C   UNL     1     -41.701  29.814   0.318  0.00  0.00    +0.082 C 
BRANCH  31  33
ATOM     32  O   UNL     1     -42.452  31.948  -0.505  0.00  0.00    -0.245 OA
ATOM     33  C   UNL     1     -42.429  31.096   0.366  0.00  0.00    +0.338 C 
BRANCH  33  34
ATOM     34  O   UNL     1     -43.078  31.183   1.551  0.00  0.00    -0.477 OA
ATOM     35  H   UNL     1     -42.789  31.794   2.199  0.00  0.00    +0.295 HD
ENDBRANCH  33  34
ENDBRANCH  31  33
ENDBRANCH  29  30
ENDBRANCH  27  28
ENDBRANCH  14  26
TORSDOF 8
ENDMDL
MODEL 9
REMARK VINA RESULT:      -6.1      1.392      4.182
REMARK  Name = 21585556
REMARK  8 active torsions:
REMARK  status: ('A' for Active; 'I' for Inactive)
REMARK    1  A    between atoms: C_6  and  O_20
REMARK    2  A    between atoms: C_8  and  O_22
REMARK    3  A    between atoms: C_9  and  O_24
REMARK    4  A    between atoms: C_14  and  C_26
REMARK    5  A    between atoms: C_27  and  C_28
REMARK    6  A    between atoms: C_29  and  C_30
REMARK    7  A    between atoms: C_31  and  C_33
REMARK    8  A    between atoms: C_33  and  O_34
REMARK                            x       y       z     vdW  Elec       q    Type
REMARK                         _______ _______ _______ _____ _____    ______ ____
ROOT
ATOM      1  O   UNL     1     -37.433  26.410   2.107  0.00  0.00    -0.476 OA
ATOM      2  O   UNL     1     -36.210  22.447   4.979  0.00  0.00    -0.293 OA
ATOM      3  O   UNL     1     -38.795  22.438   0.745  0.00  0.00    -0.449 OA
ATOM      4  O   UNL     1     -39.984  22.866   2.684  0.00  0.00    -0.245 OA
ATOM      5  C   UNL     1     -36.671  24.130   1.948  0.00  0.00    +0.108 C 
ATOM      6  C   UNL     1     -35.868  22.993   2.634  0.00  0.00    +0.171 C 
ATOM      7  C   UNL     1     -36.329  25.548   2.483  0.00  0.00    +0.200 C 
ATOM      8  C   UNL     1     -36.094  25.689   4.005  0.00  0.00    +0.158 C 
ATOM      9  C   UNL     1     -36.327  21.550   2.293  0.00  0.00    +0.142 C 
ATOM     10  C   UNL     1     -35.802  23.251   4.142  0.00  0.00    +0.180 C 
ATOM     11  C   UNL     1     -35.220  24.583   4.567  0.00  0.00    +0.100 C 
ATOM     12  C   UNL     1     -38.163  24.230   1.994  0.00  0.00    +0.093 C 
ATOM     13  C   UNL     1     -36.198  21.184   0.801  0.00  0.00    +0.032 C 
ATOM     14  C   UNL     1     -38.508  25.519   2.034  0.00  0.00    +0.141 C 
ATOM     15  C   UNL     1     -37.060  19.966   0.421  0.00  0.00    +0.006 C 
ATOM     16  C   UNL     1     -39.109  23.120   1.873  0.00  0.00    +0.340 C 
ATOM     17  C   UNL     1     -38.390  20.304  -0.280  0.00  0.00    +0.044 C 
ATOM     18  C   UNL     1     -39.375  21.133   0.558  0.00  0.00    +0.169 C 
ATOM     19  C   UNL     1     -40.706  21.291  -0.167  0.00  0.00    +0.047 C 
ENDROOT
BRANCH   6  20
ATOM     20  O   UNL     1     -34.508  23.126   2.192  0.00  0.00    -0.377 OA
ATOM     21  H   UNL     1     -34.464  23.778   1.475  0.00  0.00    +0.211 HD
ENDBRANCH   6  20
BRANCH   8  22
ATOM     22  O   UNL     1     -37.317  25.715   4.746  0.00  0.00    -0.380 OA
ATOM     23  H   UNL     1     -37.226  26.321   5.498  0.00  0.00    +0.211 HD
ENDBRANCH   8  22
BRANCH   9  24
ATOM     24  O   UNL     1     -35.502  20.599   2.988  0.00  0.00    -0.382 OA
ATOM     25  H   UNL     1     -35.869  19.708   2.874  0.00  0.00    +0.210 HD
ENDBRANCH   9  24
BRANCH  14  26
ATOM     26  C   UNL     1     -39.808  26.111   1.987  0.00  0.00    +0.037 C 
ATOM     27  C   UNL     1     -40.616  26.215   3.056  0.00  0.00    +0.003 C 
BRANCH  27  28
ATOM     28  C   UNL     1     -41.930  26.817   3.002  0.00  0.00    +0.000 C 
ATOM     29  C   UNL     1     -42.394  27.645   3.951  0.00  0.00    +0.000 C 
BRANCH  29  30
ATOM     30  C   UNL     1     -43.709  28.249   3.959  0.00  0.00    +0.007 C 
ATOM     31  C   UNL     1     -44.111  29.196   4.817  0.00  0.00    +0.082 C 
BRANCH  31  33
ATOM     32  O   UNL     1     -46.144  30.171   5.664  0.00  0.00    -0.245 OA
ATOM     33  C   UNL     1     -45.491  29.711   4.743  0.00  0.00    +0.338 C 
BRANCH  33  34
ATOM     34  O   UNL     1     -45.932  29.590   3.468  0.00  0.00    -0.477 OA
ATOM     35  H   UNL     1     -45.316  29.527   2.764  0.00  0.00    +0.295 HD
ENDBRANCH  33  34
ENDBRANCH  31  33
ENDBRANCH  29  30
ENDBRANCH  27  28
ENDBRANCH  14  26
TORSDOF 8
ENDMDL
