MODEL 1
REMARK VINA RESULT:      -5.5      0.000      0.000
REMARK  Name = 191327
REMARK  5 active torsions:
REMARK  status: ('A' for Active; 'I' for Inactive)
REMARK    1  A    between atoms: C_1  and  O_13
REMARK    2  A    between atoms: C_2  and  N_9
REMARK    3  A    between atoms: C_3  and  N_12
REMARK    4  A    between atoms: O_13  and  C_15
REMARK    5  A    between atoms: C_15  and  C_16
REMARK                            x       y       z     vdW  Elec       q    Type
REMARK                         _______ _______ _______ _____ _____    ______ ____
ROOT
ATOM      1  C   UNL     1     -36.195  23.923   4.194  0.00  0.00    +0.171 C 
ATOM      2  C   UNL     1     -35.291  23.689   5.230  0.00  0.00    +0.179 C 
ATOM      3  C   UNL     1     -34.402  25.919   4.958  0.00  0.00    +0.145 C 
ATOM      4  C   UNL     1     -34.394  24.687   5.612  0.00  0.00    +0.051 C 
ATOM      5  C   UNL     1     -36.203  25.155   3.541  0.00  0.00    +0.041 C 
ATOM      6  C   UNL     1     -35.306  26.154   3.923  0.00  0.00    +0.027 C 
ENDROOT
BRANCH   2   9
ATOM      7  O   UNL     1     -34.311  21.656   5.702  0.00  0.00    -0.126 OA
ATOM      8  O   UNL     1     -36.207  22.156   6.689  0.00  0.00    -0.126 OA
ATOM      9  N   UNL     1     -35.269  22.438   5.907  0.00  0.00    +0.061 N 
ENDBRANCH   2   9
BRANCH   3  12
ATOM     10  O   UNL     1     -32.818  26.781   6.396  0.00  0.00    -0.126 OA
ATOM     11  O   UNL     1     -33.380  27.960   4.632  0.00  0.00    -0.126 OA
ATOM     12  N   UNL     1     -33.489  26.936   5.347  0.00  0.00    +0.058 N 
ENDBRANCH   3  12
BRANCH   1  13
ATOM     13  O   UNL     1     -37.082  22.964   3.803  0.00  0.00    -0.420 OA
BRANCH  13  15
ATOM     14  O   UNL     1     -37.818  22.868   1.596  0.00  0.00    -0.245 OA
ATOM     15  C   UNL     1     -36.987  22.602   2.455  0.00  0.00    +0.342 C 
BRANCH  15  16
ATOM     16  C   UNL     1     -35.739  21.840   2.158  0.00  0.00    +0.054 C 
ATOM     17  C   UNL     1     -34.738  22.530   1.281  0.00  0.00    +0.038 C 
ATOM     18  C   UNL     1     -35.523  20.609   2.646  0.00  0.00    +0.002 C 
ENDBRANCH  15  16
ENDBRANCH  13  15
ENDBRANCH   1  13
TORSDOF 5
ENDMDL
MODEL 2
REMARK VINA RESULT:      -5.4      1.224      2.047
REMARK  Name = 191327
REMARK  5 active torsions:
REMARK  status: ('A' for Active; 'I' for Inactive)
REMARK    1  A    between atoms: C_1  and  O_13
REMARK    2  A    between atoms: C_2  and  N_9
REMARK    3  A    between atoms: C_3  and  N_12
REMARK    4  A    between atoms: O_13  and  C_15
REMARK    5  A    between atoms: C_15  and  C_16
REMARK                            x       y       z     vdW  Elec       q    Type
REMARK                         _______ _______ _______ _____ _____    ______ ____
ROOT
ATOM      1  C   UNL     1     -36.580  24.111   4.154  0.00  0.00    +0.171 C 
ATOM      2  C   UNL     1     -35.585  23.683   5.033  0.00  0.00    +0.179 C 
ATOM      3  C   UNL     1     -34.595  25.886   4.986  0.00  0.00    +0.145 C 
ATOM      4  C   UNL     1     -34.593  24.570   5.449  0.00  0.00    +0.051 C 
ATOM      5  C   UNL     1     -36.582  25.427   3.691  0.00  0.00    +0.041 C 
ATOM      6  C   UNL     1     -35.589  26.315   4.107  0.00  0.00    +0.027 C 
ENDROOT
BRANCH   2   9
ATOM      7  O   UNL     1     -36.035  22.105   6.653  0.00  0.00    -0.126 OA
ATOM      8  O   UNL     1     -35.088  21.445   4.786  0.00  0.00    -0.126 OA
ATOM      9  N   UNL     1     -35.568  22.345   5.515  0.00  0.00    +0.061 N 
ENDBRANCH   2   9
BRANCH   3  12
ATOM     10  O   UNL     1     -32.980  26.566   6.486  0.00  0.00    -0.126 OA
ATOM     11  O   UNL     1     -33.325  27.789   4.696  0.00  0.00    -0.126 OA
ATOM     12  N   UNL     1     -33.585  26.790   5.410  0.00  0.00    +0.058 N 
ENDBRANCH   3  12
BRANCH   1  13
ATOM     13  O   UNL     1     -37.561  23.263   3.734  0.00  0.00    -0.420 OA
BRANCH  13  15
ATOM     14  O   UNL     1     -36.392  22.515   1.864  0.00  0.00    -0.245 OA
ATOM     15  C   UNL     1     -37.439  22.851   2.402  0.00  0.00    +0.342 C 
BRANCH  15  16
ATOM     16  C   UNL     1     -38.747  22.861   1.683  0.00  0.00    +0.054 C 
ATOM     17  C   UNL     1     -39.608  21.647   1.863  0.00  0.00    +0.038 C 
ATOM     18  C   UNL     1     -39.132  23.895   0.919  0.00  0.00    +0.002 C 
ENDBRANCH  15  16
ENDBRANCH  13  15
ENDBRANCH   1  13
TORSDOF 5
ENDMDL
MODEL 3
REMARK VINA RESULT:      -5.2      2.738      5.474
REMARK  Name = 191327
REMARK  5 active torsions:
REMARK  status: ('A' for Active; 'I' for Inactive)
REMARK    1  A    between atoms: C_1  and  O_13
REMARK    2  A    between atoms: C_2  and  N_9
REMARK    3  A    between atoms: C_3  and  N_12
REMARK    4  A    between atoms: O_13  and  C_15
REMARK    5  A    between atoms: C_15  and  C_16
REMARK                            x       y       z     vdW  Elec       q    Type
REMARK                         _______ _______ _______ _____ _____    ______ ____
ROOT
ATOM      1  C   UNL     1     -36.025  23.374   2.999  0.00  0.00    +0.171 C 
ATOM      2  C   UNL     1     -36.355  22.051   2.706  0.00  0.00    +0.179 C 
ATOM      3  C   UNL     1     -38.627  22.721   2.238  0.00  0.00    +0.145 C 
ATOM      4  C   UNL     1     -37.656  21.725   2.325  0.00  0.00    +0.051 C 
ATOM      5  C   UNL     1     -36.996  24.371   2.912  0.00  0.00    +0.041 C 
ATOM      6  C   UNL     1     -38.299  24.044   2.531  0.00  0.00    +0.027 C 
ENDROOT
BRANCH   2   9
ATOM      7  O   UNL     1     -35.143  20.498   3.904  0.00  0.00    -0.126 OA
ATOM      8  O   UNL     1     -34.777  20.669   1.747  0.00  0.00    -0.126 OA
ATOM      9  N   UNL     1     -35.376  21.022   2.790  0.00  0.00    +0.061 N 
ENDBRANCH   2   9
BRANCH   3  12
ATOM     10  O   UNL     1     -40.323  21.192   1.911  0.00  0.00    -0.126 OA
ATOM     11  O   UNL     1     -40.717  23.303   1.455  0.00  0.00    -0.126 OA
ATOM     12  N   UNL     1     -39.953  22.389   1.849  0.00  0.00    +0.058 N 
ENDBRANCH   3  12
BRANCH   1  13
ATOM     13  O   UNL     1     -34.759  23.718   3.373  0.00  0.00    -0.420 OA
BRANCH  13  15
ATOM     14  O   UNL     1     -34.972  23.461   5.678  0.00  0.00    -0.245 OA
ATOM     15  C   UNL     1     -34.640  24.127   4.706  0.00  0.00    +0.342 C 
BRANCH  15  16
ATOM     16  C   UNL     1     -34.053  25.494   4.830  0.00  0.00    +0.054 C 
ATOM     17  C   UNL     1     -33.499  26.090   3.570  0.00  0.00    +0.038 C 
ATOM     18  C   UNL     1     -34.023  26.153   5.998  0.00  0.00    +0.002 C 
ENDBRANCH  15  16
ENDBRANCH  13  15
ENDBRANCH   1  13
TORSDOF 5
ENDMDL
MODEL 4
REMARK VINA RESULT:      -5.1      2.303      5.061
REMARK  Name = 191327
REMARK  5 active torsions:
REMARK  status: ('A' for Active; 'I' for Inactive)
REMARK    1  A    between atoms: C_1  and  O_13
REMARK    2  A    between atoms: C_2  and  N_9
REMARK    3  A    between atoms: C_3  and  N_12
REMARK    4  A    between atoms: O_13  and  C_15
REMARK    5  A    between atoms: C_15  and  C_16
REMARK                            x       y       z     vdW  Elec       q    Type
REMARK                         _______ _______ _______ _____ _____    ______ ____
ROOT
ATOM      1  C   UNL     1     -36.929  22.957   3.499  0.00  0.00    +0.171 C 
ATOM      2  C   UNL     1     -35.904  22.217   4.088  0.00  0.00    +0.179 C 
ATOM      3  C   UNL     1     -35.755  20.845   2.105  0.00  0.00    +0.145 C 
ATOM      4  C   UNL     1     -35.317  21.161   3.391  0.00  0.00    +0.051 C 
ATOM      5  C   UNL     1     -37.368  22.640   2.213  0.00  0.00    +0.041 C 
ATOM      6  C   UNL     1     -36.780  21.584   1.516  0.00  0.00    +0.027 C 
ENDROOT
BRANCH   2   9
ATOM      7  O   UNL     1     -36.088  22.093   6.382  0.00  0.00    -0.126 OA
ATOM      8  O   UNL     1     -34.410  23.221   5.529  0.00  0.00    -0.126 OA
ATOM      9  N   UNL     1     -35.445  22.526   5.398  0.00  0.00    +0.061 N 
ENDBRANCH   2   9
BRANCH   3  12
ATOM     10  O   UNL     1     -35.801  19.221   0.469  0.00  0.00    -0.126 OA
ATOM     11  O   UNL     1     -34.002  19.399   1.714  0.00  0.00    -0.126 OA
ATOM     12  N   UNL     1     -35.157  19.770   1.395  0.00  0.00    +0.058 N 
ENDBRANCH   3  12
BRANCH   1  13
ATOM     13  O   UNL     1     -37.519  23.994   4.160  0.00  0.00    -0.420 OA
BRANCH  13  15
ATOM     14  O   UNL     1     -38.169  25.791   2.829  0.00  0.00    -0.245 OA
ATOM     15  C   UNL     1     -37.346  25.241   3.551  0.00  0.00    +0.342 C 
BRANCH  15  16
ATOM     16  C   UNL     1     -36.024  25.853   3.874  0.00  0.00    +0.054 C 
ATOM     17  C   UNL     1     -35.796  26.207   5.314  0.00  0.00    +0.038 C 
ATOM     18  C   UNL     1     -35.092  26.075   2.936  0.00  0.00    +0.002 C 
ENDBRANCH  15  16
ENDBRANCH  13  15
ENDBRANCH   1  13
TORSDOF 5
ENDMDL
MODEL 5
REMARK VINA RESULT:      -5.0      1.974      3.328
REMARK  Name = 191327
REMARK  5 active torsions:
REMARK  status: ('A' for Active; 'I' for Inactive)
REMARK    1  A    between atoms: C_1  and  O_13
REMARK    2  A    between atoms: C_2  and  N_9
REMARK    3  A    between atoms: C_3  and  N_12
REMARK    4  A    between atoms: O_13  and  C_15
REMARK    5  A    between atoms: C_15  and  C_16
REMARK                            x       y       z     vdW  Elec       q    Type
REMARK                         _______ _______ _______ _____ _____    ______ ____
ROOT
ATOM      1  C   UNL     1     -35.760  25.354   4.625  0.00  0.00    +0.171 C 
ATOM      2  C   UNL     1     -35.599  26.190   3.521  0.00  0.00    +0.179 C 
ATOM      3  C   UNL     1     -33.632  27.154   4.538  0.00  0.00    +0.145 C 
ATOM      4  C   UNL     1     -34.535  27.090   3.477  0.00  0.00    +0.051 C 
ATOM      5  C   UNL     1     -34.857  25.417   5.686  0.00  0.00    +0.041 C 
ATOM      6  C   UNL     1     -33.792  26.318   5.642  0.00  0.00    +0.027 C 
ENDROOT
BRANCH   2   9
ATOM      7  O   UNL     1     -36.173  25.536   1.386  0.00  0.00    -0.126 OA
ATOM      8  O   UNL     1     -37.628  26.696   2.549  0.00  0.00    -0.126 OA
ATOM      9  N   UNL     1     -36.512  26.139   2.431  0.00  0.00    +0.061 N 
ENDBRANCH   2   9
BRANCH   3  12
ATOM     10  O   UNL     1     -32.750  29.268   4.805  0.00  0.00    -0.126 OA
ATOM     11  O   UNL     1     -31.416  27.656   4.143  0.00  0.00    -0.126 OA
ATOM     12  N   UNL     1     -32.547  28.070   4.493  0.00  0.00    +0.058 N 
ENDBRANCH   3  12
BRANCH   1  13
ATOM     13  O   UNL     1     -36.793  24.465   4.691  0.00  0.00    -0.420 OA
BRANCH  13  15
ATOM     14  O   UNL     1     -36.052  22.433   5.554  0.00  0.00    -0.245 OA
ATOM     15  C   UNL     1     -36.408  23.123   4.607  0.00  0.00    +0.342 C 
BRANCH  15  16
ATOM     16  C   UNL     1     -36.473  22.599   3.211  0.00  0.00    +0.054 C 
ATOM     17  C   UNL     1     -37.827  22.612   2.566  0.00  0.00    +0.038 C 
ATOM     18  C   UNL     1     -35.387  22.144   2.569  0.00  0.00    +0.002 C 
ENDBRANCH  15  16
ENDBRANCH  13  15
ENDBRANCH   1  13
TORSDOF 5
ENDMDL
MODEL 6
REMARK VINA RESULT:      -5.0      1.823      3.036
REMARK  Name = 191327
REMARK  5 active torsions:
REMARK  status: ('A' for Active; 'I' for Inactive)
REMARK    1  A    between atoms: C_1  and  O_13
REMARK    2  A    between atoms: C_2  and  N_9
REMARK    3  A    between atoms: C_3  and  N_12
REMARK    4  A    between atoms: O_13  and  C_15
REMARK    5  A    between atoms: C_15  and  C_16
REMARK                            x       y       z     vdW  Elec       q    Type
REMARK                         _______ _______ _______ _____ _____    ______ ____
ROOT
ATOM      1  C   UNL     1     -35.643  23.422   3.811  0.00  0.00    +0.171 C 
ATOM      2  C   UNL     1     -35.008  24.261   2.896  0.00  0.00    +0.179 C 
ATOM      3  C   UNL     1     -34.235  25.655   4.710  0.00  0.00    +0.145 C 
ATOM      4  C   UNL     1     -34.304  25.377   3.345  0.00  0.00    +0.051 C 
ATOM      5  C   UNL     1     -35.575  23.700   5.176  0.00  0.00    +0.041 C 
ATOM      6  C   UNL     1     -34.870  24.818   5.626  0.00  0.00    +0.027 C 
ENDROOT
BRANCH   2   9
ATOM      7  O   UNL     1     -36.102  24.310   0.867  0.00  0.00    -0.126 OA
ATOM      8  O   UNL     1     -34.085  23.447   0.945  0.00  0.00    -0.126 OA
ATOM      9  N   UNL     1     -35.068  23.992   1.500  0.00  0.00    +0.061 N 
ENDBRANCH   2   9
BRANCH   3  12
ATOM     10  O   UNL     1     -33.479  27.819   4.448  0.00  0.00    -0.126 OA
ATOM     11  O   UNL     1     -32.941  26.739   6.281  0.00  0.00    -0.126 OA
ATOM     12  N   UNL     1     -33.517  26.793   5.169  0.00  0.00    +0.058 N 
ENDBRANCH   3  12
BRANCH   1  13
ATOM     13  O   UNL     1     -36.338  22.324   3.396  0.00  0.00    -0.420 OA
BRANCH  13  15
ATOM     14  O   UNL     1     -35.109  20.650   4.451  0.00  0.00    -0.245 OA
ATOM     15  C   UNL     1     -35.612  21.129   3.442  0.00  0.00    +0.342 C 
BRANCH  15  16
ATOM     16  C   UNL     1     -35.507  20.476   2.105  0.00  0.00    +0.054 C 
ATOM     17  C   UNL     1     -36.727  20.556   1.235  0.00  0.00    +0.038 C 
ATOM     18  C   UNL     1     -34.389  19.854   1.700  0.00  0.00    +0.002 C 
ENDBRANCH  15  16
ENDBRANCH  13  15
ENDBRANCH   1  13
TORSDOF 5
ENDMDL
MODEL 7
REMARK VINA RESULT:      -5.0      1.660      2.717
REMARK  Name = 191327
REMARK  5 active torsions:
REMARK  status: ('A' for Active; 'I' for Inactive)
REMARK    1  A    between atoms: C_1  and  O_13
REMARK    2  A    between atoms: C_2  and  N_9
REMARK    3  A    between atoms: C_3  and  N_12
REMARK    4  A    between atoms: O_13  and  C_15
REMARK    5  A    between atoms: C_15  and  C_16
REMARK                            x       y       z     vdW  Elec       q    Type
REMARK                         _______ _______ _______ _____ _____    ______ ____
ROOT
ATOM      1  C   UNL     1     -36.006  23.541   4.263  0.00  0.00    +0.171 C 
ATOM      2  C   UNL     1     -36.447  24.838   4.000  0.00  0.00    +0.179 C 
ATOM      3  C   UNL     1     -34.506  25.728   5.128  0.00  0.00    +0.145 C 
ATOM      4  C   UNL     1     -35.697  25.931   4.432  0.00  0.00    +0.051 C 
ATOM      5  C   UNL     1     -34.814  23.338   4.959  0.00  0.00    +0.041 C 
ATOM      6  C   UNL     1     -34.063  24.432   5.391  0.00  0.00    +0.027 C 
ENDROOT
BRANCH   2   9
ATOM      7  O   UNL     1     -37.612  25.606   2.164  0.00  0.00    -0.126 OA
ATOM      8  O   UNL     1     -38.742  24.709   3.818  0.00  0.00    -0.126 OA
ATOM      9  N   UNL     1     -37.660  25.063   3.292  0.00  0.00    +0.061 N 
ENDBRANCH   2   9
BRANCH   3  12
ATOM     10  O   UNL     1     -33.302  26.851   6.744  0.00  0.00    -0.126 OA
ATOM     11  O   UNL     1     -33.526  27.785   4.770  0.00  0.00    -0.126 OA
ATOM     12  N   UNL     1     -33.741  26.841   5.568  0.00  0.00    +0.058 N 
ENDBRANCH   3  12
BRANCH   1  13
ATOM     13  O   UNL     1     -36.721  22.456   3.850  0.00  0.00    -0.420 OA
BRANCH  13  15
ATOM     14  O   UNL     1     -35.554  20.524   3.277  0.00  0.00    -0.245 OA
ATOM     15  C   UNL     1     -36.034  21.609   2.974  0.00  0.00    +0.342 C 
BRANCH  15  16
ATOM     16  C   UNL     1     -35.939  22.173   1.595  0.00  0.00    +0.054 C 
ATOM     17  C   UNL     1     -37.237  22.342   0.862  0.00  0.00    +0.038 C 
ATOM     18  C   UNL     1     -34.765  22.511   1.042  0.00  0.00    +0.002 C 
ENDBRANCH  15  16
ENDBRANCH  13  15
ENDBRANCH   1  13
TORSDOF 5
ENDMDL
MODEL 8
REMARK VINA RESULT:      -5.0      2.588      5.171
REMARK  Name = 191327
REMARK  5 active torsions:
REMARK  status: ('A' for Active; 'I' for Inactive)
REMARK    1  A    between atoms: C_1  and  O_13
REMARK    2  A    between atoms: C_2  and  N_9
REMARK    3  A    between atoms: C_3  and  N_12
REMARK    4  A    between atoms: O_13  and  C_15
REMARK    5  A    between atoms: C_15  and  C_16
REMARK                            x       y       z     vdW  Elec       q    Type
REMARK                         _______ _______ _______ _____ _____    ______ ____
ROOT
ATOM      1  C   UNL     1     -37.073  23.092   3.394  0.00  0.00    +0.171 C 
ATOM      2  C   UNL     1     -36.010  22.435   4.014  0.00  0.00    +0.179 C 
ATOM      3  C   UNL     1     -35.853  20.922   2.138  0.00  0.00    +0.145 C 
ATOM      4  C   UNL     1     -35.400  21.349   3.385  0.00  0.00    +0.051 C 
ATOM      5  C   UNL     1     -37.526  22.664   2.147  0.00  0.00    +0.041 C 
ATOM      6  C   UNL     1     -36.915  21.578   1.518  0.00  0.00    +0.027 C 
ENDROOT
BRANCH   2   9
ATOM      7  O   UNL     1     -36.018  22.332   6.317  0.00  0.00    -0.126 OA
ATOM      8  O   UNL     1     -34.650  23.742   5.339  0.00  0.00    -0.126 OA
ATOM      9  N   UNL     1     -35.536  22.858   5.286  0.00  0.00    +0.061 N 
ENDBRANCH   2   9
BRANCH   3  12
ATOM     10  O   UNL     1     -35.848  19.219   0.582  0.00  0.00    -0.126 OA
ATOM     11  O   UNL     1     -34.084  19.468   1.864  0.00  0.00    -0.126 OA
ATOM     12  N   UNL     1     -35.231  19.816   1.497  0.00  0.00    +0.058 N 
ENDBRANCH   3  12
BRANCH   1  13
ATOM     13  O   UNL     1     -37.685  24.156   3.988  0.00  0.00    -0.420 OA
BRANCH  13  15
ATOM     14  O   UNL     1     -36.306  25.989   3.588  0.00  0.00    -0.245 OA
ATOM     15  C   UNL     1     -37.365  25.397   3.426  0.00  0.00    +0.342 C 
BRANCH  15  16
ATOM     16  C   UNL     1     -38.471  25.942   2.586  0.00  0.00    +0.054 C 
ATOM     17  C   UNL     1     -38.058  26.660   1.336  0.00  0.00    +0.038 C 
ATOM     18  C   UNL     1     -39.761  25.800   2.927  0.00  0.00    +0.002 C 
ENDBRANCH  15  16
ENDBRANCH  13  15
ENDBRANCH   1  13
TORSDOF 5
ENDMDL
MODEL 9
REMARK VINA RESULT:      -5.0      3.253      6.270
REMARK  Name = 191327
REMARK  5 active torsions:
REMARK  status: ('A' for Active; 'I' for Inactive)
REMARK    1  A    between atoms: C_1  and  O_13
REMARK    2  A    between atoms: C_2  and  N_9
REMARK    3  A    between atoms: C_3  and  N_12
REMARK    4  A    between atoms: O_13  and  C_15
REMARK    5  A    between atoms: C_15  and  C_16
REMARK                            x       y       z     vdW  Elec       q    Type
REMARK                         _______ _______ _______ _____ _____    ______ ____
ROOT
ATOM      1  C   UNL     1     -36.828  21.935   2.882  0.00  0.00    +0.171 C 
ATOM      2  C   UNL     1     -37.687  21.543   1.855  0.00  0.00    +0.179 C 
ATOM      3  C   UNL     1     -36.062  19.915   1.117  0.00  0.00    +0.145 C 
ATOM      4  C   UNL     1     -37.304  20.533   0.973  0.00  0.00    +0.051 C 
ATOM      5  C   UNL     1     -35.586  21.317   3.026  0.00  0.00    +0.041 C 
ATOM      6  C   UNL     1     -35.203  20.306   2.144  0.00  0.00    +0.027 C 
ENDROOT
BRANCH   2   9
ATOM      7  O   UNL     1     -39.972  21.593   2.154  0.00  0.00    -0.126 OA
ATOM      8  O   UNL     1     -39.021  23.264   1.095  0.00  0.00    -0.126 OA
ATOM      9  N   UNL     1     -38.956  22.163   1.693  0.00  0.00    +0.061 N 
ENDBRANCH   2   9
BRANCH   3  12
ATOM     10  O   UNL     1     -34.451  18.624   0.089  0.00  0.00    -0.126 OA
ATOM     11  O   UNL     1     -36.557  18.268  -0.419  0.00  0.00    -0.126 OA
ATOM     12  N   UNL     1     -35.671  18.886   0.219  0.00  0.00    +0.058 N 
ENDBRANCH   3  12
BRANCH   1  13
ATOM     13  O   UNL     1     -37.180  22.920   3.757  0.00  0.00    -0.420 OA
BRANCH  13  15
ATOM     14  O   UNL     1     -36.081  24.696   2.729  0.00  0.00    -0.245 OA
ATOM     15  C   UNL     1     -36.348  24.044   3.730  0.00  0.00    +0.342 C 
BRANCH  15  16
ATOM     16  C   UNL     1     -35.802  24.379   5.078  0.00  0.00    +0.054 C 
ATOM     17  C   UNL     1     -35.948  25.808   5.511  0.00  0.00    +0.038 C 
ATOM     18  C   UNL     1     -35.217  23.459   5.859  0.00  0.00    +0.002 C 
ENDBRANCH  15  16
ENDBRANCH  13  15
ENDBRANCH   1  13
TORSDOF 5
ENDMDL
