MODEL 1
REMARK VINA RESULT:      -5.9      0.000      0.000
REMARK  Name = 196473
REMARK  9 active torsions:
REMARK  status: ('A' for Active; 'I' for Inactive)
REMARK    1  A    between atoms: N_2  and  CA_14
REMARK    2  A    between atoms: C_3  and  C_5
REMARK    3  A    between atoms: C_10  and  N_11
REMARK    4  A    between atoms: CA_14  and  C_16
REMARK    5  A    between atoms: CA_14  and  CB_19
REMARK    6  A    between atoms: C_16  and  O_17
REMARK    7  A    between atoms: CB_19  and  CG_20
REMARK    8  A    between atoms: CG_20  and  CD_22
REMARK    9  A    between atoms: CD_22  and  OE1_23
REMARK                            x       y       z     vdW  Elec       q    Type
REMARK                         _______ _______ _______ _____ _____    ______ ____
ROOT
ATOM      1  O   UNK A   0     -36.305  25.619   5.214  0.00  0.00    -0.270 OA
ATOM      2  N   GLU A   1     -34.724  24.013   4.666  0.00  0.00    -0.293 N 
ATOM      3  C   UNK A   0     -35.136  25.282   5.047  0.00  0.00    +0.246 C 
ATOM      4  H   GLU A   1     -33.761  23.840   4.558  0.00  0.00    +0.150 HD
ENDROOT
BRANCH   3   5
ATOM      5  C   UNK A   0     -34.057  26.287   5.235  0.00  0.00    +0.053 C 
ATOM      6  C   UNK A   0     -33.633  27.020   4.146  0.00  0.00    +0.006 C 
ATOM      7  C   UNK A   0     -33.513  26.453   6.492  0.00  0.00    +0.006 C 
ATOM      8  C   UNK A   0     -32.620  27.962   4.322  0.00  0.00    +0.014 C 
ATOM      9  C   UNK A   0     -32.500  27.396   6.668  0.00  0.00    +0.014 C 
ATOM     10  C   UNK A   0     -32.054  28.150   5.583  0.00  0.00    +0.042 C 
BRANCH  10  11
ATOM     11  N   UNK A   0     -31.029  29.104   5.760  0.00  0.00    -0.357 N 
ATOM     12  H   UNK A   0     -30.449  29.350   5.004  0.00  0.00    +0.142 HD
ATOM     13  H   UNK A   0     -30.894  29.522   6.641  0.00  0.00    +0.142 HD
ENDBRANCH  10  11
ENDBRANCH   3   5
BRANCH   2  14
ATOM     14  CA  GLU A   1     -35.653  22.938   4.421  0.00  0.00    +0.172 C 
BRANCH  14  16
ATOM     15  OXT GLU A   1     -35.835  22.217   6.741  0.00  0.00    -0.248 OA
ATOM     16  C   GLU A   1     -35.544  21.966   5.579  0.00  0.00    +0.332 C 
BRANCH  16  17
ATOM     17  O   GLU A   1     -35.113  20.743   5.175  0.00  0.00    -0.479 OA
ATOM     18  H   GLU A   1     -34.265  20.436   5.433  0.00  0.00    +0.295 HD
ENDBRANCH  16  17
ENDBRANCH  14  16
BRANCH  14  19
ATOM     19  CB  GLU A   1     -35.457  22.288   3.046  0.00  0.00    +0.043 C 
BRANCH  19  20
ATOM     20  CG  GLU A   1     -36.729  22.105   2.207  0.00  0.00    +0.112 C 
BRANCH  20  22
ATOM     21  OE2 GLU A   1     -37.343  20.348   0.635  0.00  0.00    -0.250 OA
ATOM     22  CD  GLU A   1     -36.956  20.681   1.746  0.00  0.00    +0.314 C 
BRANCH  22  23
ATOM     23  OE1 GLU A   1     -36.715  19.790   2.743  0.00  0.00    -0.480 OA
ATOM     24  HE1 GLU A   1     -35.877  19.769   3.162  0.00  0.00    +0.295 HD
ENDBRANCH  22  23
ENDBRANCH  20  22
ENDBRANCH  19  20
ENDBRANCH  14  19
ENDBRANCH   2  14
TORSDOF 9
ENDMDL
MODEL 2
REMARK VINA RESULT:      -5.9      1.920      3.258
REMARK  Name = 196473
REMARK  9 active torsions:
REMARK  status: ('A' for Active; 'I' for Inactive)
REMARK    1  A    between atoms: N_2  and  CA_14
REMARK    2  A    between atoms: C_3  and  C_5
REMARK    3  A    between atoms: C_10  and  N_11
REMARK    4  A    between atoms: CA_14  and  C_16
REMARK    5  A    between atoms: CA_14  and  CB_19
REMARK    6  A    between atoms: C_16  and  O_17
REMARK    7  A    between atoms: CB_19  and  CG_20
REMARK    8  A    between atoms: CG_20  and  CD_22
REMARK    9  A    between atoms: CD_22  and  OE1_23
REMARK                            x       y       z     vdW  Elec       q    Type
REMARK                         _______ _______ _______ _____ _____    ______ ____
ROOT
ATOM      1  O   UNK A   0     -34.557  25.592   2.225  0.00  0.00    -0.270 OA
ATOM      2  N   GLU A   1     -36.081  25.157   3.919  0.00  0.00    -0.293 N 
ATOM      3  C   UNK A   0     -34.910  25.689   3.398  0.00  0.00    +0.246 C 
ATOM      4  H   GLU A   1     -36.276  25.287   4.875  0.00  0.00    +0.150 HD
ENDROOT
BRANCH   3   5
ATOM      5  C   UNK A   0     -34.032  26.398   4.364  0.00  0.00    +0.053 C 
ATOM      6  C   UNK A   0     -33.195  27.391   3.899  0.00  0.00    +0.006 C 
ATOM      7  C   UNK A   0     -34.080  26.040   5.696  0.00  0.00    +0.006 C 
ATOM      8  C   UNK A   0     -32.370  28.057   4.805  0.00  0.00    +0.014 C 
ATOM      9  C   UNK A   0     -33.255  26.706   6.602  0.00  0.00    +0.014 C 
ATOM     10  C   UNK A   0     -32.401  27.714   6.157  0.00  0.00    +0.042 C 
BRANCH  10  11
ATOM     11  N   UNK A   0     -31.566  28.388   7.074  0.00  0.00    -0.357 N 
ATOM     12  H   UNK A   0     -31.255  27.927   7.887  0.00  0.00    +0.142 HD
ATOM     13  H   UNK A   0     -31.295  29.318   6.901  0.00  0.00    +0.142 HD
ENDBRANCH  10  11
ENDBRANCH   3   5
BRANCH   2  14
ATOM     14  CA  GLU A   1     -37.023  24.420   3.114  0.00  0.00    +0.172 C 
BRANCH  14  16
ATOM     15  OXT GLU A   1     -39.433  24.387   3.463  0.00  0.00    -0.248 OA
ATOM     16  C   GLU A   1     -38.394  25.023   3.346  0.00  0.00    +0.332 C 
BRANCH  16  17
ATOM     17  O   GLU A   1     -38.342  26.376   3.451  0.00  0.00    -0.479 OA
ATOM     18  H   GLU A   1     -37.849  26.876   2.829  0.00  0.00    +0.295 HD
ENDBRANCH  16  17
ENDBRANCH  14  16
BRANCH  14  19
ATOM     19  CB  GLU A   1     -36.960  22.908   3.363  0.00  0.00    +0.043 C 
BRANCH  19  20
ATOM     20  CG  GLU A   1     -35.604  22.365   3.832  0.00  0.00    +0.112 C 
BRANCH  20  22
ATOM     21  OE2 GLU A   1     -35.767  22.862   6.211  0.00  0.00    -0.250 OA
ATOM     22  CD  GLU A   1     -35.548  22.061   5.313  0.00  0.00    +0.314 C 
BRANCH  22  23
ATOM     23  OE1 GLU A   1     -35.176  20.775   5.546  0.00  0.00    -0.480 OA
ATOM     24  HE1 GLU A   1     -35.820  20.136   5.782  0.00  0.00    +0.295 HD
ENDBRANCH  22  23
ENDBRANCH  20  22
ENDBRANCH  19  20
ENDBRANCH  14  19
ENDBRANCH   2  14
TORSDOF 9
ENDMDL
MODEL 3
REMARK VINA RESULT:      -5.6      3.307      6.649
REMARK  Name = 196473
REMARK  9 active torsions:
REMARK  status: ('A' for Active; 'I' for Inactive)
REMARK    1  A    between atoms: N_2  and  CA_14
REMARK    2  A    between atoms: C_3  and  C_5
REMARK    3  A    between atoms: C_10  and  N_11
REMARK    4  A    between atoms: CA_14  and  C_16
REMARK    5  A    between atoms: CA_14  and  CB_19
REMARK    6  A    between atoms: C_16  and  O_17
REMARK    7  A    between atoms: CB_19  and  CG_20
REMARK    8  A    between atoms: CG_20  and  CD_22
REMARK    9  A    between atoms: CD_22  and  OE1_23
REMARK                            x       y       z     vdW  Elec       q    Type
REMARK                         _______ _______ _______ _____ _____    ______ ____
ROOT
ATOM      1  O   UNK A   0     -36.240  24.542   2.046  0.00  0.00    -0.270 OA
ATOM      2  N   GLU A   1     -36.938  23.148   3.764  0.00  0.00    -0.293 N 
ATOM      3  C   UNK A   0     -37.133  23.953   2.650  0.00  0.00    +0.246 C 
ATOM      4  H   GLU A   1     -37.720  22.718   4.179  0.00  0.00    +0.150 HD
ENDROOT
BRANCH   3   5
ATOM      5  C   UNK A   0     -38.540  24.110   2.199  0.00  0.00    +0.053 C 
ATOM      6  C   UNK A   0     -39.031  23.250   1.238  0.00  0.00    +0.006 C 
ATOM      7  C   UNK A   0     -39.310  25.111   2.755  0.00  0.00    +0.006 C 
ATOM      8  C   UNK A   0     -40.352  23.398   0.814  0.00  0.00    +0.014 C 
ATOM      9  C   UNK A   0     -40.631  25.258   2.330  0.00  0.00    +0.014 C 
ATOM     10  C   UNK A   0     -41.152  24.402   1.360  0.00  0.00    +0.042 C 
BRANCH  10  11
ATOM     11  N   UNK A   0     -42.487  24.551   0.931  0.00  0.00    -0.357 N 
ATOM     12  H   UNK A   0     -42.938  23.814   0.458  0.00  0.00    +0.142 HD
ATOM     13  H   UNK A   0     -42.969  25.392   1.104  0.00  0.00    +0.142 HD
ENDBRANCH  10  11
ENDBRANCH   3   5
BRANCH   2  14
ATOM     14  CA  GLU A   1     -35.636  22.919   4.336  0.00  0.00    +0.172 C 
BRANCH  14  16
ATOM     15  OXT GLU A   1     -35.325  20.647   3.514  0.00  0.00    -0.248 OA
ATOM     16  C   GLU A   1     -35.445  21.421   4.455  0.00  0.00    +0.332 C 
BRANCH  16  17
ATOM     17  O   GLU A   1     -35.382  21.019   5.752  0.00  0.00    -0.479 OA
ATOM     18  H   GLU A   1     -35.644  20.150   5.986  0.00  0.00    +0.295 HD
ENDBRANCH  16  17
ENDBRANCH  14  16
BRANCH  14  19
ATOM     19  CB  GLU A   1     -35.425  23.678   5.653  0.00  0.00    +0.043 C 
BRANCH  19  20
ATOM     20  CG  GLU A   1     -34.608  24.972   5.554  0.00  0.00    +0.112 C 
BRANCH  20  22
ATOM     21  OE2 GLU A   1     -34.935  27.114   4.439  0.00  0.00    -0.250 OA
ATOM     22  CD  GLU A   1     -35.400  26.156   5.040  0.00  0.00    +0.314 C 
BRANCH  22  23
ATOM     23  OE1 GLU A   1     -36.715  26.055   5.365  0.00  0.00    -0.480 OA
ATOM     24  HE1 GLU A   1     -36.974  26.012   6.265  0.00  0.00    +0.295 HD
ENDBRANCH  22  23
ENDBRANCH  20  22
ENDBRANCH  19  20
ENDBRANCH  14  19
ENDBRANCH   2  14
TORSDOF 9
ENDMDL
MODEL 4
REMARK VINA RESULT:      -5.6      2.878      6.708
REMARK  Name = 196473
REMARK  9 active torsions:
REMARK  status: ('A' for Active; 'I' for Inactive)
REMARK    1  A    between atoms: N_2  and  CA_14
REMARK    2  A    between atoms: C_3  and  C_5
REMARK    3  A    between atoms: C_10  and  N_11
REMARK    4  A    between atoms: CA_14  and  C_16
REMARK    5  A    between atoms: CA_14  and  CB_19
REMARK    6  A    between atoms: C_16  and  O_17
REMARK    7  A    between atoms: CB_19  and  CG_20
REMARK    8  A    between atoms: CG_20  and  CD_22
REMARK    9  A    between atoms: CD_22  and  OE1_23
REMARK                            x       y       z     vdW  Elec       q    Type
REMARK                         _______ _______ _______ _____ _____    ______ ____
ROOT
ATOM      1  O   UNK A   0     -36.214  21.444   2.486  0.00  0.00    -0.270 OA
ATOM      2  N   GLU A   1     -36.531  23.161   4.012  0.00  0.00    -0.293 N 
ATOM      3  C   UNK A   0     -36.891  22.366   2.933  0.00  0.00    +0.246 C 
ATOM      4  H   GLU A   1     -37.143  23.878   4.296  0.00  0.00    +0.150 HD
ENDROOT
BRANCH   3   5
ATOM      5  C   UNK A   0     -38.185  22.698   2.282  0.00  0.00    +0.053 C 
ATOM      6  C   UNK A   0     -38.838  23.856   2.651  0.00  0.00    +0.006 C 
ATOM      7  C   UNK A   0     -38.692  21.838   1.330  0.00  0.00    +0.006 C 
ATOM      8  C   UNK A   0     -40.053  24.168   2.041  0.00  0.00    +0.014 C 
ATOM      9  C   UNK A   0     -39.906  22.150   0.720  0.00  0.00    +0.014 C 
ATOM     10  C   UNK A   0     -40.587  23.315   1.075  0.00  0.00    +0.042 C 
BRANCH  10  11
ATOM     11  N   UNK A   0     -41.815  23.630   0.457  0.00  0.00    -0.357 N 
ATOM     12  H   UNK A   0     -42.554  24.003   0.992  0.00  0.00    +0.142 HD
ATOM     13  H   UNK A   0     -41.934  23.477  -0.508  0.00  0.00    +0.142 HD
ENDBRANCH  10  11
ENDBRANCH   3   5
BRANCH   2  14
ATOM     14  CA  GLU A   1     -35.295  22.980   4.731  0.00  0.00    +0.172 C 
BRANCH  14  16
ATOM     15  OXT GLU A   1     -36.077  22.057   6.846  0.00  0.00    -0.248 OA
ATOM     16  C   GLU A   1     -35.523  21.897   5.766  0.00  0.00    +0.332 C 
BRANCH  16  17
ATOM     17  O   GLU A   1     -35.068  20.688   5.344  0.00  0.00    -0.479 OA
ATOM     18  H   GLU A   1     -34.597  20.621   4.536  0.00  0.00    +0.295 HD
ENDBRANCH  16  17
ENDBRANCH  14  16
BRANCH  14  19
ATOM     19  CB  GLU A   1     -34.751  24.290   5.314  0.00  0.00    +0.043 C 
BRANCH  19  20
ATOM     20  CG  GLU A   1     -35.719  25.480   5.302  0.00  0.00    +0.112 C 
BRANCH  20  22
ATOM     21  OE2 GLU A   1     -35.967  25.909   2.917  0.00  0.00    -0.250 OA
ATOM     22  CD  GLU A   1     -35.658  26.302   4.033  0.00  0.00    +0.314 C 
BRANCH  22  23
ATOM     23  OE1 GLU A   1     -35.170  27.548   4.268  0.00  0.00    -0.480 OA
ATOM     24  HE1 GLU A   1     -34.790  27.754   5.099  0.00  0.00    +0.295 HD
ENDBRANCH  22  23
ENDBRANCH  20  22
ENDBRANCH  19  20
ENDBRANCH  14  19
ENDBRANCH   2  14
TORSDOF 9
ENDMDL
MODEL 5
REMARK VINA RESULT:      -5.5      3.147      7.596
REMARK  Name = 196473
REMARK  9 active torsions:
REMARK  status: ('A' for Active; 'I' for Inactive)
REMARK    1  A    between atoms: N_2  and  CA_14
REMARK    2  A    between atoms: C_3  and  C_5
REMARK    3  A    between atoms: C_10  and  N_11
REMARK    4  A    between atoms: CA_14  and  C_16
REMARK    5  A    between atoms: CA_14  and  CB_19
REMARK    6  A    between atoms: C_16  and  O_17
REMARK    7  A    between atoms: CB_19  and  CG_20
REMARK    8  A    between atoms: CG_20  and  CD_22
REMARK    9  A    between atoms: CD_22  and  OE1_23
REMARK                            x       y       z     vdW  Elec       q    Type
REMARK                         _______ _______ _______ _____ _____    ______ ____
ROOT
ATOM      1  O   UNK A   0     -35.191  20.693   4.067  0.00  0.00    -0.270 OA
ATOM      2  N   GLU A   1     -36.212  22.173   2.601  0.00  0.00    -0.293 N 
ATOM      3  C   UNK A   0     -35.569  20.990   2.936  0.00  0.00    +0.246 C 
ATOM      4  H   GLU A   1     -36.476  22.320   1.664  0.00  0.00    +0.150 HD
ENDROOT
BRANCH   3   5
ATOM      5  C   UNK A   0     -35.312  20.049   1.815  0.00  0.00    +0.053 C 
ATOM      6  C   UNK A   0     -36.354  19.713   0.975  0.00  0.00    +0.006 C 
ATOM      7  C   UNK A   0     -34.040  19.540   1.650  0.00  0.00    +0.006 C 
ATOM      8  C   UNK A   0     -36.114  18.830  -0.077  0.00  0.00    +0.014 C 
ATOM      9  C   UNK A   0     -33.800  18.656   0.598  0.00  0.00    +0.014 C 
ATOM     10  C   UNK A   0     -34.836  18.301  -0.265  0.00  0.00    +0.042 C 
BRANCH  10  11
ATOM     11  N   UNK A   0     -34.594  17.407  -1.329  0.00  0.00    -0.357 N 
ATOM     12  H   UNK A   0     -33.824  16.794  -1.292  0.00  0.00    +0.142 HD
ATOM     13  H   UNK A   0     -35.193  17.397  -2.110  0.00  0.00    +0.142 HD
ENDBRANCH  10  11
ENDBRANCH   3   5
BRANCH   2  14
ATOM     14  CA  GLU A   1     -36.508  23.196   3.572  0.00  0.00    +0.172 C 
BRANCH  14  16
ATOM     15  OXT GLU A   1     -38.196  23.877   1.954  0.00  0.00    -0.248 OA
ATOM     16  C   GLU A   1     -37.721  23.958   3.079  0.00  0.00    +0.332 C 
BRANCH  16  17
ATOM     17  O   GLU A   1     -38.264  24.733   4.054  0.00  0.00    -0.479 OA
ATOM     18  H   GLU A   1     -38.295  24.421   4.938  0.00  0.00    +0.295 HD
ENDBRANCH  16  17
ENDBRANCH  14  16
BRANCH  14  19
ATOM     19  CB  GLU A   1     -35.299  24.088   3.881  0.00  0.00    +0.043 C 
BRANCH  19  20
ATOM     20  CG  GLU A   1     -35.107  24.465   5.356  0.00  0.00    +0.112 C 
BRANCH  20  22
ATOM     21  OE2 GLU A   1     -34.122  26.620   5.924  0.00  0.00    -0.250 OA
ATOM     22  CD  GLU A   1     -35.100  25.958   5.607  0.00  0.00    +0.314 C 
BRANCH  22  23
ATOM     23  OE1 GLU A   1     -36.342  26.492   5.478  0.00  0.00    -0.480 OA
ATOM     24  HE1 GLU A   1     -36.513  27.363   5.780  0.00  0.00    +0.295 HD
ENDBRANCH  22  23
ENDBRANCH  20  22
ENDBRANCH  19  20
ENDBRANCH  14  19
ENDBRANCH   2  14
TORSDOF 9
ENDMDL
MODEL 6
REMARK VINA RESULT:      -5.5      2.016      3.171
REMARK  Name = 196473
REMARK  9 active torsions:
REMARK  status: ('A' for Active; 'I' for Inactive)
REMARK    1  A    between atoms: N_2  and  CA_14
REMARK    2  A    between atoms: C_3  and  C_5
REMARK    3  A    between atoms: C_10  and  N_11
REMARK    4  A    between atoms: CA_14  and  C_16
REMARK    5  A    between atoms: CA_14  and  CB_19
REMARK    6  A    between atoms: C_16  and  O_17
REMARK    7  A    between atoms: CB_19  and  CG_20
REMARK    8  A    between atoms: CG_20  and  CD_22
REMARK    9  A    between atoms: CD_22  and  OE1_23
REMARK                            x       y       z     vdW  Elec       q    Type
REMARK                         _______ _______ _______ _____ _____    ______ ____
ROOT
ATOM      1  O   UNK A   0     -36.395  22.729   4.909  0.00  0.00    -0.270 OA
ATOM      2  N   GLU A   1     -36.075  23.086   2.640  0.00  0.00    -0.293 N 
ATOM      3  C   UNK A   0     -35.897  23.369   3.987  0.00  0.00    +0.246 C 
ATOM      4  H   GLU A   1     -35.633  23.660   1.974  0.00  0.00    +0.150 HD
ENDROOT
BRANCH   3   5
ATOM      5  C   UNK A   0     -35.056  24.554   4.298  0.00  0.00    +0.053 C 
ATOM      6  C   UNK A   0     -34.969  24.985   5.605  0.00  0.00    +0.006 C 
ATOM      7  C   UNK A   0     -34.389  25.185   3.268  0.00  0.00    +0.006 C 
ATOM      8  C   UNK A   0     -34.180  26.097   5.897  0.00  0.00    +0.014 C 
ATOM      9  C   UNK A   0     -33.600  26.298   3.559  0.00  0.00    +0.014 C 
ATOM     10  C   UNK A   0     -33.495  26.754   4.873  0.00  0.00    +0.042 C 
BRANCH  10  11
ATOM     11  N   UNK A   0     -32.697  27.879   5.168  0.00  0.00    -0.357 N 
ATOM     12  H   UNK A   0     -33.106  28.685   5.559  0.00  0.00    +0.142 HD
ATOM     13  H   UNK A   0     -31.730  27.859   4.983  0.00  0.00    +0.142 HD
ENDBRANCH  10  11
ENDBRANCH   3   5
BRANCH   2  14
ATOM     14  CA  GLU A   1     -36.884  21.986   2.179  0.00  0.00    +0.172 C 
BRANCH  14  16
ATOM     15  OXT GLU A   1     -34.848  20.658   2.028  0.00  0.00    -0.248 OA
ATOM     16  C   GLU A   1     -36.045  20.729   2.276  0.00  0.00    +0.332 C 
BRANCH  16  17
ATOM     17  O   GLU A   1     -36.771  19.667   2.713  0.00  0.00    -0.479 OA
ATOM     18  H   GLU A   1     -37.260  19.150   2.103  0.00  0.00    +0.295 HD
ENDBRANCH  16  17
ENDBRANCH  14  16
BRANCH  14  19
ATOM     19  CB  GLU A   1     -37.478  22.230   0.786  0.00  0.00    +0.043 C 
BRANCH  19  20
ATOM     20  CG  GLU A   1     -38.833  21.564   0.512  0.00  0.00    +0.112 C 
BRANCH  20  22
ATOM     21  OE2 GLU A   1     -40.372  23.088   1.627  0.00  0.00    -0.250 OA
ATOM     22  CD  GLU A   1     -39.917  21.961   1.491  0.00  0.00    +0.314 C 
BRANCH  22  23
ATOM     23  OE1 GLU A   1     -40.311  20.908   2.253  0.00  0.00    -0.480 OA
ATOM     24  HE1 GLU A   1     -41.115  20.952   2.734  0.00  0.00    +0.295 HD
ENDBRANCH  22  23
ENDBRANCH  20  22
ENDBRANCH  19  20
ENDBRANCH  14  19
ENDBRANCH   2  14
TORSDOF 9
ENDMDL
MODEL 7
REMARK VINA RESULT:      -5.4      4.216      7.460
REMARK  Name = 196473
REMARK  9 active torsions:
REMARK  status: ('A' for Active; 'I' for Inactive)
REMARK    1  A    between atoms: N_2  and  CA_14
REMARK    2  A    between atoms: C_3  and  C_5
REMARK    3  A    between atoms: C_10  and  N_11
REMARK    4  A    between atoms: CA_14  and  C_16
REMARK    5  A    between atoms: CA_14  and  CB_19
REMARK    6  A    between atoms: C_16  and  O_17
REMARK    7  A    between atoms: CB_19  and  CG_20
REMARK    8  A    between atoms: CG_20  and  CD_22
REMARK    9  A    between atoms: CD_22  and  OE1_23
REMARK                            x       y       z     vdW  Elec       q    Type
REMARK                         _______ _______ _______ _____ _____    ______ ____
ROOT
ATOM      1  O   UNK A   0     -34.540  21.920   0.947  0.00  0.00    -0.270 OA
ATOM      2  N   GLU A   1     -35.352  20.972   2.902  0.00  0.00    -0.293 N 
ATOM      3  C   UNK A   0     -34.781  20.933   1.638  0.00  0.00    +0.246 C 
ATOM      4  H   GLU A   1     -35.507  20.125   3.378  0.00  0.00    +0.150 HD
ENDROOT
BRANCH   3   5
ATOM      5  C   UNK A   0     -34.475  19.581   1.104  0.00  0.00    +0.053 C 
ATOM      6  C   UNK A   0     -33.295  18.971   1.473  0.00  0.00    +0.006 C 
ATOM      7  C   UNK A   0     -35.381  18.980   0.254  0.00  0.00    +0.006 C 
ATOM      8  C   UNK A   0     -33.006  17.702   0.971  0.00  0.00    +0.014 C 
ATOM      9  C   UNK A   0     -35.093  17.711  -0.248  0.00  0.00    +0.014 C 
ATOM     10  C   UNK A   0     -33.906  17.072   0.110  0.00  0.00    +0.042 C 
BRANCH  10  11
ATOM     11  N   UNK A   0     -33.615  15.788  -0.398  0.00  0.00    -0.357 N 
ATOM     12  H   UNK A   0     -34.339  15.224  -0.755  0.00  0.00    +0.142 HD
ATOM     13  H   UNK A   0     -32.688  15.456  -0.394  0.00  0.00    +0.142 HD
ENDBRANCH  10  11
ENDBRANCH   3   5
BRANCH   2  14
ATOM     14  CA  GLU A   1     -35.729  22.206   3.545  0.00  0.00    +0.172 C 
BRANCH  14  16
ATOM     15  OXT GLU A   1     -35.981  22.796   5.895  0.00  0.00    -0.248 OA
ATOM     16  C   GLU A   1     -35.630  21.991   5.042  0.00  0.00    +0.332 C 
BRANCH  16  17
ATOM     17  O   GLU A   1     -35.133  20.764   5.346  0.00  0.00    -0.479 OA
ATOM     18  H   GLU A   1     -34.800  20.211   4.666  0.00  0.00    +0.295 HD
ENDBRANCH  16  17
ENDBRANCH  14  16
BRANCH  14  19
ATOM     19  CB  GLU A   1     -37.097  22.722   3.082  0.00  0.00    +0.043 C 
BRANCH  19  20
ATOM     20  CG  GLU A   1     -37.099  24.102   2.413  0.00  0.00    +0.112 C 
BRANCH  20  22
ATOM     21  OE2 GLU A   1     -38.307  26.180   2.815  0.00  0.00    -0.250 OA
ATOM     22  CD  GLU A   1     -37.744  25.185   3.251  0.00  0.00    +0.314 C 
BRANCH  22  23
ATOM     23  OE1 GLU A   1     -37.590  24.947   4.579  0.00  0.00    -0.480 OA
ATOM     24  HE1 GLU A   1     -37.893  24.141   4.950  0.00  0.00    +0.295 HD
ENDBRANCH  22  23
ENDBRANCH  20  22
ENDBRANCH  19  20
ENDBRANCH  14  19
ENDBRANCH   2  14
TORSDOF 9
ENDMDL
MODEL 8
REMARK VINA RESULT:      -5.2      4.084      7.083
REMARK  Name = 196473
REMARK  9 active torsions:
REMARK  status: ('A' for Active; 'I' for Inactive)
REMARK    1  A    between atoms: N_2  and  CA_14
REMARK    2  A    between atoms: C_3  and  C_5
REMARK    3  A    between atoms: C_10  and  N_11
REMARK    4  A    between atoms: CA_14  and  C_16
REMARK    5  A    between atoms: CA_14  and  CB_19
REMARK    6  A    between atoms: C_16  and  O_17
REMARK    7  A    between atoms: CB_19  and  CG_20
REMARK    8  A    between atoms: CG_20  and  CD_22
REMARK    9  A    between atoms: CD_22  and  OE1_23
REMARK                            x       y       z     vdW  Elec       q    Type
REMARK                         _______ _______ _______ _____ _____    ______ ____
ROOT
ATOM      1  O   UNK A   0     -31.956  26.708   3.174  0.00  0.00    -0.270 OA
ATOM      2  N   GLU A   1     -32.964  27.779   4.968  0.00  0.00    -0.293 N 
ATOM      3  C   UNK A   0     -32.836  26.764   4.030  0.00  0.00    +0.246 C 
ATOM      4  H   GLU A   1     -33.705  27.736   5.614  0.00  0.00    +0.150 HD
ENDROOT
BRANCH   3   5
ATOM      5  C   UNK A   0     -33.869  25.698   4.080  0.00  0.00    +0.053 C 
ATOM      6  C   UNK A   0     -34.196  25.032   2.918  0.00  0.00    +0.006 C 
ATOM      7  C   UNK A   0     -34.470  25.409   5.289  0.00  0.00    +0.006 C 
ATOM      8  C   UNK A   0     -35.166  24.031   2.964  0.00  0.00    +0.014 C 
ATOM      9  C   UNK A   0     -35.441  24.408   5.335  0.00  0.00    +0.014 C 
ATOM     10  C   UNK A   0     -35.789  23.719   4.173  0.00  0.00    +0.042 C 
BRANCH  10  11
ATOM     11  N   UNK A   0     -36.770  22.707   4.220  0.00  0.00    -0.357 N 
ATOM     12  H   UNK A   0     -37.713  22.926   4.036  0.00  0.00    +0.142 HD
ATOM     13  H   UNK A   0     -36.513  21.782   4.438  0.00  0.00    +0.142 HD
ENDBRANCH  10  11
ENDBRANCH   3   5
BRANCH   2  14
ATOM     14  CA  GLU A   1     -32.055  28.896   5.030  0.00  0.00    +0.172 C 
BRANCH  14  16
ATOM     15  OXT GLU A   1     -31.586  29.756   7.260  0.00  0.00    -0.248 OA
ATOM     16  C   GLU A   1     -31.421  28.894   6.406  0.00  0.00    +0.332 C 
BRANCH  16  17
ATOM     17  O   GLU A   1     -30.659  27.788   6.612  0.00  0.00    -0.479 OA
ATOM     18  H   GLU A   1     -29.769  27.878   6.893  0.00  0.00    +0.295 HD
ENDBRANCH  16  17
ENDBRANCH  14  16
BRANCH  14  19
ATOM     19  CB  GLU A   1     -32.723  30.226   4.657  0.00  0.00    +0.043 C 
BRANCH  19  20
ATOM     20  CG  GLU A   1     -33.156  30.368   3.192  0.00  0.00    +0.112 C 
BRANCH  20  22
ATOM     21  OE2 GLU A   1     -35.313  31.340   2.611  0.00  0.00    -0.250 OA
ATOM     22  CD  GLU A   1     -34.657  30.384   2.999  0.00  0.00    +0.314 C 
BRANCH  22  23
ATOM     23  OE1 GLU A   1     -35.219  29.199   3.352  0.00  0.00    -0.480 OA
ATOM     24  HE1 GLU A   1     -35.733  28.719   2.732  0.00  0.00    +0.295 HD
ENDBRANCH  22  23
ENDBRANCH  20  22
ENDBRANCH  19  20
ENDBRANCH  14  19
ENDBRANCH   2  14
TORSDOF 9
ENDMDL
MODEL 9
REMARK VINA RESULT:      -5.2      2.620      3.867
REMARK  Name = 196473
REMARK  9 active torsions:
REMARK  status: ('A' for Active; 'I' for Inactive)
REMARK    1  A    between atoms: N_2  and  CA_14
REMARK    2  A    between atoms: C_3  and  C_5
REMARK    3  A    between atoms: C_10  and  N_11
REMARK    4  A    between atoms: CA_14  and  C_16
REMARK    5  A    between atoms: CA_14  and  CB_19
REMARK    6  A    between atoms: C_16  and  O_17
REMARK    7  A    between atoms: CB_19  and  CG_20
REMARK    8  A    between atoms: CG_20  and  CD_22
REMARK    9  A    between atoms: CD_22  and  OE1_23
REMARK                            x       y       z     vdW  Elec       q    Type
REMARK                         _______ _______ _______ _____ _____    ______ ____
ROOT
ATOM      1  O   UNK A   0     -36.138  23.971   1.006  0.00  0.00    -0.270 OA
ATOM      2  N   GLU A   1     -37.473  22.879   2.556  0.00  0.00    -0.293 N 
ATOM      3  C   UNK A   0     -36.481  23.768   2.168  0.00  0.00    +0.246 C 
ATOM      4  H   GLU A   1     -37.676  22.785   3.515  0.00  0.00    +0.150 HD
ENDROOT
BRANCH   3   5
ATOM      5  C   UNK A   0     -35.787  24.490   3.266  0.00  0.00    +0.053 C 
ATOM      6  C   UNK A   0     -34.465  24.843   3.100  0.00  0.00    +0.006 C 
ATOM      7  C   UNK A   0     -36.489  24.783   4.417  0.00  0.00    +0.006 C 
ATOM      8  C   UNK A   0     -33.813  25.519   4.130  0.00  0.00    +0.014 C 
ATOM      9  C   UNK A   0     -35.838  25.459   5.448  0.00  0.00    +0.014 C 
ATOM     10  C   UNK A   0     -34.500  25.828   5.305  0.00  0.00    +0.042 C 
BRANCH  10  11
ATOM     11  N   UNK A   0     -33.841  26.513   6.348  0.00  0.00    -0.357 N 
ATOM     12  H   UNK A   0     -32.956  26.209   6.655  0.00  0.00    +0.142 HD
ATOM     13  H   UNK A   0     -34.266  27.294   6.769  0.00  0.00    +0.142 HD
ENDBRANCH  10  11
ENDBRANCH   3   5
BRANCH   2  14
ATOM     14  CA  GLU A   1     -38.218  22.087   1.610  0.00  0.00    +0.172 C 
BRANCH  14  16
ATOM     15  OXT GLU A   1     -40.328  23.229   2.032  0.00  0.00    -0.248 OA
ATOM     16  C   GLU A   1     -39.684  22.190   1.981  0.00  0.00    +0.332 C 
BRANCH  16  17
ATOM     17  O   GLU A   1     -40.233  20.970   2.221  0.00  0.00    -0.479 OA
ATOM     18  H   GLU A   1     -40.379  20.374   1.512  0.00  0.00    +0.295 HD
ENDBRANCH  16  17
ENDBRANCH  14  16
BRANCH  14  19
ATOM     19  CB  GLU A   1     -37.704  20.645   1.509  0.00  0.00    +0.043 C 
BRANCH  19  20
ATOM     20  CG  GLU A   1     -36.279  20.481   0.964  0.00  0.00    +0.112 C 
BRANCH  20  22
ATOM     21  OE2 GLU A   1     -34.178  19.594   1.822  0.00  0.00    -0.250 OA
ATOM     22  CD  GLU A   1     -35.257  20.133   2.025  0.00  0.00    +0.314 C 
BRANCH  22  23
ATOM     23  OE1 GLU A   1     -35.698  20.455   3.269  0.00  0.00    -0.480 OA
ATOM     24  HE1 GLU A   1     -35.487  19.906   3.998  0.00  0.00    +0.295 HD
ENDBRANCH  22  23
ENDBRANCH  20  22
ENDBRANCH  19  20
ENDBRANCH  14  19
ENDBRANCH   2  14
TORSDOF 9
ENDMDL
