MODEL 1
REMARK VINA RESULT:      -6.9      0.000      0.000
REMARK  Name = 54960
REMARK  7 active torsions:
REMARK  status: ('A' for Active; 'I' for Inactive)
REMARK    1  A    between atoms: N_2  and  S_13
REMARK    2  A    between atoms: C_8  and  O_27
REMARK    3  A    between atoms: C_9  and  O_29
REMARK    4  A    between atoms: S_13  and  C_16
REMARK    5  A    between atoms: C_16  and  C_17
REMARK    6  A    between atoms: C_18  and  C_24
REMARK    7  A    between atoms: C_24  and  O_25
REMARK                            x       y       z     vdW  Elec       q    Type
REMARK                         _______ _______ _______ _____ _____    ______ ____
ROOT
ATOM      1  O   UNL     1     -40.677  24.550   2.054  0.00  0.00    -0.250 OA
ATOM      2  N   UNL     1     -38.524  24.962   2.830  0.00  0.00    -0.172 N 
ATOM      3  N   UNL     1     -40.275  26.355   3.480  0.00  0.00    -0.192 N 
ATOM      4  N   UNL     1     -41.629  28.028   4.419  0.00  0.00    -0.294 NA
ATOM      5  N   UNL     1     -42.567  26.349   2.967  0.00  0.00    -0.294 NA
ATOM      6  C   UNL     1     -39.928  25.242   2.732  0.00  0.00    +0.332 C 
ATOM      7  C   UNL     1     -41.555  26.939   3.629  0.00  0.00    +0.212 C 
ATOM      8  C   UNL     1     -42.863  28.559   4.540  0.00  0.00    +0.276 C 
ATOM      9  C   UNL     1     -43.772  26.932   3.132  0.00  0.00    +0.276 C 
ATOM     10  C   UNL     1     -43.983  28.050   3.914  0.00  0.00    +0.199 C 
ATOM     11  H   UNL     1     -37.984  25.564   3.390  0.00  0.00    +0.178 HD
ATOM     12  H   UNL     1     -39.540  26.793   3.966  0.00  0.00    +0.170 HD
ENDROOT
BRANCH   2  13
ATOM     13  S   UNL     1     -37.710  23.676   2.055  0.00  0.00    +0.061 S 
ATOM     14  O   UNL     1     -37.806  23.817   0.616  0.00  0.00    -0.154 OA
ATOM     15  O   UNL     1     -38.076  22.434   2.710  0.00  0.00    -0.154 OA
BRANCH  13  16
ATOM     16  C   UNL     1     -36.041  24.056   2.531  0.00  0.00    +0.199 C 
BRANCH  16  17
ATOM     17  C   UNL     1     -35.709  23.227   3.734  0.00  0.00    +0.009 C 
ATOM     18  C   UNL     1     -35.611  23.803   5.000  0.00  0.00    +0.073 C 
ATOM     19  C   UNL     1     -35.496  21.858   3.571  0.00  0.00    -0.002 C 
ATOM     20  C   UNL     1     -35.301  23.009   6.105  0.00  0.00    +0.006 C 
ATOM     21  C   UNL     1     -35.185  21.066   4.675  0.00  0.00    -0.000 C 
ATOM     22  C   UNL     1     -35.087  21.640   5.942  0.00  0.00    +0.000 C 
BRANCH  18  24
ATOM     23  O   UNL     1     -36.900  25.809   4.980  0.00  0.00    -0.245 OA
ATOM     24  C   UNL     1     -35.829  25.230   5.199  0.00  0.00    +0.341 C 
BRANCH  24  25
ATOM     25  O   UNL     1     -34.699  25.850   5.659  0.00  0.00    -0.441 OA
ATOM     26  C   UNL     1     -33.828  26.415   4.674  0.00  0.00    +0.256 C 
ENDBRANCH  24  25
ENDBRANCH  18  24
ENDBRANCH  16  17
ENDBRANCH  13  16
ENDBRANCH   2  13
BRANCH   8  27
ATOM     27  O   UNL     1     -42.989  29.669   5.333  0.00  0.00    -0.450 OA
ATOM     28  C   UNL     1     -44.304  30.007   5.756  0.00  0.00    +0.255 C 
ENDBRANCH   8  27
BRANCH   9  29
ATOM     29  O   UNL     1     -44.834  26.365   2.478  0.00  0.00    -0.450 OA
ATOM     30  C   UNL     1     -45.622  25.440   3.217  0.00  0.00    +0.255 C 
ENDBRANCH   9  29
TORSDOF 7
ENDMDL
MODEL 2
REMARK VINA RESULT:      -6.8      4.742      7.272
REMARK  Name = 54960
REMARK  7 active torsions:
REMARK  status: ('A' for Active; 'I' for Inactive)
REMARK    1  A    between atoms: N_2  and  S_13
REMARK    2  A    between atoms: C_8  and  O_27
REMARK    3  A    between atoms: C_9  and  O_29
REMARK    4  A    between atoms: S_13  and  C_16
REMARK    5  A    between atoms: C_16  and  C_17
REMARK    6  A    between atoms: C_18  and  C_24
REMARK    7  A    between atoms: C_24  and  O_25
REMARK                            x       y       z     vdW  Elec       q    Type
REMARK                         _______ _______ _______ _____ _____    ______ ____
ROOT
ATOM      1  O   UNL     1     -33.310  28.942   4.036  0.00  0.00    -0.250 OA
ATOM      2  N   UNL     1     -35.048  27.410   4.225  0.00  0.00    -0.172 N 
ATOM      3  N   UNL     1     -35.394  29.420   3.099  0.00  0.00    -0.192 N 
ATOM      4  N   UNL     1     -36.267  31.239   1.898  0.00  0.00    -0.294 NA
ATOM      5  N   UNL     1     -33.982  31.245   2.662  0.00  0.00    -0.294 NA
ATOM      6  C   UNL     1     -34.474  28.652   3.792  0.00  0.00    +0.332 C 
ATOM      7  C   UNL     1     -35.204  30.698   2.524  0.00  0.00    +0.212 C 
ATOM      8  C   UNL     1     -36.051  32.458   1.361  0.00  0.00    +0.276 C 
ATOM      9  C   UNL     1     -33.836  32.463   2.102  0.00  0.00    +0.276 C 
ATOM     10  C   UNL     1     -34.845  33.125   1.432  0.00  0.00    +0.199 C 
ATOM     11  H   UNL     1     -35.991  27.246   3.995  0.00  0.00    +0.178 HD
ATOM     12  H   UNL     1     -36.291  29.029   2.995  0.00  0.00    +0.170 HD
ENDROOT
BRANCH   2  13
ATOM     13  S   UNL     1     -34.238  26.192   5.107  0.00  0.00    +0.061 S 
ATOM     14  O   UNL     1     -33.519  26.776   6.221  0.00  0.00    -0.154 OA
ATOM     15  O   UNL     1     -33.572  25.307   4.171  0.00  0.00    -0.154 OA
BRANCH  13  16
ATOM     16  C   UNL     1     -35.640  25.319   5.759  0.00  0.00    +0.199 C 
BRANCH  16  17
ATOM     17  C   UNL     1     -35.607  23.926   5.208  0.00  0.00    +0.009 C 
ATOM     18  C   UNL     1     -36.298  23.595   4.043  0.00  0.00    +0.073 C 
ATOM     19  C   UNL     1     -34.870  22.952   5.882  0.00  0.00    -0.002 C 
ATOM     20  C   UNL     1     -36.251  22.291   3.551  0.00  0.00    +0.006 C 
ATOM     21  C   UNL     1     -34.823  21.649   5.391  0.00  0.00    -0.000 C 
ATOM     22  C   UNL     1     -35.514  21.317   4.225  0.00  0.00    +0.000 C 
BRANCH  18  24
ATOM     23  O   UNL     1     -36.618  25.331   2.440  0.00  0.00    -0.245 OA
ATOM     24  C   UNL     1     -37.076  24.592   3.320  0.00  0.00    +0.341 C 
BRANCH  24  25
ATOM     25  O   UNL     1     -38.379  24.609   3.735  0.00  0.00    -0.441 OA
ATOM     26  C   UNL     1     -39.369  24.247   2.766  0.00  0.00    +0.256 C 
ENDBRANCH  24  25
ENDBRANCH  18  24
ENDBRANCH  16  17
ENDBRANCH  13  16
ENDBRANCH   2  13
BRANCH   8  27
ATOM     27  O   UNL     1     -37.104  33.049   0.713  0.00  0.00    -0.450 OA
ATOM     28  C   UNL     1     -38.391  32.877   1.294  0.00  0.00    +0.255 C 
ENDBRANCH   8  27
BRANCH   9  29
ATOM     29  O   UNL     1     -32.607  33.059   2.216  0.00  0.00    -0.450 OA
ATOM     30  C   UNL     1     -31.649  32.399   3.035  0.00  0.00    +0.255 C 
ENDBRANCH   9  29
TORSDOF 7
ENDMDL
MODEL 3
REMARK VINA RESULT:      -6.6      2.018      8.128
REMARK  Name = 54960
REMARK  7 active torsions:
REMARK  status: ('A' for Active; 'I' for Inactive)
REMARK    1  A    between atoms: N_2  and  S_13
REMARK    2  A    between atoms: C_8  and  O_27
REMARK    3  A    between atoms: C_9  and  O_29
REMARK    4  A    between atoms: S_13  and  C_16
REMARK    5  A    between atoms: C_16  and  C_17
REMARK    6  A    between atoms: C_18  and  C_24
REMARK    7  A    between atoms: C_24  and  O_25
REMARK                            x       y       z     vdW  Elec       q    Type
REMARK                         _______ _______ _______ _____ _____    ______ ____
ROOT
ATOM      1  O   UNL     1     -39.353  24.434   3.106  0.00  0.00    -0.250 OA
ATOM      2  N   UNL     1     -39.857  26.428   2.021  0.00  0.00    -0.172 N 
ATOM      3  N   UNL     1     -37.892  26.248   3.260  0.00  0.00    -0.192 N 
ATOM      4  N   UNL     1     -35.840  26.606   4.344  0.00  0.00    -0.294 NA
ATOM      5  N   UNL     1     -36.971  24.485   4.508  0.00  0.00    -0.294 NA
ATOM      6  C   UNL     1     -39.033  25.586   2.841  0.00  0.00    +0.332 C 
ATOM      7  C   UNL     1     -36.849  25.755   4.078  0.00  0.00    +0.212 C 
ATOM      8  C   UNL     1     -34.863  26.104   5.126  0.00  0.00    +0.276 C 
ATOM      9  C   UNL     1     -35.960  24.048   5.285  0.00  0.00    +0.276 C 
ATOM     10  C   UNL     1     -34.868  24.819   5.631  0.00  0.00    +0.199 C 
ATOM     11  H   UNL     1     -39.538  27.343   1.854  0.00  0.00    +0.178 HD
ATOM     12  H   UNL     1     -37.795  27.178   2.951  0.00  0.00    +0.170 HD
ENDROOT
BRANCH   2  13
ATOM     13  S   UNL     1     -41.345  25.979   1.313  0.00  0.00    +0.061 S 
ATOM     14  O   UNL     1     -41.902  24.833   2.003  0.00  0.00    -0.154 OA
ATOM     15  O   UNL     1     -41.190  25.979  -0.129  0.00  0.00    -0.154 OA
BRANCH  13  16
ATOM     16  C   UNL     1     -42.317  27.401   1.744  0.00  0.00    +0.199 C 
BRANCH  16  17
ATOM     17  C   UNL     1     -43.464  26.933   2.587  0.00  0.00    +0.009 C 
ATOM     18  C   UNL     1     -43.705  27.483   3.845  0.00  0.00    +0.073 C 
ATOM     19  C   UNL     1     -44.296  25.927   2.094  0.00  0.00    -0.002 C 
ATOM     20  C   UNL     1     -44.780  27.030   4.610  0.00  0.00    +0.006 C 
ATOM     21  C   UNL     1     -45.369  25.474   2.859  0.00  0.00    -0.000 C 
ATOM     22  C   UNL     1     -45.612  26.024   4.117  0.00  0.00    +0.000 C 
BRANCH  18  24
ATOM     23  O   UNL     1     -41.644  28.404   4.613  0.00  0.00    -0.245 OA
ATOM     24  C   UNL     1     -42.852  28.535   4.384  0.00  0.00    +0.341 C 
BRANCH  24  25
ATOM     25  O   UNL     1     -43.556  29.687   4.605  0.00  0.00    -0.441 OA
ATOM     26  C   UNL     1     -43.501  30.233   5.927  0.00  0.00    +0.256 C 
ENDBRANCH  24  25
ENDBRANCH  18  24
ENDBRANCH  16  17
ENDBRANCH  13  16
ENDBRANCH   2  13
BRANCH   8  27
ATOM     27  O   UNL     1     -33.814  26.933   5.424  0.00  0.00    -0.450 OA
ATOM     28  C   UNL     1     -33.166  26.723   6.672  0.00  0.00    +0.255 C 
ENDBRANCH   8  27
BRANCH   9  29
ATOM     29  O   UNL     1     -36.040  22.760   5.747  0.00  0.00    -0.450 OA
ATOM     30  C   UNL     1     -34.810  22.090   5.994  0.00  0.00    +0.255 C 
ENDBRANCH   9  29
TORSDOF 7
ENDMDL
MODEL 4
REMARK VINA RESULT:      -6.4      5.169      8.575
REMARK  Name = 54960
REMARK  7 active torsions:
REMARK  status: ('A' for Active; 'I' for Inactive)
REMARK    1  A    between atoms: N_2  and  S_13
REMARK    2  A    between atoms: C_8  and  O_27
REMARK    3  A    between atoms: C_9  and  O_29
REMARK    4  A    between atoms: S_13  and  C_16
REMARK    5  A    between atoms: C_16  and  C_17
REMARK    6  A    between atoms: C_18  and  C_24
REMARK    7  A    between atoms: C_24  and  O_25
REMARK                            x       y       z     vdW  Elec       q    Type
REMARK                         _______ _______ _______ _____ _____    ______ ____
ROOT
ATOM      1  O   UNL     1     -34.878  27.045   4.422  0.00  0.00    -0.250 OA
ATOM      2  N   UNL     1     -34.563  25.007   5.496  0.00  0.00    -0.172 N 
ATOM      3  N   UNL     1     -32.995  26.710   5.761  0.00  0.00    -0.192 N 
ATOM      4  N   UNL     1     -31.154  28.041   6.355  0.00  0.00    -0.294 NA
ATOM      5  N   UNL     1     -32.874  28.889   4.896  0.00  0.00    -0.294 NA
ATOM      6  C   UNL     1     -34.189  26.351   5.159  0.00  0.00    +0.332 C 
ATOM      7  C   UNL     1     -32.307  27.942   5.666  0.00  0.00    +0.212 C 
ATOM      8  C   UNL     1     -30.524  29.228   6.242  0.00  0.00    +0.276 C 
ATOM      9  C   UNL     1     -32.191  30.050   4.827  0.00  0.00    +0.276 C 
ATOM     10  C   UNL     1     -31.000  30.280   5.485  0.00  0.00    +0.199 C 
ATOM     11  H   UNL     1     -33.959  24.508   6.091  0.00  0.00    +0.178 HD
ATOM     12  H   UNL     1     -32.573  26.022   6.325  0.00  0.00    +0.170 HD
ENDROOT
BRANCH   2  13
ATOM     13  S   UNL     1     -35.966  24.199   4.953  0.00  0.00    +0.061 S 
ATOM     14  O   UNL     1     -37.076  25.127   4.865  0.00  0.00    -0.154 OA
ATOM     15  O   UNL     1     -36.093  22.951   5.681  0.00  0.00    -0.154 OA
BRANCH  13  16
ATOM     16  C   UNL     1     -35.455  23.800   3.299  0.00  0.00    +0.199 C 
BRANCH  16  17
ATOM     17  C   UNL     1     -36.599  23.111   2.621  0.00  0.00    +0.009 C 
ATOM     18  C   UNL     1     -36.555  21.746   2.341  0.00  0.00    +0.073 C 
ATOM     19  C   UNL     1     -37.722  23.860   2.267  0.00  0.00    -0.002 C 
ATOM     20  C   UNL     1     -37.634  21.128   1.709  0.00  0.00    +0.006 C 
ATOM     21  C   UNL     1     -38.800  23.242   1.634  0.00  0.00    -0.000 C 
ATOM     22  C   UNL     1     -38.757  21.877   1.355  0.00  0.00    +0.000 C 
BRANCH  18  24
ATOM     23  O   UNL     1     -35.192  20.473   3.827  0.00  0.00    -0.245 OA
ATOM     24  C   UNL     1     -35.395  20.940   2.700  0.00  0.00    +0.341 C 
BRANCH  24  25
ATOM     25  O   UNL     1     -34.559  20.764   1.632  0.00  0.00    -0.441 OA
ATOM     26  C   UNL     1     -33.996  19.458   1.463  0.00  0.00    +0.256 C 
ENDBRANCH  24  25
ENDBRANCH  18  24
ENDBRANCH  16  17
ENDBRANCH  13  16
ENDBRANCH   2  13
BRANCH   8  27
ATOM     27  O   UNL     1     -29.346  29.377   6.925  0.00  0.00    -0.450 OA
ATOM     28  C   UNL     1     -28.148  29.283   6.163  0.00  0.00    +0.255 C 
ENDBRANCH   8  27
BRANCH   9  29
ATOM     29  O   UNL     1     -32.731  31.046   4.055  0.00  0.00    -0.450 OA
ATOM     30  C   UNL     1     -33.923  30.731   3.345  0.00  0.00    +0.255 C 
ENDBRANCH   9  29
TORSDOF 7
ENDMDL
MODEL 5
REMARK VINA RESULT:      -6.3      1.601      2.522
REMARK  Name = 54960
REMARK  7 active torsions:
REMARK  status: ('A' for Active; 'I' for Inactive)
REMARK    1  A    between atoms: N_2  and  S_13
REMARK    2  A    between atoms: C_8  and  O_27
REMARK    3  A    between atoms: C_9  and  O_29
REMARK    4  A    between atoms: S_13  and  C_16
REMARK    5  A    between atoms: C_16  and  C_17
REMARK    6  A    between atoms: C_18  and  C_24
REMARK    7  A    between atoms: C_24  and  O_25
REMARK                            x       y       z     vdW  Elec       q    Type
REMARK                         _______ _______ _______ _____ _____    ______ ____
ROOT
ATOM      1  O   UNL     1     -41.159  24.812   2.206  0.00  0.00    -0.250 OA
ATOM      2  N   UNL     1     -38.960  25.071   2.917  0.00  0.00    -0.172 N 
ATOM      3  N   UNL     1     -40.590  26.582   3.618  0.00  0.00    -0.192 N 
ATOM      4  N   UNL     1     -41.794  28.345   4.596  0.00  0.00    -0.294 NA
ATOM      5  N   UNL     1     -42.890  26.738   3.173  0.00  0.00    -0.294 NA
ATOM      6  C   UNL     1     -40.344  25.449   2.861  0.00  0.00    +0.332 C 
ATOM      7  C   UNL     1     -41.819  27.255   3.805  0.00  0.00    +0.212 C 
ATOM      8  C   UNL     1     -42.983  28.962   4.753  0.00  0.00    +0.276 C 
ATOM      9  C   UNL     1     -44.045  27.404   3.374  0.00  0.00    +0.276 C 
ATOM     10  C   UNL     1     -44.154  28.533   4.161  0.00  0.00    +0.199 C 
ATOM     11  H   UNL     1     -38.363  25.632   3.461  0.00  0.00    +0.178 HD
ATOM     12  H   UNL     1     -39.811  26.967   4.082  0.00  0.00    +0.170 HD
ENDROOT
BRANCH   2  13
ATOM     13  S   UNL     1     -38.262  23.732   2.120  0.00  0.00    +0.061 S 
ATOM     14  O   UNL     1     -38.540  23.795   0.699  0.00  0.00    -0.154 OA
ATOM     15  O   UNL     1     -38.552  22.534   2.884  0.00  0.00    -0.154 OA
BRANCH  13  16
ATOM     16  C   UNL     1     -36.543  24.112   2.357  0.00  0.00    +0.199 C 
BRANCH  16  17
ATOM     17  C   UNL     1     -36.041  23.268   3.489  0.00  0.00    +0.009 C 
ATOM     18  C   UNL     1     -35.537  21.987   3.264  0.00  0.00    +0.073 C 
ATOM     19  C   UNL     1     -36.085  23.783   4.785  0.00  0.00    -0.002 C 
ATOM     20  C   UNL     1     -35.075  21.222   4.335  0.00  0.00    +0.006 C 
ATOM     21  C   UNL     1     -35.624  23.017   5.855  0.00  0.00    -0.000 C 
ATOM     22  C   UNL     1     -35.119  21.737   5.631  0.00  0.00    +0.000 C 
BRANCH  18  24
ATOM     23  O   UNL     1     -36.356  20.706   1.427  0.00  0.00    -0.245 OA
ATOM     24  C   UNL     1     -35.479  21.425   1.921  0.00  0.00    +0.341 C 
BRANCH  24  25
ATOM     25  O   UNL     1     -34.331  21.793   1.274  0.00  0.00    -0.441 OA
ATOM     26  C   UNL     1     -33.650  20.770   0.539  0.00  0.00    +0.256 C 
ENDBRANCH  24  25
ENDBRANCH  18  24
ENDBRANCH  16  17
ENDBRANCH  13  16
ENDBRANCH   2  13
BRANCH   8  27
ATOM     27  O   UNL     1     -43.007  30.076   5.549  0.00  0.00    -0.450 OA
ATOM     28  C   UNL     1     -44.279  30.487   6.036  0.00  0.00    +0.255 C 
ENDBRANCH   8  27
BRANCH   9  29
ATOM     29  O   UNL     1     -45.163  26.914   2.751  0.00  0.00    -0.450 OA
ATOM     30  C   UNL     1     -45.453  25.535   2.945  0.00  0.00    +0.255 C 
ENDBRANCH   9  29
TORSDOF 7
ENDMDL
MODEL 6
REMARK VINA RESULT:      -6.3      2.146      8.930
REMARK  Name = 54960
REMARK  7 active torsions:
REMARK  status: ('A' for Active; 'I' for Inactive)
REMARK    1  A    between atoms: N_2  and  S_13
REMARK    2  A    between atoms: C_8  and  O_27
REMARK    3  A    between atoms: C_9  and  O_29
REMARK    4  A    between atoms: S_13  and  C_16
REMARK    5  A    between atoms: C_16  and  C_17
REMARK    6  A    between atoms: C_18  and  C_24
REMARK    7  A    between atoms: C_24  and  O_25
REMARK                            x       y       z     vdW  Elec       q    Type
REMARK                         _______ _______ _______ _____ _____    ______ ____
ROOT
ATOM      1  O   UNL     1     -39.367  25.917   1.767  0.00  0.00    -0.250 OA
ATOM      2  N   UNL     1     -40.888  26.132   3.513  0.00  0.00    -0.172 N 
ATOM      3  N   UNL     1     -38.777  25.234   3.921  0.00  0.00    -0.192 N 
ATOM      4  N   UNL     1     -36.846  24.287   4.863  0.00  0.00    -0.294 NA
ATOM      5  N   UNL     1     -36.943  24.819   2.515  0.00  0.00    -0.294 NA
ATOM      6  C   UNL     1     -39.618  25.762   2.956  0.00  0.00    +0.332 C 
ATOM      7  C   UNL     1     -37.456  24.756   3.758  0.00  0.00    +0.212 C 
ATOM      8  C   UNL     1     -35.588  23.840   4.672  0.00  0.00    +0.276 C 
ATOM      9  C   UNL     1     -35.682  24.355   2.396  0.00  0.00    +0.276 C 
ATOM     10  C   UNL     1     -34.948  23.849   3.449  0.00  0.00    +0.199 C 
ATOM     11  H   UNL     1     -41.019  25.976   4.475  0.00  0.00    +0.178 HD
ATOM     12  H   UNL     1     -39.146  25.183   4.832  0.00  0.00    +0.170 HD
ENDROOT
BRANCH   2  13
ATOM     13  S   UNL     1     -42.192  26.818   2.649  0.00  0.00    +0.061 S 
ATOM     14  O   UNL     1     -42.669  25.890   1.644  0.00  0.00    -0.154 OA
ATOM     15  O   UNL     1     -41.851  28.184   2.301  0.00  0.00    -0.154 OA
BRANCH  13  16
ATOM     16  C   UNL     1     -43.402  26.887   3.948  0.00  0.00    +0.199 C 
BRANCH  16  17
ATOM     17  C   UNL     1     -44.432  27.903   3.559  0.00  0.00    +0.009 C 
ATOM     18  C   UNL     1     -44.562  29.101   4.260  0.00  0.00    +0.073 C 
ATOM     19  C   UNL     1     -45.269  27.633   2.476  0.00  0.00    -0.002 C 
ATOM     20  C   UNL     1     -45.530  30.031   3.878  0.00  0.00    +0.006 C 
ATOM     21  C   UNL     1     -46.236  28.562   2.095  0.00  0.00    -0.000 C 
ATOM     22  C   UNL     1     -46.367  29.761   2.795  0.00  0.00    +0.000 C 
BRANCH  18  24
ATOM     23  O   UNL     1     -42.481  29.592   5.314  0.00  0.00    -0.245 OA
ATOM     24  C   UNL     1     -43.701  29.408   5.394  0.00  0.00    +0.341 C 
BRANCH  24  25
ATOM     25  O   UNL     1     -44.413  29.469   6.561  0.00  0.00    -0.441 OA
ATOM     26  C   UNL     1     -43.904  30.335   7.582  0.00  0.00    +0.256 C 
ENDBRANCH  24  25
ENDBRANCH  18  24
ENDBRANCH  16  17
ENDBRANCH  13  16
ENDBRANCH   2  13
BRANCH   8  27
ATOM     27  O   UNL     1     -34.927  23.352   5.768  0.00  0.00    -0.450 OA
ATOM     28  C   UNL     1     -35.287  22.047   6.205  0.00  0.00    +0.255 C 
ENDBRANCH   8  27
BRANCH   9  29
ATOM     29  O   UNL     1     -35.117  24.400   1.148  0.00  0.00    -0.450 OA
ATOM     30  C   UNL     1     -35.315  25.591   0.397  0.00  0.00    +0.255 C 
ENDBRANCH   9  29
TORSDOF 7
ENDMDL
MODEL 7
REMARK VINA RESULT:      -6.2      5.371      8.719
REMARK  Name = 54960
REMARK  7 active torsions:
REMARK  status: ('A' for Active; 'I' for Inactive)
REMARK    1  A    between atoms: N_2  and  S_13
REMARK    2  A    between atoms: C_8  and  O_27
REMARK    3  A    between atoms: C_9  and  O_29
REMARK    4  A    between atoms: S_13  and  C_16
REMARK    5  A    between atoms: C_16  and  C_17
REMARK    6  A    between atoms: C_18  and  C_24
REMARK    7  A    between atoms: C_24  and  O_25
REMARK                            x       y       z     vdW  Elec       q    Type
REMARK                         _______ _______ _______ _____ _____    ______ ____
ROOT
ATOM      1  O   UNL     1     -31.967  28.738   4.738  0.00  0.00    -0.250 OA
ATOM      2  N   UNL     1     -34.038  27.758   4.341  0.00  0.00    -0.172 N 
ATOM      3  N   UNL     1     -33.608  29.913   3.565  0.00  0.00    -0.192 N 
ATOM      4  N   UNL     1     -33.709  32.047   2.591  0.00  0.00    -0.294 NA
ATOM      5  N   UNL     1     -31.717  31.296   3.720  0.00  0.00    -0.294 NA
ATOM      6  C   UNL     1     -33.086  28.829   4.249  0.00  0.00    +0.332 C 
ATOM      7  C   UNL     1     -32.980  31.147   3.277  0.00  0.00    +0.212 C 
ATOM      8  C   UNL     1     -33.080  33.212   2.334  0.00  0.00    +0.276 C 
ATOM      9  C   UNL     1     -31.149  32.483   3.429  0.00  0.00    +0.276 C 
ATOM     10  C   UNL     1     -31.787  33.489   2.732  0.00  0.00    +0.199 C 
ATOM     11  H   UNL     1     -34.919  27.903   3.928  0.00  0.00    +0.178 HD
ATOM     12  H   UNL     1     -34.532  29.812   3.239  0.00  0.00    +0.170 HD
ENDROOT
BRANCH   2  13
ATOM     13  S   UNL     1     -33.774  26.254   5.106  0.00  0.00    +0.061 S 
ATOM     14  O   UNL     1     -33.274  26.459   6.451  0.00  0.00    -0.154 OA
ATOM     15  O   UNL     1     -33.086  25.377   4.179  0.00  0.00    -0.154 OA
BRANCH  13  16
ATOM     16  C   UNL     1     -35.453  25.688   5.228  0.00  0.00    +0.199 C 
BRANCH  16  17
ATOM     17  C   UNL     1     -35.457  24.212   4.970  0.00  0.00    +0.009 C 
ATOM     18  C   UNL     1     -35.838  23.698   3.731  0.00  0.00    +0.073 C 
ATOM     19  C   UNL     1     -35.071  23.348   5.995  0.00  0.00    -0.002 C 
ATOM     20  C   UNL     1     -35.833  22.319   3.516  0.00  0.00    +0.006 C 
ATOM     21  C   UNL     1     -35.066  21.970   5.780  0.00  0.00    -0.000 C 
ATOM     22  C   UNL     1     -35.447  21.455   4.541  0.00  0.00    +0.000 C 
BRANCH  18  24
ATOM     23  O   UNL     1     -35.460  25.205   1.922  0.00  0.00    -0.245 OA
ATOM     24  C   UNL     1     -36.246  24.578   2.643  0.00  0.00    +0.341 C 
BRANCH  24  25
ATOM     25  O   UNL     1     -37.607  24.622   2.519  0.00  0.00    -0.441 OA
ATOM     26  C   UNL     1     -38.256  25.818   2.964  0.00  0.00    +0.256 C 
ENDBRANCH  24  25
ENDBRANCH  18  24
ENDBRANCH  16  17
ENDBRANCH  13  16
ENDBRANCH   2  13
BRANCH   8  27
ATOM     27  O   UNL     1     -33.781  34.160   1.638  0.00  0.00    -0.450 OA
ATOM     28  C   UNL     1     -35.074  33.787   1.175  0.00  0.00    +0.255 C 
ENDBRANCH   8  27
BRANCH   9  29
ATOM     29  O   UNL     1     -29.863  32.681   3.858  0.00  0.00    -0.450 OA
ATOM     30  C   UNL     1     -29.161  33.783   3.296  0.00  0.00    +0.255 C 
ENDBRANCH   9  29
TORSDOF 7
ENDMDL
MODEL 8
REMARK VINA RESULT:      -6.2      4.266      8.554
REMARK  Name = 54960
REMARK  7 active torsions:
REMARK  status: ('A' for Active; 'I' for Inactive)
REMARK    1  A    between atoms: N_2  and  S_13
REMARK    2  A    between atoms: C_8  and  O_27
REMARK    3  A    between atoms: C_9  and  O_29
REMARK    4  A    between atoms: S_13  and  C_16
REMARK    5  A    between atoms: C_16  and  C_17
REMARK    6  A    between atoms: C_18  and  C_24
REMARK    7  A    between atoms: C_24  and  O_25
REMARK                            x       y       z     vdW  Elec       q    Type
REMARK                         _______ _______ _______ _____ _____    ______ ____
ROOT
ATOM      1  O   UNL     1     -34.850  27.127   4.403  0.00  0.00    -0.250 OA
ATOM      2  N   UNL     1     -34.589  25.047   5.410  0.00  0.00    -0.172 N 
ATOM      3  N   UNL     1     -32.986  26.705   5.744  0.00  0.00    -0.192 N 
ATOM      4  N   UNL     1     -31.121  27.975   6.395  0.00  0.00    -0.294 NA
ATOM      5  N   UNL     1     -32.810  28.909   4.954  0.00  0.00    -0.294 NA
ATOM      6  C   UNL     1     -34.182  26.393   5.121  0.00  0.00    +0.332 C 
ATOM      7  C   UNL     1     -32.270  27.924   5.695  0.00  0.00    +0.212 C 
ATOM      8  C   UNL     1     -30.464  29.150   6.327  0.00  0.00    +0.276 C 
ATOM      9  C   UNL     1     -32.102  30.057   4.929  0.00  0.00    +0.276 C 
ATOM     10  C   UNL     1     -30.910  30.238   5.602  0.00  0.00    +0.199 C 
ATOM     11  H   UNL     1     -34.000  24.515   5.992  0.00  0.00    +0.178 HD
ATOM     12  H   UNL     1     -32.584  25.990   6.288  0.00  0.00    +0.170 HD
ENDROOT
BRANCH   2  13
ATOM     13  S   UNL     1     -36.005  24.289   4.830  0.00  0.00    +0.061 S 
ATOM     14  O   UNL     1     -37.133  25.194   4.927  0.00  0.00    -0.154 OA
ATOM     15  O   UNL     1     -36.073  22.950   5.383  0.00  0.00    -0.154 OA
BRANCH  13  16
ATOM     16  C   UNL     1     -35.574  24.135   3.114  0.00  0.00    +0.199 C 
BRANCH  16  17
ATOM     17  C   UNL     1     -35.965  22.760   2.666  0.00  0.00    +0.009 C 
ATOM     18  C   UNL     1     -37.220  22.512   2.112  0.00  0.00    +0.073 C 
ATOM     19  C   UNL     1     -35.048  21.718   2.813  0.00  0.00    -0.002 C 
ATOM     20  C   UNL     1     -37.559  21.222   1.703  0.00  0.00    +0.006 C 
ATOM     21  C   UNL     1     -35.388  20.429   2.404  0.00  0.00    -0.000 C 
ATOM     22  C   UNL     1     -36.643  20.180   1.849  0.00  0.00    +0.000 C 
BRANCH  18  24
ATOM     23  O   UNL     1     -38.220  24.362   0.989  0.00  0.00    -0.245 OA
ATOM     24  C   UNL     1     -38.196  23.581   1.947  0.00  0.00    +0.341 C 
BRANCH  24  25
ATOM     25  O   UNL     1     -39.084  23.612   2.988  0.00  0.00    -0.441 OA
ATOM     26  C   UNL     1     -39.974  24.733   3.042  0.00  0.00    +0.256 C 
ENDBRANCH  24  25
ENDBRANCH  18  24
ENDBRANCH  16  17
ENDBRANCH  13  16
ENDBRANCH   2  13
BRANCH   8  27
ATOM     27  O   UNL     1     -29.289  29.250   7.023  0.00  0.00    -0.450 OA
ATOM     28  C   UNL     1     -28.406  28.137   6.951  0.00  0.00    +0.255 C 
ENDBRANCH   8  27
BRANCH   9  29
ATOM     29  O   UNL     1     -32.613  31.089   4.187  0.00  0.00    -0.450 OA
ATOM     30  C   UNL     1     -31.677  31.895   3.481  0.00  0.00    +0.255 C 
ENDBRANCH   9  29
TORSDOF 7
ENDMDL
MODEL 9
REMARK VINA RESULT:      -6.1      5.558      8.801
REMARK  Name = 54960
REMARK  7 active torsions:
REMARK  status: ('A' for Active; 'I' for Inactive)
REMARK    1  A    between atoms: N_2  and  S_13
REMARK    2  A    between atoms: C_8  and  O_27
REMARK    3  A    between atoms: C_9  and  O_29
REMARK    4  A    between atoms: S_13  and  C_16
REMARK    5  A    between atoms: C_16  and  C_17
REMARK    6  A    between atoms: C_18  and  C_24
REMARK    7  A    between atoms: C_24  and  O_25
REMARK                            x       y       z     vdW  Elec       q    Type
REMARK                         _______ _______ _______ _____ _____    ______ ____
ROOT
ATOM      1  O   UNL     1     -38.956  20.234   0.155  0.00  0.00    -0.250 OA
ATOM      2  N   UNL     1     -36.894  20.847   1.036  0.00  0.00    -0.172 N 
ATOM      3  N   UNL     1     -37.195  18.701   0.180  0.00  0.00    -0.192 N 
ATOM      4  N   UNL     1     -36.957  16.474  -0.525  0.00  0.00    -0.294 NA
ATOM      5  N   UNL     1     -39.051  17.636  -0.787  0.00  0.00    -0.294 NA
ATOM      6  C   UNL     1     -37.801  19.924   0.417  0.00  0.00    +0.332 C 
ATOM      7  C   UNL     1     -37.763  17.547  -0.407  0.00  0.00    +0.212 C 
ATOM      8  C   UNL     1     -37.530  15.391  -1.089  0.00  0.00    +0.276 C 
ATOM      9  C   UNL     1     -39.560  16.518  -1.342  0.00  0.00    +0.276 C 
ATOM     10  C   UNL     1     -38.840  15.354  -1.521  0.00  0.00    +0.199 C 
ATOM     11  H   UNL     1     -35.981  20.527   1.219  0.00  0.00    +0.178 HD
ATOM     12  H   UNL     1     -36.253  18.626   0.456  0.00  0.00    +0.170 HD
ENDROOT
BRANCH   2  13
ATOM     13  S   UNL     1     -37.261  22.454   1.484  0.00  0.00    +0.061 S 
ATOM     14  O   UNL     1     -38.116  22.463   2.654  0.00  0.00    -0.154 OA
ATOM     15  O   UNL     1     -37.619  23.198   0.292  0.00  0.00    -0.154 OA
BRANCH  13  16
ATOM     16  C   UNL     1     -35.645  22.996   1.985  0.00  0.00    +0.199 C 
BRANCH  16  17
ATOM     17  C   UNL     1     -35.544  22.821   3.469  0.00  0.00    +0.009 C 
ATOM     18  C   UNL     1     -35.685  23.905   4.334  0.00  0.00    +0.073 C 
ATOM     19  C   UNL     1     -35.302  21.546   3.981  0.00  0.00    -0.002 C 
ATOM     20  C   UNL     1     -35.586  23.715   5.713  0.00  0.00    +0.006 C 
ATOM     21  C   UNL     1     -35.203  21.356   5.359  0.00  0.00    -0.000 C 
ATOM     22  C   UNL     1     -35.345  22.440   6.225  0.00  0.00    +0.000 C 
BRANCH  18  24
ATOM     23  O   UNL     1     -35.053  26.059   3.529  0.00  0.00    -0.245 OA
ATOM     24  C   UNL     1     -35.938  25.247   3.826  0.00  0.00    +0.341 C 
BRANCH  24  25
ATOM     25  O   UNL     1     -37.278  25.497   3.716  0.00  0.00    -0.441 OA
ATOM     26  C   UNL     1     -37.710  26.196   2.544  0.00  0.00    +0.256 C 
ENDBRANCH  24  25
ENDBRANCH  18  24
ENDBRANCH  16  17
ENDBRANCH  13  16
ENDBRANCH   2  13
BRANCH   8  27
ATOM     27  O   UNL     1     -36.749  14.275  -1.231  0.00  0.00    -0.450 OA
ATOM     28  C   UNL     1     -36.622  13.745  -2.545  0.00  0.00    +0.255 C 
ENDBRANCH   8  27
BRANCH   9  29
ATOM     29  O   UNL     1     -40.869  16.562  -1.745  0.00  0.00    -0.450 OA
ATOM     30  C   UNL     1     -41.323  17.784  -2.317  0.00  0.00    +0.255 C 
ENDBRANCH   9  29
TORSDOF 7
ENDMDL
