MODEL 1
REMARK VINA RESULT:      -6.0      0.000      0.000
REMARK  Name = 5328
REMARK  3 active torsions:
REMARK  status: ('A' for Active; 'I' for Inactive)
REMARK    1  A    between atoms: S_1  and  N_5
REMARK    2  A    between atoms: S_1  and  C_12
REMARK    3  A    between atoms: C_15  and  N_18
REMARK                            x       y       z     vdW  Elec       q    Type
REMARK                         _______ _______ _______ _____ _____    ______ ____
ROOT
ATOM      1  S   UNL     1     -35.801  20.830   1.771  0.00  0.00    +0.075 S 
ATOM      2  O   UNL     1     -36.704  19.687   1.720  0.00  0.00    -0.150 OA
ATOM      3  O   UNL     1     -36.161  22.043   1.047  0.00  0.00    -0.150 OA
ENDROOT
BRANCH   1   5
ATOM      4  S   UNL     1     -34.998  23.415   5.049  0.00  0.00    -0.034 S 
ATOM      5  N   UNL     1     -35.513  21.211   3.427  0.00  0.00    -0.192 N 
ATOM      6  N   UNL     1     -37.019  23.119   3.502  0.00  0.00    -0.124 NA
ATOM      7  N   UNL     1     -37.184  24.355   4.101  0.00  0.00    -0.144 NA
ATOM      8  C   UNL     1     -35.913  22.508   3.903  0.00  0.00    +0.201 A 
ATOM      9  C   UNL     1     -36.202  24.631   4.931  0.00  0.00    +0.113 A 
ATOM     10  C   UNL     1     -36.077  25.869   5.726  0.00  0.00    +0.061 C 
ATOM     11  H   UNL     1     -35.088  20.560   4.030  0.00  0.00    +0.176 HD
ENDBRANCH   1   5
BRANCH   1  12
ATOM     12  C   UNL     1     -34.233  20.294   1.219  0.00  0.00    +0.125 C 
ATOM     13  C   UNL     1     -33.737  19.054   1.626  0.00  0.00    +0.021 C 
ATOM     14  C   UNL     1     -33.477  21.104   0.373  0.00  0.00    +0.021 C 
ATOM     15  C   UNL     1     -31.729  19.437   0.339  0.00  0.00    +0.042 C 
ATOM     16  C   UNL     1     -32.485  18.626   1.186  0.00  0.00    +0.015 C 
ATOM     17  C   UNL     1     -32.225  20.676  -0.068  0.00  0.00    +0.015 C 
BRANCH  15  18
ATOM     18  N   UNL     1     -30.463  19.003  -0.108  0.00  0.00    -0.357 N 
ATOM     19  H   UNL     1     -30.367  18.606  -1.003  0.00  0.00    +0.142 HD
ATOM     20  H   UNL     1     -29.676  19.098   0.476  0.00  0.00    +0.142 HD
ENDBRANCH  15  18
ENDBRANCH   1  12
TORSDOF 3
ENDMDL
MODEL 2
REMARK VINA RESULT:      -5.9      1.374      1.704
REMARK  Name = 5328
REMARK  3 active torsions:
REMARK  status: ('A' for Active; 'I' for Inactive)
REMARK    1  A    between atoms: S_1  and  N_5
REMARK    2  A    between atoms: S_1  and  C_12
REMARK    3  A    between atoms: C_15  and  N_18
REMARK                            x       y       z     vdW  Elec       q    Type
REMARK                         _______ _______ _______ _____ _____    ______ ____
ROOT
ATOM      1  S   UNL     1     -36.279  21.052   1.532  0.00  0.00    +0.075 S 
ATOM      2  O   UNL     1     -37.658  20.581   1.496  0.00  0.00    -0.150 OA
ATOM      3  O   UNL     1     -35.911  22.211   0.729  0.00  0.00    -0.150 OA
ENDROOT
BRANCH   1   5
ATOM      4  S   UNL     1     -35.102  23.422   4.859  0.00  0.00    -0.034 S 
ATOM      5  N   UNL     1     -35.853  21.333   3.178  0.00  0.00    -0.192 N 
ATOM      6  N   UNL     1     -37.241  23.310   3.454  0.00  0.00    -0.124 NA
ATOM      7  N   UNL     1     -37.295  24.521   4.121  0.00  0.00    -0.144 NA
ATOM      8  C   UNL     1     -36.146  22.623   3.743  0.00  0.00    +0.201 A 
ATOM      9  C   UNL     1     -36.242  24.703   4.887  0.00  0.00    +0.113 A 
ATOM     10  C   UNL     1     -35.993  25.892   5.728  0.00  0.00    +0.061 C 
ATOM     11  H   UNL     1     -35.423  20.631   3.717  0.00  0.00    +0.176 HD
ENDBRANCH   1   5
BRANCH   1  12
ATOM     12  C   UNL     1     -35.248  19.714   1.089  0.00  0.00    +0.125 C 
ATOM     13  C   UNL     1     -35.669  18.801   0.120  0.00  0.00    +0.021 C 
ATOM     14  C   UNL     1     -34.005  19.557   1.702  0.00  0.00    +0.021 C 
ATOM     15  C   UNL     1     -33.603  17.576   0.380  0.00  0.00    +0.042 C 
ATOM     16  C   UNL     1     -34.846  17.732  -0.233  0.00  0.00    +0.015 C 
ATOM     17  C   UNL     1     -33.182  18.488   1.348  0.00  0.00    +0.015 C 
BRANCH  15  18
ATOM     18  N   UNL     1     -32.770  16.496   0.021  0.00  0.00    -0.357 N 
ATOM     19  H   UNL     1     -32.607  16.294  -0.929  0.00  0.00    +0.142 HD
ATOM     20  H   UNL     1     -32.351  15.943   0.720  0.00  0.00    +0.142 HD
ENDBRANCH  15  18
ENDBRANCH   1  12
TORSDOF 3
ENDMDL
MODEL 3
REMARK VINA RESULT:      -5.9      3.823      4.953
REMARK  Name = 5328
REMARK  3 active torsions:
REMARK  status: ('A' for Active; 'I' for Inactive)
REMARK    1  A    between atoms: S_1  and  N_5
REMARK    2  A    between atoms: S_1  and  C_12
REMARK    3  A    between atoms: C_15  and  N_18
REMARK                            x       y       z     vdW  Elec       q    Type
REMARK                         _______ _______ _______ _____ _____    ______ ____
ROOT
ATOM      1  S   UNL     1     -35.696  23.737   4.654  0.00  0.00    +0.075 S 
ATOM      2  O   UNL     1     -35.200  23.012   5.819  0.00  0.00    -0.150 OA
ATOM      3  O   UNL     1     -36.723  24.753   4.844  0.00  0.00    -0.150 OA
ENDROOT
BRANCH   1   5
ATOM      4  S   UNL     1     -33.168  26.913   3.392  0.00  0.00    -0.034 S 
ATOM      5  N   UNL     1     -34.345  24.429   3.839  0.00  0.00    -0.192 N 
ATOM      6  N   UNL     1     -33.662  25.865   5.678  0.00  0.00    -0.124 NA
ATOM      7  N   UNL     1     -33.080  27.092   5.946  0.00  0.00    -0.144 NA
ATOM      8  C   UNL     1     -33.773  25.634   4.378  0.00  0.00    +0.201 A 
ATOM      9  C   UNL     1     -32.774  27.739   4.843  0.00  0.00    +0.113 A 
ATOM     10  C   UNL     1     -32.145  29.073   4.782  0.00  0.00    +0.061 C 
ATOM     11  H   UNL     1     -33.974  24.012   3.028  0.00  0.00    +0.176 HD
ENDBRANCH   1   5
BRANCH   1  12
ATOM     12  C   UNL     1     -36.280  22.559   3.504  0.00  0.00    +0.125 C 
ATOM     13  C   UNL     1     -37.501  22.761   2.859  0.00  0.00    +0.021 C 
ATOM     14  C   UNL     1     -35.527  21.418   3.230  0.00  0.00    +0.021 C 
ATOM     15  C   UNL     1     -37.214  20.679   1.668  0.00  0.00    +0.042 C 
ATOM     16  C   UNL     1     -37.968  21.821   1.941  0.00  0.00    +0.015 C 
ATOM     17  C   UNL     1     -35.993  20.478   2.312  0.00  0.00    +0.015 C 
BRANCH  15  18
ATOM     18  N   UNL     1     -37.685  19.729   0.738  0.00  0.00    -0.357 N 
ATOM     19  H   UNL     1     -38.626  19.439   0.764  0.00  0.00    +0.142 HD
ATOM     20  H   UNL     1     -37.074  19.355   0.064  0.00  0.00    +0.142 HD
ENDBRANCH  15  18
ENDBRANCH   1  12
TORSDOF 3
ENDMDL
MODEL 4
REMARK VINA RESULT:      -5.8      4.465      6.133
REMARK  Name = 5328
REMARK  3 active torsions:
REMARK  status: ('A' for Active; 'I' for Inactive)
REMARK    1  A    between atoms: S_1  and  N_5
REMARK    2  A    between atoms: S_1  and  C_12
REMARK    3  A    between atoms: C_15  and  N_18
REMARK                            x       y       z     vdW  Elec       q    Type
REMARK                         _______ _______ _______ _____ _____    ______ ____
ROOT
ATOM      1  S   UNL     1     -35.448  26.172   3.744  0.00  0.00    +0.075 S 
ATOM      2  O   UNL     1     -35.942  27.001   4.837  0.00  0.00    -0.150 OA
ATOM      3  O   UNL     1     -36.150  26.201   2.467  0.00  0.00    -0.150 OA
ENDROOT
BRANCH   1   5
ATOM      4  S   UNL     1     -31.887  28.432   4.271  0.00  0.00    -0.034 S 
ATOM      5  N   UNL     1     -33.785  26.547   3.496  0.00  0.00    -0.192 N 
ATOM      6  N   UNL     1     -33.278  26.958   5.839  0.00  0.00    -0.124 NA
ATOM      7  N   UNL     1     -32.479  27.730   6.663  0.00  0.00    -0.144 NA
ATOM      8  C   UNL     1     -33.077  27.217   4.555  0.00  0.00    +0.201 A 
ATOM      9  C   UNL     1     -31.706  28.541   5.974  0.00  0.00    +0.113 A 
ATOM     10  C   UNL     1     -30.740  29.496   6.551  0.00  0.00    +0.061 C 
ATOM     11  H   UNL     1     -33.332  26.311   2.655  0.00  0.00    +0.176 HD
ENDBRANCH   1   5
BRANCH   1  12
ATOM     12  C   UNL     1     -35.391  24.521   4.312  0.00  0.00    +0.125 C 
ATOM     13  C   UNL     1     -35.319  24.257   5.680  0.00  0.00    +0.021 C 
ATOM     14  C   UNL     1     -35.420  23.467   3.399  0.00  0.00    +0.021 C 
ATOM     15  C   UNL     1     -35.301  21.886   5.221  0.00  0.00    +0.042 C 
ATOM     16  C   UNL     1     -35.273  22.939   6.134  0.00  0.00    +0.015 C 
ATOM     17  C   UNL     1     -35.374  22.149   3.853  0.00  0.00    +0.015 C 
BRANCH  15  18
ATOM     18  N   UNL     1     -35.257  20.553   5.680  0.00  0.00    -0.357 N 
ATOM     19  H   UNL     1     -35.637  20.321   6.558  0.00  0.00    +0.142 HD
ATOM     20  H   UNL     1     -34.845  19.853   5.123  0.00  0.00    +0.142 HD
ENDBRANCH  15  18
ENDBRANCH   1  12
TORSDOF 3
ENDMDL
MODEL 5
REMARK VINA RESULT:      -5.7      4.578      6.234
REMARK  Name = 5328
REMARK  3 active torsions:
REMARK  status: ('A' for Active; 'I' for Inactive)
REMARK    1  A    between atoms: S_1  and  N_5
REMARK    2  A    between atoms: S_1  and  C_12
REMARK    3  A    between atoms: C_15  and  N_18
REMARK                            x       y       z     vdW  Elec       q    Type
REMARK                         _______ _______ _______ _____ _____    ______ ____
ROOT
ATOM      1  S   UNL     1     -34.479  26.042   4.734  0.00  0.00    +0.075 S 
ATOM      2  O   UNL     1     -33.219  25.946   5.462  0.00  0.00    -0.150 OA
ATOM      3  O   UNL     1     -35.629  26.646   5.396  0.00  0.00    -0.150 OA
ENDROOT
BRANCH   1   5
ATOM      4  S   UNL     1     -34.560  29.349   2.064  0.00  0.00    -0.034 S 
ATOM      5  N   UNL     1     -34.176  26.857   3.246  0.00  0.00    -0.192 N 
ATOM      6  N   UNL     1     -33.315  28.894   4.257  0.00  0.00    -0.124 NA
ATOM      7  N   UNL     1     -33.252  30.263   4.068  0.00  0.00    -0.144 NA
ATOM      8  C   UNL     1     -33.972  28.281   3.283  0.00  0.00    +0.201 A 
ATOM      9  C   UNL     1     -33.861  30.632   2.963  0.00  0.00    +0.113 A 
ATOM     10  C   UNL     1     -33.977  32.021   2.474  0.00  0.00    +0.061 C 
ATOM     11  H   UNL     1     -34.144  26.363   2.396  0.00  0.00    +0.176 HD
ENDBRANCH   1   5
BRANCH   1  12
ATOM     12  C   UNL     1     -34.915  24.434   4.212  0.00  0.00    +0.125 C 
ATOM     13  C   UNL     1     -35.116  23.425   5.155  0.00  0.00    +0.021 C 
ATOM     14  C   UNL     1     -35.064  24.157   2.853  0.00  0.00    +0.021 C 
ATOM     15  C   UNL     1     -35.612  21.864   3.380  0.00  0.00    +0.042 C 
ATOM     16  C   UNL     1     -35.464  22.140   4.739  0.00  0.00    +0.015 C 
ATOM     17  C   UNL     1     -35.412  22.872   2.437  0.00  0.00    +0.015 C 
BRANCH  15  18
ATOM     18  N   UNL     1     -35.966  20.565   2.958  0.00  0.00    -0.357 N 
ATOM     19  H   UNL     1     -35.420  19.793   3.232  0.00  0.00    +0.142 HD
ATOM     20  H   UNL     1     -36.758  20.431   2.390  0.00  0.00    +0.142 HD
ENDBRANCH  15  18
ENDBRANCH   1  12
TORSDOF 3
ENDMDL
MODEL 6
REMARK VINA RESULT:      -5.6      5.296      6.564
REMARK  Name = 5328
REMARK  3 active torsions:
REMARK  status: ('A' for Active; 'I' for Inactive)
REMARK    1  A    between atoms: S_1  and  N_5
REMARK    2  A    between atoms: S_1  and  C_12
REMARK    3  A    between atoms: C_15  and  N_18
REMARK                            x       y       z     vdW  Elec       q    Type
REMARK                         _______ _______ _______ _____ _____    ______ ____
ROOT
ATOM      1  S   UNL     1     -37.061  24.100   3.219  0.00  0.00    +0.075 S 
ATOM      2  O   UNL     1     -36.974  22.758   3.781  0.00  0.00    -0.150 OA
ATOM      3  O   UNL     1     -36.950  24.267   1.776  0.00  0.00    -0.150 OA
ENDROOT
BRANCH   1   5
ATOM      4  S   UNL     1     -40.803  26.064   2.763  0.00  0.00    -0.034 S 
ATOM      5  N   UNL     1     -38.526  24.818   3.772  0.00  0.00    -0.192 N 
ATOM      6  N   UNL     1     -39.962  23.724   2.143  0.00  0.00    -0.124 NA
ATOM      7  N   UNL     1     -41.113  23.916   1.401  0.00  0.00    -0.144 NA
ATOM      8  C   UNL     1     -39.674  24.769   2.906  0.00  0.00    +0.201 A 
ATOM      9  C   UNL     1     -41.651  25.094   1.630  0.00  0.00    +0.113 A 
ATOM     10  C   UNL     1     -42.882  25.609   0.997  0.00  0.00    +0.061 C 
ATOM     11  H   UNL     1     -38.577  25.250   4.655  0.00  0.00    +0.176 HD
ENDBRANCH   1   5
BRANCH   1  12
ATOM     12  C   UNL     1     -35.836  25.079   3.990  0.00  0.00    +0.125 C 
ATOM     13  C   UNL     1     -35.104  25.999   3.238  0.00  0.00    +0.021 C 
ATOM     14  C   UNL     1     -35.590  24.941   5.355  0.00  0.00    +0.021 C 
ATOM     15  C   UNL     1     -33.879  26.642   5.218  0.00  0.00    +0.042 C 
ATOM     16  C   UNL     1     -34.126  26.781   3.853  0.00  0.00    +0.015 C 
ATOM     17  C   UNL     1     -34.611  25.722   5.970  0.00  0.00    +0.015 C 
BRANCH  15  18
ATOM     18  N   UNL     1     -32.891  27.433   5.841  0.00  0.00    -0.357 N 
ATOM     19  H   UNL     1     -32.352  27.059   6.575  0.00  0.00    +0.142 HD
ATOM     20  H   UNL     1     -32.742  28.359   5.543  0.00  0.00    +0.142 HD
ENDBRANCH  15  18
ENDBRANCH   1  12
TORSDOF 3
ENDMDL
MODEL 7
REMARK VINA RESULT:      -5.5      3.522      6.594
REMARK  Name = 5328
REMARK  3 active torsions:
REMARK  status: ('A' for Active; 'I' for Inactive)
REMARK    1  A    between atoms: S_1  and  N_5
REMARK    2  A    between atoms: S_1  and  C_12
REMARK    3  A    between atoms: C_15  and  N_18
REMARK                            x       y       z     vdW  Elec       q    Type
REMARK                         _______ _______ _______ _____ _____    ______ ____
ROOT
ATOM      1  S   UNL     1     -35.692  21.401   2.703  0.00  0.00    +0.075 S 
ATOM      2  O   UNL     1     -35.225  20.408   3.663  0.00  0.00    -0.150 OA
ATOM      3  O   UNL     1     -34.883  21.669   1.520  0.00  0.00    -0.150 OA
ENDROOT
BRANCH   1   5
ATOM      4  S   UNL     1     -38.745  20.409  -0.085  0.00  0.00    -0.034 S 
ATOM      5  N   UNL     1     -37.290  20.970   2.223  0.00  0.00    -0.192 N 
ATOM      6  N   UNL     1     -36.616  19.210   0.687  0.00  0.00    -0.124 NA
ATOM      7  N   UNL     1     -36.981  18.599  -0.500  0.00  0.00    -0.144 NA
ATOM      8  C   UNL     1     -37.450  20.181   1.031  0.00  0.00    +0.201 A 
ATOM      9  C   UNL     1     -38.073  19.128  -1.006  0.00  0.00    +0.113 A 
ATOM     10  C   UNL     1     -38.723  18.706  -2.263  0.00  0.00    +0.061 C 
ATOM     11  H   UNL     1     -38.071  21.256   2.749  0.00  0.00    +0.176 HD
ENDBRANCH   1   5
BRANCH   1  12
ATOM     12  C   UNL     1     -35.938  22.900   3.564  0.00  0.00    +0.125 C 
ATOM     13  C   UNL     1     -35.093  23.243   4.620  0.00  0.00    +0.021 C 
ATOM     14  C   UNL     1     -36.977  23.754   3.196  0.00  0.00    +0.021 C 
ATOM     15  C   UNL     1     -36.328  25.294   4.941  0.00  0.00    +0.042 C 
ATOM     16  C   UNL     1     -35.289  24.441   5.309  0.00  0.00    +0.015 C 
ATOM     17  C   UNL     1     -37.173  24.951   3.884  0.00  0.00    +0.015 C 
BRANCH  15  18
ATOM     18  N   UNL     1     -36.526  26.506   5.635  0.00  0.00    -0.357 N 
ATOM     19  H   UNL     1     -35.834  26.837   6.253  0.00  0.00    +0.142 HD
ATOM     20  H   UNL     1     -37.355  27.020   5.504  0.00  0.00    +0.142 HD
ENDBRANCH  15  18
ENDBRANCH   1  12
TORSDOF 3
ENDMDL
MODEL 8
REMARK VINA RESULT:      -5.5      2.450      6.236
REMARK  Name = 5328
REMARK  3 active torsions:
REMARK  status: ('A' for Active; 'I' for Inactive)
REMARK    1  A    between atoms: S_1  and  N_5
REMARK    2  A    between atoms: S_1  and  C_12
REMARK    3  A    between atoms: C_15  and  N_18
REMARK                            x       y       z     vdW  Elec       q    Type
REMARK                         _______ _______ _______ _____ _____    ______ ____
ROOT
ATOM      1  S   UNL     1     -37.609  24.137   3.083  0.00  0.00    +0.075 S 
ATOM      2  O   UNL     1     -37.485  24.376   1.650  0.00  0.00    -0.150 OA
ATOM      3  O   UNL     1     -38.869  24.456   3.742  0.00  0.00    -0.150 OA
ENDROOT
BRANCH   1   5
ATOM      4  S   UNL     1     -36.351  20.217   2.024  0.00  0.00    -0.034 S 
ATOM      5  N   UNL     1     -37.199  22.492   3.389  0.00  0.00    -0.192 N 
ATOM      6  N   UNL     1     -35.174  22.493   2.042  0.00  0.00    -0.124 NA
ATOM      7  N   UNL     1     -34.398  21.677   1.237  0.00  0.00    -0.144 NA
ATOM      8  C   UNL     1     -36.235  21.863   2.526  0.00  0.00    +0.201 A 
ATOM      9  C   UNL     1     -34.899  20.464   1.145  0.00  0.00    +0.113 A 
ATOM     10  C   UNL     1     -34.315  19.356   0.363  0.00  0.00    +0.061 C 
ATOM     11  H   UNL     1     -37.611  21.997   4.132  0.00  0.00    +0.176 HD
ENDBRANCH   1   5
BRANCH   1  12
ATOM     12  C   UNL     1     -36.324  25.011   3.880  0.00  0.00    +0.125 C 
ATOM     13  C   UNL     1     -35.894  24.615   5.148  0.00  0.00    +0.021 C 
ATOM     14  C   UNL     1     -35.727  26.103   3.251  0.00  0.00    +0.021 C 
ATOM     15  C   UNL     1     -34.273  26.405   5.156  0.00  0.00    +0.042 C 
ATOM     16  C   UNL     1     -34.869  25.313   5.785  0.00  0.00    +0.015 C 
ATOM     17  C   UNL     1     -34.702  26.801   3.888  0.00  0.00    +0.015 C 
BRANCH  15  18
ATOM     18  N   UNL     1     -33.234  27.110   5.799  0.00  0.00    -0.357 N 
ATOM     19  H   UNL     1     -33.219  27.176   6.781  0.00  0.00    +0.142 HD
ATOM     20  H   UNL     1     -32.525  27.537   5.266  0.00  0.00    +0.142 HD
ENDBRANCH  15  18
ENDBRANCH   1  12
TORSDOF 3
ENDMDL
MODEL 9
REMARK VINA RESULT:      -5.5      5.814      6.970
REMARK  Name = 5328
REMARK  3 active torsions:
REMARK  status: ('A' for Active; 'I' for Inactive)
REMARK    1  A    between atoms: S_1  and  N_5
REMARK    2  A    between atoms: S_1  and  C_12
REMARK    3  A    between atoms: C_15  and  N_18
REMARK                            x       y       z     vdW  Elec       q    Type
REMARK                         _______ _______ _______ _____ _____    ______ ____
ROOT
ATOM      1  S   UNL     1     -35.073  25.155   4.493  0.00  0.00    +0.075 S 
ATOM      2  O   UNL     1     -35.487  24.379   5.655  0.00  0.00    -0.150 OA
ATOM      3  O   UNL     1     -34.542  24.453   3.331  0.00  0.00    -0.150 OA
ENDROOT
BRANCH   1   5
ATOM      4  S   UNL     1     -38.457  26.190   2.137  0.00  0.00    -0.034 S 
ATOM      5  N   UNL     1     -36.398  26.146   4.012  0.00  0.00    -0.192 N 
ATOM      6  N   UNL     1     -38.009  24.333   3.844  0.00  0.00    -0.124 NA
ATOM      7  N   UNL     1     -39.123  23.925   3.133  0.00  0.00    -0.144 NA
ATOM      8  C   UNL     1     -37.548  25.505   3.433  0.00  0.00    +0.201 A 
ATOM      9  C   UNL     1     -39.462  24.803   2.213  0.00  0.00    +0.113 A 
ATOM     10  C   UNL     1     -40.602  24.668   1.283  0.00  0.00    +0.061 C 
ATOM     11  H   UNL     1     -36.369  27.123   4.130  0.00  0.00    +0.176 HD
ENDBRANCH   1   5
BRANCH   1  12
ATOM     12  C   UNL     1     -33.890  26.324   5.028  0.00  0.00    +0.125 C 
ATOM     13  C   UNL     1     -33.555  26.407   6.380  0.00  0.00    +0.021 C 
ATOM     14  C   UNL     1     -33.281  27.173   4.105  0.00  0.00    +0.021 C 
ATOM     15  C   UNL     1     -32.002  28.189   5.885  0.00  0.00    +0.042 C 
ATOM     16  C   UNL     1     -32.611  27.340   6.808  0.00  0.00    +0.015 C 
ATOM     17  C   UNL     1     -32.336  28.106   4.533  0.00  0.00    +0.015 C 
BRANCH  15  18
ATOM     18  N   UNL     1     -31.046  29.132   6.317  0.00  0.00    -0.357 N 
ATOM     19  H   UNL     1     -30.167  28.829   6.641  0.00  0.00    +0.142 HD
ATOM     20  H   UNL     1     -31.256  30.093   6.294  0.00  0.00    +0.142 HD
ENDBRANCH  15  18
ENDBRANCH   1  12
TORSDOF 3
ENDMDL
