MODEL 1
REMARK VINA RESULT:      -7.4      0.000      0.000
REMARK  Name = 56955928
REMARK  1 active torsions:
REMARK  status: ('A' for Active; 'I' for Inactive)
REMARK    1  A    between atoms: C_12  and  O_33
REMARK                            x       y       z     vdW  Elec       q    Type
REMARK                         _______ _______ _______ _____ _____    ______ ____
ROOT
ATOM      1  O   UNL     1     -34.525  23.515   2.632  0.00  0.00    -0.342 OA
ATOM      2  O   UNL     1     -33.664  26.346   2.722  0.00  0.00    -0.448 OA
ATOM      3  O   UNL     1     -37.289  24.349   4.473  0.00  0.00    -0.449 OA
ATOM      4  O   UNL     1     -38.665  25.432   3.015  0.00  0.00    -0.250 OA
ATOM      5  O   UNL     1     -33.343  25.376   4.723  0.00  0.00    -0.247 OA
ATOM      6  O   UNL     1     -33.997  19.359  -0.519  0.00  0.00    -0.452 OA
ATOM      7  O   UNL     1     -32.526  18.098   0.655  0.00  0.00    -0.245 OA
ATOM      8  C   UNL     1     -36.358  24.008   1.293  0.00  0.00    +0.044 C 
ATOM      9  C   UNL     1     -36.314  25.077   2.443  0.00  0.00    +0.146 C 
ATOM     10  C   UNL     1     -34.838  23.716   1.211  0.00  0.00    +0.138 C 
ATOM     11  C   UNL     1     -35.189  24.561   3.368  0.00  0.00    +0.231 C 
ATOM     12  C   UNL     1     -34.061  25.019   0.719  0.00  0.00    +0.179 C 
ATOM     13  C   UNL     1     -34.419  26.350   1.482  0.00  0.00    +0.179 C 
ATOM     14  C   UNL     1     -37.118  22.721   1.707  0.00  0.00    +0.004 C 
ATOM     15  C   UNL     1     -35.882  26.416   1.891  0.00  0.00    +0.006 C 
ATOM     16  C   UNL     1     -34.448  22.411   0.463  0.00  0.00    -0.011 C 
ATOM     17  C   UNL     1     -35.355  21.142   0.622  0.00  0.00    +0.070 C 
ATOM     18  C   UNL     1     -35.879  24.180   4.677  0.00  0.00    +0.205 C 
ATOM     19  C   UNL     1     -36.850  21.548   0.775  0.00  0.00    +0.011 C 
ATOM     20  C   UNL     1     -37.017  24.512  -0.012  0.00  0.00    +0.004 C 
ATOM     21  C   UNL     1     -37.554  25.026   3.317  0.00  0.00    +0.323 C 
ATOM     22  C   UNL     1     -34.002  25.465   3.691  0.00  0.00    +0.346 C 
ATOM     23  C   UNL     1     -35.284  20.045  -0.541  0.00  0.00    +0.143 C 
ATOM     24  C   UNL     1     -33.898  27.580   0.720  0.00  0.00    +0.051 C 
ATOM     25  C   UNL     1     -36.668  27.500   1.781  0.00  0.00    -0.005 C 
ATOM     26  C   UNL     1     -35.580  22.799   5.230  0.00  0.00    +0.051 C 
ATOM     27  C   UNL     1     -34.897  20.426   1.886  0.00  0.00    -0.013 C 
ATOM     28  C   UNL     1     -33.288  22.352  -0.224  0.00  0.00    -0.006 C 
ATOM     29  C   UNL     1     -35.438  20.632  -1.960  0.00  0.00    +0.044 C 
ATOM     30  C   UNL     1     -36.350  18.921  -0.427  0.00  0.00    +0.044 C 
ATOM     31  C   UNL     1     -34.052  19.390   1.885  0.00  0.00    +0.078 C 
ATOM     32  C   UNL     1     -33.465  18.885   0.636  0.00  0.00    +0.341 C 
ENDROOT
BRANCH  12  33
ATOM     33  O   UNL     1     -34.270  25.181  -0.684  0.00  0.00    -0.378 OA
ATOM     34  H   UNL     1     -34.517  24.329  -1.075  0.00  0.00    +0.211 HD
ENDBRANCH  12  33
TORSDOF 1
ENDMDL
MODEL 2
REMARK VINA RESULT:      -7.0      3.236      6.097
REMARK  Name = 56955928
REMARK  1 active torsions:
REMARK  status: ('A' for Active; 'I' for Inactive)
REMARK    1  A    between atoms: C_12  and  O_33
REMARK                            x       y       z     vdW  Elec       q    Type
REMARK                         _______ _______ _______ _____ _____    ______ ____
ROOT
ATOM      1  O   UNL     1     -35.183  28.342   2.851  0.00  0.00    -0.342 OA
ATOM      2  O   UNL     1     -33.300  30.085   4.328  0.00  0.00    -0.448 OA
ATOM      3  O   UNL     1     -33.714  29.326  -0.082  0.00  0.00    -0.449 OA
ATOM      4  O   UNL     1     -31.719  28.227  -0.142  0.00  0.00    -0.250 OA
ATOM      5  O   UNL     1     -34.855  31.331   3.289  0.00  0.00    -0.247 OA
ATOM      6  O   UNL     1     -37.904  23.936   3.668  0.00  0.00    -0.452 OA
ATOM      7  O   UNL     1     -40.005  24.750   3.898  0.00  0.00    -0.245 OA
ATOM      8  C   UNL     1     -33.487  26.899   2.188  0.00  0.00    +0.044 C 
ATOM      9  C   UNL     1     -32.977  28.365   1.952  0.00  0.00    +0.146 C 
ATOM     10  C   UNL     1     -34.437  27.190   3.377  0.00  0.00    +0.138 C 
ATOM     11  C   UNL     1     -34.224  29.229   2.244  0.00  0.00    +0.231 C 
ATOM     12  C   UNL     1     -33.595  27.688   4.637  0.00  0.00    +0.179 C 
ATOM     13  C   UNL     1     -32.558  28.837   4.347  0.00  0.00    +0.179 C 
ATOM     14  C   UNL     1     -34.302  26.352   0.987  0.00  0.00    +0.004 C 
ATOM     15  C   UNL     1     -31.918  28.718   2.972  0.00  0.00    +0.006 C 
ATOM     16  C   UNL     1     -35.473  26.075   3.693  0.00  0.00    -0.011 C 
ATOM     17  C   UNL     1     -36.125  25.283   2.507  0.00  0.00    +0.070 C 
ATOM     18  C   UNL     1     -34.597  29.872   0.909  0.00  0.00    +0.205 C 
ATOM     19  C   UNL     1     -35.114  25.113   1.335  0.00  0.00    +0.011 C 
ATOM     20  C   UNL     1     -32.360  25.875   2.463  0.00  0.00    +0.004 C 
ATOM     21  C   UNL     1     -32.681  28.637   0.488  0.00  0.00    +0.323 C 
ATOM     22  C   UNL     1     -34.152  30.324   3.305  0.00  0.00    +0.346 C 
ATOM     23  C   UNL     1     -36.710  23.831   2.836  0.00  0.00    +0.143 C 
ATOM     24  C   UNL     1     -31.570  28.997   5.513  0.00  0.00    +0.051 C 
ATOM     25  C   UNL     1     -30.615  28.901   2.706  0.00  0.00    -0.005 C 
ATOM     26  C   UNL     1     -36.043  29.740   0.468  0.00  0.00    +0.051 C 
ATOM     27  C   UNL     1     -37.315  26.103   2.028  0.00  0.00    -0.013 C 
ATOM     28  C   UNL     1     -35.876  25.874   4.965  0.00  0.00    -0.006 C 
ATOM     29  C   UNL     1     -35.725  22.922   3.602  0.00  0.00    +0.044 C 
ATOM     30  C   UNL     1     -37.152  23.021   1.586  0.00  0.00    +0.044 C 
ATOM     31  C   UNL     1     -38.575  25.874   2.412  0.00  0.00    +0.078 C 
ATOM     32  C   UNL     1     -38.898  24.812   3.375  0.00  0.00    +0.341 C 
ENDROOT
BRANCH  12  33
ATOM     33  O   UNL     1     -32.938  26.566   5.226  0.00  0.00    -0.378 OA
ATOM     34  H   UNL     1     -32.945  25.823   4.604  0.00  0.00    +0.211 HD
ENDBRANCH  12  33
TORSDOF 1
ENDMDL
MODEL 3
REMARK VINA RESULT:      -7.0      1.708      3.730
REMARK  Name = 56955928
REMARK  1 active torsions:
REMARK  status: ('A' for Active; 'I' for Inactive)
REMARK    1  A    between atoms: C_12  and  O_33
REMARK                            x       y       z     vdW  Elec       q    Type
REMARK                         _______ _______ _______ _____ _____    ______ ____
ROOT
ATOM      1  O   UNL     1     -37.685  23.250   1.920  0.00  0.00    -0.342 OA
ATOM      2  O   UNL     1     -37.808  24.791   4.445  0.00  0.00    -0.448 OA
ATOM      3  O   UNL     1     -38.020  26.178   0.177  0.00  0.00    -0.449 OA
ATOM      4  O   UNL     1     -35.992  27.202   0.345  0.00  0.00    -0.250 OA
ATOM      5  O   UNL     1     -39.847  24.677   3.507  0.00  0.00    -0.247 OA
ATOM      6  O   UNL     1     -35.595  18.777   0.159  0.00  0.00    -0.452 OA
ATOM      7  O   UNL     1     -37.432  17.462   0.000  0.00  0.00    -0.245 OA
ATOM      8  C   UNL     1     -35.632  24.169   1.340  0.00  0.00    +0.044 C 
ATOM      9  C   UNL     1     -36.551  25.344   1.834  0.00  0.00    +0.146 C 
ATOM     10  C   UNL     1     -36.257  23.034   2.190  0.00  0.00    +0.138 C 
ATOM     11  C   UNL     1     -37.928  24.667   2.017  0.00  0.00    +0.231 C 
ATOM     12  C   UNL     1     -36.005  23.314   3.740  0.00  0.00    +0.179 C 
ATOM     13  C   UNL     1     -36.372  24.763   4.235  0.00  0.00    +0.179 C 
ATOM     14  C   UNL     1     -35.820  23.861  -0.168  0.00  0.00    +0.004 C 
ATOM     15  C   UNL     1     -36.090  25.831   3.188  0.00  0.00    +0.006 C 
ATOM     16  C   UNL     1     -35.914  21.590   1.731  0.00  0.00    -0.011 C 
ATOM     17  C   UNL     1     -35.808  21.283   0.197  0.00  0.00    +0.070 C 
ATOM     18  C   UNL     1     -38.839  25.305   0.968  0.00  0.00    +0.205 C 
ATOM     19  C   UNL     1     -35.243  22.512  -0.574  0.00  0.00    +0.011 C 
ATOM     20  C   UNL     1     -34.120  24.417   1.558  0.00  0.00    +0.004 C 
ATOM     21  C   UNL     1     -36.794  26.374   0.746  0.00  0.00    +0.323 C 
ATOM     22  C   UNL     1     -38.628  24.735   3.371  0.00  0.00    +0.346 C 
ATOM     23  C   UNL     1     -34.931  20.016  -0.234  0.00  0.00    +0.143 C 
ATOM     24  C   UNL     1     -35.776  25.040   5.625  0.00  0.00    +0.051 C 
ATOM     25  C   UNL     1     -35.521  27.022   3.432  0.00  0.00    -0.005 C 
ATOM     26  C   UNL     1     -39.624  24.357   0.080  0.00  0.00    +0.051 C 
ATOM     27  C   UNL     1     -37.219  20.988  -0.294  0.00  0.00    -0.013 C 
ATOM     28  C   UNL     1     -35.815  20.601   2.644  0.00  0.00    -0.006 C 
ATOM     29  C   UNL     1     -33.529  19.981   0.411  0.00  0.00    +0.044 C 
ATOM     30  C   UNL     1     -34.699  19.889  -1.765  0.00  0.00    +0.044 C 
ATOM     31  C   UNL     1     -37.710  19.753  -0.438  0.00  0.00    +0.078 C 
ATOM     32  C   UNL     1     -36.912  18.569  -0.087  0.00  0.00    +0.341 C 
ENDROOT
BRANCH  12  33
ATOM     33  O   UNL     1     -34.644  23.016   4.049  0.00  0.00    -0.378 OA
ATOM     34  H   UNL     1     -34.097  23.143   3.258  0.00  0.00    +0.211 HD
ENDBRANCH  12  33
TORSDOF 1
ENDMDL
MODEL 4
REMARK VINA RESULT:      -6.7      9.009     12.129
REMARK  Name = 56955928
REMARK  1 active torsions:
REMARK  status: ('A' for Active; 'I' for Inactive)
REMARK    1  A    between atoms: C_12  and  O_33
REMARK                            x       y       z     vdW  Elec       q    Type
REMARK                         _______ _______ _______ _____ _____    ______ ____
ROOT
ATOM      1  O   UNL     1     -45.531  27.654   5.570  0.00  0.00    -0.342 OA
ATOM      2  O   UNL     1     -45.136  28.669   8.323  0.00  0.00    -0.448 OA
ATOM      3  O   UNL     1     -48.805  28.644   5.728  0.00  0.00    -0.449 OA
ATOM      4  O   UNL     1     -48.747  30.912   5.519  0.00  0.00    -0.250 OA
ATOM      5  O   UNL     1     -46.319  26.759   8.365  0.00  0.00    -0.247 OA
ATOM      6  O   UNL     1     -42.691  26.902   1.228  0.00  0.00    -0.452 OA
ATOM      7  O   UNL     1     -42.469  24.648   1.229  0.00  0.00    -0.245 OA
ATOM      8  C   UNL     1     -45.846  29.791   4.717  0.00  0.00    +0.044 C 
ATOM      9  C   UNL     1     -46.698  29.679   6.032  0.00  0.00    +0.146 C 
ATOM     10  C   UNL     1     -44.727  28.790   5.099  0.00  0.00    +0.138 C 
ATOM     11  C   UNL     1     -46.569  28.188   6.414  0.00  0.00    +0.231 C 
ATOM     12  C   UNL     1     -43.897  29.349   6.341  0.00  0.00    +0.179 C 
ATOM     13  C   UNL     1     -44.758  29.846   7.562  0.00  0.00    +0.179 C 
ATOM     14  C   UNL     1     -46.608  29.276   3.468  0.00  0.00    +0.004 C 
ATOM     15  C   UNL     1     -46.064  30.497   7.133  0.00  0.00    +0.006 C 
ATOM     16  C   UNL     1     -43.856  28.280   3.917  0.00  0.00    -0.011 C 
ATOM     17  C   UNL     1     -44.535  28.012   2.530  0.00  0.00    +0.070 C 
ATOM     18  C   UNL     1     -47.974  27.605   6.266  0.00  0.00    +0.205 C 
ATOM     19  C   UNL     1     -45.694  29.021   2.279  0.00  0.00    +0.011 C 
ATOM     20  C   UNL     1     -45.378  31.229   4.390  0.00  0.00    +0.004 C 
ATOM     21  C   UNL     1     -48.182  29.859   5.767  0.00  0.00    +0.323 C 
ATOM     22  C   UNL     1     -46.029  27.805   7.790  0.00  0.00    +0.346 C 
ATOM     23  C   UNL     1     -43.593  28.049   1.237  0.00  0.00    +0.143 C 
ATOM     24  C   UNL     1     -43.906  30.675   8.537  0.00  0.00    +0.051 C 
ATOM     25  C   UNL     1     -46.576  31.622   7.656  0.00  0.00    -0.005 C 
ATOM     26  C   UNL     1     -48.104  26.336   5.443  0.00  0.00    +0.051 C 
ATOM     27  C   UNL     1     -45.102  26.599   2.580  0.00  0.00    -0.013 C 
ATOM     28  C   UNL     1     -42.557  27.976   4.123  0.00  0.00    -0.006 C 
ATOM     29  C   UNL     1     -42.699  29.305   1.155  0.00  0.00    +0.044 C 
ATOM     30  C   UNL     1     -44.356  27.981  -0.114  0.00  0.00    +0.044 C 
ATOM     31  C   UNL     1     -44.471  25.530   2.083  0.00  0.00    +0.078 C 
ATOM     32  C   UNL     1     -43.139  25.645   1.473  0.00  0.00    +0.341 C 
ENDROOT
BRANCH  12  33
ATOM     33  O   UNL     1     -43.033  30.392   5.888  0.00  0.00    -0.378 OA
ATOM     34  H   UNL     1     -43.528  30.997   5.315  0.00  0.00    +0.211 HD
ENDBRANCH  12  33
TORSDOF 1
ENDMDL
MODEL 5
REMARK VINA RESULT:      -6.7      2.591      6.281
REMARK  Name = 56955928
REMARK  1 active torsions:
REMARK  status: ('A' for Active; 'I' for Inactive)
REMARK    1  A    between atoms: C_12  and  O_33
REMARK                            x       y       z     vdW  Elec       q    Type
REMARK                         _______ _______ _______ _____ _____    ______ ____
ROOT
ATOM      1  O   UNL     1     -37.462  23.932   3.307  0.00  0.00    -0.342 OA
ATOM      2  O   UNL     1     -36.087  21.324   3.575  0.00  0.00    -0.448 OA
ATOM      3  O   UNL     1     -34.407  25.473   3.178  0.00  0.00    -0.449 OA
ATOM      4  O   UNL     1     -33.601  25.013   1.097  0.00  0.00    -0.250 OA
ATOM      5  O   UNL     1     -35.937  22.479   5.497  0.00  0.00    -0.247 OA
ATOM      6  O   UNL     1     -41.993  25.798   1.444  0.00  0.00    -0.452 OA
ATOM      7  O   UNL     1     -43.108  26.250   3.363  0.00  0.00    -0.245 OA
ATOM      8  C   UNL     1     -36.713  24.219   1.127  0.00  0.00    +0.044 C 
ATOM      9  C   UNL     1     -35.489  23.738   1.986  0.00  0.00    +0.146 C 
ATOM     10  C   UNL     1     -37.834  23.529   1.944  0.00  0.00    +0.138 C 
ATOM     11  C   UNL     1     -36.038  23.754   3.430  0.00  0.00    +0.231 C 
ATOM     12  C   UNL     1     -37.683  21.945   1.845  0.00  0.00    +0.179 C 
ATOM     13  C   UNL     1     -36.241  21.383   2.132  0.00  0.00    +0.179 C 
ATOM     14  C   UNL     1     -36.902  25.758   1.172  0.00  0.00    +0.004 C 
ATOM     15  C   UNL     1     -35.140  22.309   1.638  0.00  0.00    +0.006 C 
ATOM     16  C   UNL     1     -39.272  24.058   1.683  0.00  0.00    -0.011 C 
ATOM     17  C   UNL     1     -39.486  25.591   1.434  0.00  0.00    +0.070 C 
ATOM     18  C   UNL     1     -35.246  24.842   4.156  0.00  0.00    +0.205 C 
ATOM     19  C   UNL     1     -38.271  26.203   0.677  0.00  0.00    +0.011 C 
ATOM     20  C   UNL     1     -36.630  23.825  -0.366  0.00  0.00    +0.004 C 
ATOM     21  C   UNL     1     -34.371  24.764   2.011  0.00  0.00    +0.323 C 
ATOM     22  C   UNL     1     -35.991  22.480   4.270  0.00  0.00    +0.346 C 
ATOM     23  C   UNL     1     -40.802  26.023   0.632  0.00  0.00    +0.143 C 
ATOM     24  C   UNL     1     -36.117  19.920   1.674  0.00  0.00    +0.051 C 
ATOM     25  C   UNL     1     -34.029  21.916   0.996  0.00  0.00    -0.005 C 
ATOM     26  C   UNL     1     -36.051  25.878   4.919  0.00  0.00    +0.051 C 
ATOM     27  C   UNL     1     -39.609  26.250   2.801  0.00  0.00    -0.013 C 
ATOM     28  C   UNL     1     -40.324  23.218   1.777  0.00  0.00    -0.006 C 
ATOM     29  C   UNL     1     -41.017  25.237  -0.680  0.00  0.00    +0.044 C 
ATOM     30  C   UNL     1     -40.850  27.525   0.241  0.00  0.00    +0.044 C 
ATOM     31  C   UNL     1     -40.777  26.539   3.382  0.00  0.00    +0.078 C 
ATOM     32  C   UNL     1     -42.054  26.197   2.739  0.00  0.00    +0.341 C 
ENDROOT
BRANCH  12  33
ATOM     33  O   UNL     1     -38.134  21.517   0.559  0.00  0.00    -0.378 OA
ATOM     34  H   UNL     1     -38.274  20.557   0.568  0.00  0.00    +0.211 HD
ENDBRANCH  12  33
TORSDOF 1
ENDMDL
MODEL 6
REMARK VINA RESULT:      -6.5      3.124      5.350
REMARK  Name = 56955928
REMARK  1 active torsions:
REMARK  status: ('A' for Active; 'I' for Inactive)
REMARK    1  A    between atoms: C_12  and  O_33
REMARK                            x       y       z     vdW  Elec       q    Type
REMARK                         _______ _______ _______ _____ _____    ______ ____
ROOT
ATOM      1  O   UNL     1     -32.262  26.801   3.721  0.00  0.00    -0.342 OA
ATOM      2  O   UNL     1     -29.897  27.760   2.221  0.00  0.00    -0.448 OA
ATOM      3  O   UNL     1     -32.629  29.936   5.047  0.00  0.00    -0.449 OA
ATOM      4  O   UNL     1     -33.476  31.200   3.352  0.00  0.00    -0.250 OA
ATOM      5  O   UNL     1     -29.391  27.532   4.398  0.00  0.00    -0.247 OA
ATOM      6  O   UNL     1     -35.991  23.148   3.237  0.00  0.00    -0.452 OA
ATOM      7  O   UNL     1     -35.326  21.630   4.780  0.00  0.00    -0.245 OA
ATOM      8  C   UNL     1     -33.714  28.119   2.476  0.00  0.00    +0.044 C 
ATOM      9  C   UNL     1     -32.486  29.016   2.872  0.00  0.00    +0.146 C 
ATOM     10  C   UNL     1     -32.982  26.754   2.441  0.00  0.00    +0.138 C 
ATOM     11  C   UNL     1     -31.683  28.116   3.836  0.00  0.00    +0.231 C 
ATOM     12  C   UNL     1     -31.897  26.749   1.271  0.00  0.00    +0.179 C 
ATOM     13  C   UNL     1     -30.935  27.994   1.234  0.00  0.00    +0.179 C 
ATOM     14  C   UNL     1     -34.812  28.098   3.570  0.00  0.00    +0.004 C 
ATOM     15  C   UNL     1     -31.624  29.282   1.659  0.00  0.00    +0.006 C 
ATOM     16  C   UNL     1     -33.902  25.502   2.474  0.00  0.00    -0.011 C 
ATOM     17  C   UNL     1     -35.197  25.532   3.356  0.00  0.00    +0.070 C 
ATOM     18  C   UNL     1     -31.757  28.807   5.197  0.00  0.00    +0.205 C 
ATOM     19  C   UNL     1     -35.810  26.963   3.388  0.00  0.00    +0.011 C 
ATOM     20  C   UNL     1     -34.407  28.544   1.159  0.00  0.00    +0.004 C 
ATOM     21  C   UNL     1     -32.897  30.196   3.734  0.00  0.00    +0.323 C 
ATOM     22  C   UNL     1     -30.221  27.799   3.533  0.00  0.00    +0.346 C 
ATOM     23  C   UNL     1     -36.376  24.527   2.954  0.00  0.00    +0.143 C 
ATOM     24  C   UNL     1     -30.182  28.070  -0.104  0.00  0.00    +0.051 C 
ATOM     25  C   UNL     1     -31.485  30.471   1.052  0.00  0.00    -0.005 C 
ATOM     26  C   UNL     1     -32.187  27.951   6.375  0.00  0.00    +0.051 C 
ATOM     27  C   UNL     1     -34.784  25.132   4.766  0.00  0.00    -0.013 C 
ATOM     28  C   UNL     1     -33.525  24.375   1.834  0.00  0.00    -0.006 C 
ATOM     29  C   UNL     1     -36.752  24.575   1.458  0.00  0.00    +0.044 C 
ATOM     30  C   UNL     1     -37.701  24.750   3.734  0.00  0.00    +0.044 C 
ATOM     31  C   UNL     1     -34.906  23.892   5.250  0.00  0.00    +0.078 C 
ATOM     32  C   UNL     1     -35.427  22.797   4.420  0.00  0.00    +0.341 C 
ENDROOT
BRANCH  12  33
ATOM     33  O   UNL     1     -32.568  26.604   0.019  0.00  0.00    -0.378 OA
ATOM     34  H   UNL     1     -32.598  27.461  -0.433  0.00  0.00    +0.211 HD
ENDBRANCH  12  33
TORSDOF 1
ENDMDL
MODEL 7
REMARK VINA RESULT:      -6.5      2.378      6.787
REMARK  Name = 56955928
REMARK  1 active torsions:
REMARK  status: ('A' for Active; 'I' for Inactive)
REMARK    1  A    between atoms: C_12  and  O_33
REMARK                            x       y       z     vdW  Elec       q    Type
REMARK                         _______ _______ _______ _____ _____    ______ ____
ROOT
ATOM      1  O   UNL     1     -36.871  19.880   0.734  0.00  0.00    -0.342 OA
ATOM      2  O   UNL     1     -38.967  18.467  -0.807  0.00  0.00    -0.448 OA
ATOM      3  O   UNL     1     -34.636  19.185  -1.765  0.00  0.00    -0.449 OA
ATOM      4  O   UNL     1     -35.184  20.605  -3.460  0.00  0.00    -0.250 OA
ATOM      5  O   UNL     1     -37.536  16.986   0.091  0.00  0.00    -0.247 OA
ATOM      6  O   UNL     1     -36.535  23.756   4.248  0.00  0.00    -0.452 OA
ATOM      7  O   UNL     1     -36.099  22.597   6.145  0.00  0.00    -0.245 OA
ATOM      8  C   UNL     1     -36.735  21.595  -0.827  0.00  0.00    +0.044 C 
ATOM      9  C   UNL     1     -36.751  20.237  -1.618  0.00  0.00    +0.146 C 
ATOM     10  C   UNL     1     -37.558  21.137   0.403  0.00  0.00    +0.138 C 
ATOM     11  C   UNL     1     -36.657  19.173  -0.503  0.00  0.00    +0.231 C 
ATOM     12  C   UNL     1     -39.047  20.777  -0.041  0.00  0.00    +0.179 C 
ATOM     13  C   UNL     1     -39.170  19.822  -1.287  0.00  0.00    +0.179 C 
ATOM     14  C   UNL     1     -35.308  22.007  -0.381  0.00  0.00    +0.004 C 
ATOM     15  C   UNL     1     -38.078  20.060  -2.319  0.00  0.00    +0.006 C 
ATOM     16  C   UNL     1     -37.461  22.058   1.651  0.00  0.00    -0.011 C 
ATOM     17  C   UNL     1     -36.090  22.739   1.991  0.00  0.00    +0.070 C 
ATOM     18  C   UNL     1     -35.306  18.488  -0.704  0.00  0.00    +0.205 C 
ATOM     19  C   UNL     1     -35.310  23.088   0.690  0.00  0.00    +0.011 C 
ATOM     20  C   UNL     1     -37.317  22.792  -1.617  0.00  0.00    +0.004 C 
ATOM     21  C   UNL     1     -35.480  20.032  -2.423  0.00  0.00    +0.323 C 
ATOM     22  C   UNL     1     -37.734  18.097  -0.394  0.00  0.00    +0.346 C 
ATOM     23  C   UNL     1     -36.138  24.069   2.880  0.00  0.00    +0.143 C 
ATOM     24  C   UNL     1     -40.603  19.821  -1.843  0.00  0.00    +0.051 C 
ATOM     25  C   UNL     1     -38.266  20.102  -3.648  0.00  0.00    -0.005 C 
ATOM     26  C   UNL     1     -34.408  18.378   0.515  0.00  0.00    +0.051 C 
ATOM     27  C   UNL     1     -35.286  21.734   2.805  0.00  0.00    -0.013 C 
ATOM     28  C   UNL     1     -38.519  22.177   2.481  0.00  0.00    -0.006 C 
ATOM     29  C   UNL     1     -37.141  25.124   2.367  0.00  0.00    +0.044 C 
ATOM     30  C   UNL     1     -34.775  24.803   3.006  0.00  0.00    +0.044 C 
ATOM     31  C   UNL     1     -35.222  21.744   4.140  0.00  0.00    +0.078 C 
ATOM     32  C   UNL     1     -35.973  22.728   4.932  0.00  0.00    +0.341 C 
ENDROOT
BRANCH  12  33
ATOM     33  O   UNL     1     -39.766  21.989  -0.274  0.00  0.00    -0.378 OA
ATOM     34  H   UNL     1     -40.423  22.114   0.428  0.00  0.00    +0.211 HD
ENDBRANCH  12  33
TORSDOF 1
ENDMDL
MODEL 8
REMARK VINA RESULT:      -6.5      2.614      5.392
REMARK  Name = 56955928
REMARK  1 active torsions:
REMARK  status: ('A' for Active; 'I' for Inactive)
REMARK    1  A    between atoms: C_12  and  O_33
REMARK                            x       y       z     vdW  Elec       q    Type
REMARK                         _______ _______ _______ _____ _____    ______ ____
ROOT
ATOM      1  O   UNL     1     -36.243  24.156   0.897  0.00  0.00    -0.342 OA
ATOM      2  O   UNL     1     -33.604  25.264   1.657  0.00  0.00    -0.448 OA
ATOM      3  O   UNL     1     -35.694  21.528   3.022  0.00  0.00    -0.449 OA
ATOM      4  O   UNL     1     -35.991  22.385   5.112  0.00  0.00    -0.250 OA
ATOM      5  O   UNL     1     -33.338  23.481   0.316  0.00  0.00    -0.247 OA
ATOM      6  O   UNL     1     -40.888  25.907  -0.786  0.00  0.00    -0.452 OA
ATOM      7  O   UNL     1     -40.834  25.284  -2.963  0.00  0.00    -0.245 OA
ATOM      8  C   UNL     1     -37.125  24.535   3.012  0.00  0.00    +0.044 C 
ATOM      9  C   UNL     1     -35.707  23.887   3.203  0.00  0.00    +0.146 C 
ATOM     10  C   UNL     1     -36.857  25.249   1.664  0.00  0.00    +0.138 C 
ATOM     11  C   UNL     1     -35.290  23.510   1.764  0.00  0.00    +0.231 C 
ATOM     12  C   UNL     1     -35.755  26.386   1.860  0.00  0.00    +0.179 C 
ATOM     13  C   UNL     1     -34.451  25.941   2.622  0.00  0.00    +0.179 C 
ATOM     14  C   UNL     1     -38.243  23.476   2.832  0.00  0.00    +0.004 C 
ATOM     15  C   UNL     1     -34.728  24.920   3.714  0.00  0.00    +0.006 C 
ATOM     16  C   UNL     1     -38.123  25.704   0.886  0.00  0.00    -0.011 C 
ATOM     17  C   UNL     1     -39.398  24.793   0.906  0.00  0.00    +0.070 C 
ATOM     18  C   UNL     1     -35.231  21.984   1.742  0.00  0.00    +0.205 C 
ATOM     19  C   UNL     1     -39.532  24.062   2.275  0.00  0.00    +0.011 C 
ATOM     20  C   UNL     1     -37.563  25.449   4.181  0.00  0.00    +0.004 C 
ATOM     21  C   UNL     1     -35.782  22.552   3.921  0.00  0.00    +0.323 C 
ATOM     22  C   UNL     1     -33.984  24.053   1.190  0.00  0.00    +0.346 C 
ATOM     23  C   UNL     1     -40.803  25.499   0.613  0.00  0.00    +0.143 C 
ATOM     24  C   UNL     1     -33.627  27.161   3.065  0.00  0.00    +0.051 C 
ATOM     25  C   UNL     1     -34.184  24.933   4.941  0.00  0.00    -0.005 C 
ATOM     26  C   UNL     1     -35.983  21.288   0.622  0.00  0.00    +0.051 C 
ATOM     27  C   UNL     1     -39.222  23.760  -0.199  0.00  0.00    -0.013 C 
ATOM     28  C   UNL     1     -38.077  26.816   0.121  0.00  0.00    -0.006 C 
ATOM     29  C   UNL     1     -41.048  26.772   1.452  0.00  0.00    +0.044 C 
ATOM     30  C   UNL     1     -42.039  24.589   0.850  0.00  0.00    +0.044 C 
ATOM     31  C   UNL     1     -39.758  23.881  -1.418  0.00  0.00    +0.078 C 
ATOM     32  C   UNL     1     -40.541  25.067  -1.793  0.00  0.00    +0.341 C 
ENDROOT
BRANCH  12  33
ATOM     33  O   UNL     1     -36.355  27.503   2.518  0.00  0.00    -0.378 OA
ATOM     34  H   UNL     1     -35.685  27.971   3.039  0.00  0.00    +0.211 HD
ENDBRANCH  12  33
TORSDOF 1
ENDMDL
MODEL 9
REMARK VINA RESULT:      -6.4      2.536      6.196
REMARK  Name = 56955928
REMARK  1 active torsions:
REMARK  status: ('A' for Active; 'I' for Inactive)
REMARK    1  A    between atoms: C_12  and  O_33
REMARK                            x       y       z     vdW  Elec       q    Type
REMARK                         _______ _______ _______ _____ _____    ______ ____
ROOT
ATOM      1  O   UNL     1     -37.256  23.743   0.047  0.00  0.00    -0.342 OA
ATOM      2  O   UNL     1     -37.936  21.507  -1.770  0.00  0.00    -0.448 OA
ATOM      3  O   UNL     1     -40.314  25.138  -0.607  0.00  0.00    -0.449 OA
ATOM      4  O   UNL     1     -41.805  23.864   0.554  0.00  0.00    -0.250 OA
ATOM      5  O   UNL     1     -37.486  23.360  -2.958  0.00  0.00    -0.247 OA
ATOM      6  O   UNL     1     -34.266  24.588   4.269  0.00  0.00    -0.452 OA
ATOM      7  O   UNL     1     -32.563  25.781   3.374  0.00  0.00    -0.245 OA
ATOM      8  C   UNL     1     -38.864  23.106   1.598  0.00  0.00    +0.044 C 
ATOM      9  C   UNL     1     -39.531  23.046   0.177  0.00  0.00    +0.146 C 
ATOM     10  C   UNL     1     -37.408  22.802   1.166  0.00  0.00    +0.138 C 
ATOM     11  C   UNL     1     -38.454  23.655  -0.748  0.00  0.00    +0.231 C 
ATOM     12  C   UNL     1     -37.313  21.323   0.576  0.00  0.00    +0.179 C 
ATOM     13  C   UNL     1     -38.394  20.956  -0.508  0.00  0.00    +0.179 C 
ATOM     14  C   UNL     1     -38.940  24.519   2.232  0.00  0.00    +0.004 C 
ATOM     15  C   UNL     1     -39.741  21.608  -0.239  0.00  0.00    +0.006 C 
ATOM     16  C   UNL     1     -36.314  23.150   2.213  0.00  0.00    -0.011 C 
ATOM     17  C   UNL     1     -36.485  24.436   3.094  0.00  0.00    +0.070 C 
ATOM     18  C   UNL     1     -39.056  24.959  -1.272  0.00  0.00    +0.205 C 
ATOM     19  C   UNL     1     -37.988  24.695   3.407  0.00  0.00    +0.011 C 
ATOM     20  C   UNL     1     -39.479  22.125   2.625  0.00  0.00    +0.004 C 
ATOM     21  C   UNL     1     -40.700  24.007   0.055  0.00  0.00    +0.323 C 
ATOM     22  C   UNL     1     -37.937  22.849  -1.937  0.00  0.00    +0.346 C 
ATOM     23  C   UNL     1     -35.704  24.472   4.491  0.00  0.00    +0.143 C 
ATOM     24  C   UNL     1     -38.442  19.438  -0.748  0.00  0.00    +0.051 C 
ATOM     25  C   UNL     1     -40.932  21.001  -0.356  0.00  0.00    -0.005 C 
ATOM     26  C   UNL     1     -38.200  26.206  -1.143  0.00  0.00    +0.051 C 
ATOM     27  C   UNL     1     -35.932  25.603   2.288  0.00  0.00    -0.013 C 
ATOM     28  C   UNL     1     -35.187  22.410   2.280  0.00  0.00    -0.006 C 
ATOM     29  C   UNL     1     -35.910  23.207   5.352  0.00  0.00    +0.044 C 
ATOM     30  C   UNL     1     -36.076  25.673   5.402  0.00  0.00    +0.044 C 
ATOM     31  C   UNL     1     -34.696  26.089   2.441  0.00  0.00    +0.078 C 
ATOM     32  C   UNL     1     -33.753  25.490   3.396  0.00  0.00    +0.341 C 
ENDROOT
BRANCH  12  33
ATOM     33  O   UNL     1     -37.358  20.390   1.656  0.00  0.00    -0.378 OA
ATOM     34  H   UNL     1     -38.252  20.020   1.727  0.00  0.00    +0.211 HD
ENDBRANCH  12  33
TORSDOF 1
ENDMDL
