MODEL 1
REMARK VINA RESULT:      -5.5      0.000      0.000
REMARK  Name = 5315874
REMARK  11 active torsions:
REMARK  status: ('A' for Active; 'I' for Inactive)
REMARK    1  A    between atoms: O_1  and  C_3
REMARK    2  A    between atoms: O_1  and  C_16
REMARK    3  A    between atoms: C_3  and  C_5
REMARK    4  A    between atoms: C_4  and  C_6
REMARK    5  A    between atoms: C_9  and  O_12
REMARK    6  A    between atoms: C_10  and  O_14
REMARK    7  A    between atoms: C_16  and  C_18
REMARK    8  A    between atoms: C_18  and  C_19
REMARK    9  A    between atoms: C_19  and  C_20
REMARK   10  A    between atoms: C_23  and  O_26
REMARK   11  A    between atoms: C_25  and  O_28
REMARK                            x       y       z     vdW  Elec       q    Type
REMARK                         _______ _______ _______ _____ _____    ______ ____
ROOT
ATOM      1  O   UNL     1     -32.615  26.749   1.380  0.00  0.00    -0.437 OA
ENDROOT
BRANCH   1   3
ATOM      2  O   UNL     1     -31.584  25.070   0.174  0.00  0.00    -0.245 OA
ATOM      3  C   UNL     1     -32.562  25.564   0.714  0.00  0.00    +0.342 C 
BRANCH   3   5
ATOM      4  C   UNL     1     -34.108  23.757   1.327  0.00  0.00    +0.007 C 
ATOM      5  C   UNL     1     -33.916  24.966   0.754  0.00  0.00    +0.082 C 
BRANCH   4   6
ATOM      6  C   UNL     1     -35.388  23.074   1.437  0.00  0.00    +0.003 C 
ATOM      7  C   UNL     1     -35.449  21.793   1.984  0.00  0.00    +0.040 C 
ATOM      8  C   UNL     1     -36.553  23.701   0.993  0.00  0.00    +0.003 C 
ATOM      9  C   UNL     1     -37.841  21.764   1.646  0.00  0.00    +0.172 C 
ATOM     10  C   UNL     1     -36.676  21.138   2.090  0.00  0.00    +0.168 C 
ATOM     11  C   UNL     1     -37.779  23.045   1.098  0.00  0.00    +0.040 C 
BRANCH   9  12
ATOM     12  O   UNL     1     -39.046  21.135   1.745  0.00  0.00    -0.468 OA
ATOM     13  C   UNL     1     -39.985  21.366   0.698  0.00  0.00    +0.253 C 
ENDBRANCH   9  12
BRANCH  10  14
ATOM     14  O   UNL     1     -36.724  19.886   2.624  0.00  0.00    -0.503 OA
ATOM     15  H   UNL     1     -37.327  19.695   3.316  0.00  0.00    +0.292 HD
ENDBRANCH  10  14
ENDBRANCH   4   6
ENDBRANCH   3   5
ENDBRANCH   1   3
BRANCH   1  16
ATOM     16  C   UNL     1     -31.717  26.874   2.487  0.00  0.00    +0.273 C 
BRANCH  16  18
ATOM     17  O   UNL     1     -31.831  27.773   4.712  0.00  0.00    -0.292 OA
ATOM     18  C   UNL     1     -32.441  27.396   3.712  0.00  0.00    +0.199 C 
BRANCH  18  19
ATOM     19  C   UNL     1     -33.956  27.423   3.616  0.00  0.00    +0.095 C 
BRANCH  19  20
ATOM     20  C   UNL     1     -34.609  26.153   4.096  0.00  0.00    -0.011 C 
ATOM     21  C   UNL     1     -35.983  26.005   3.980  0.00  0.00    +0.036 C 
ATOM     22  C   UNL     1     -33.825  25.149   4.647  0.00  0.00    -0.001 C 
ATOM     23  C   UNL     1     -36.587  24.829   4.424  0.00  0.00    +0.167 C 
ATOM     24  C   UNL     1     -34.428  23.973   5.092  0.00  0.00    +0.039 C 
ATOM     25  C   UNL     1     -35.809  23.813   4.980  0.00  0.00    +0.167 C 
BRANCH  23  26
ATOM     26  O   UNL     1     -37.936  24.684   4.309  0.00  0.00    -0.503 OA
ATOM     27  H   UNL     1     -38.405  24.155   4.925  0.00  0.00    +0.292 HD
ENDBRANCH  23  26
BRANCH  25  28
ATOM     28  O   UNL     1     -36.388  22.660   5.418  0.00  0.00    -0.503 OA
ATOM     29  H   UNL     1     -36.668  22.584   6.308  0.00  0.00    +0.292 HD
ENDBRANCH  25  28
ENDBRANCH  19  20
ENDBRANCH  18  19
ENDBRANCH  16  18
ENDBRANCH   1  16
TORSDOF 11
ENDMDL
MODEL 2
REMARK VINA RESULT:      -5.5      2.232      6.322
REMARK  Name = 5315874
REMARK  11 active torsions:
REMARK  status: ('A' for Active; 'I' for Inactive)
REMARK    1  A    between atoms: O_1  and  C_3
REMARK    2  A    between atoms: O_1  and  C_16
REMARK    3  A    between atoms: C_3  and  C_5
REMARK    4  A    between atoms: C_4  and  C_6
REMARK    5  A    between atoms: C_9  and  O_12
REMARK    6  A    between atoms: C_10  and  O_14
REMARK    7  A    between atoms: C_16  and  C_18
REMARK    8  A    between atoms: C_18  and  C_19
REMARK    9  A    between atoms: C_19  and  C_20
REMARK   10  A    between atoms: C_23  and  O_26
REMARK   11  A    between atoms: C_25  and  O_28
REMARK                            x       y       z     vdW  Elec       q    Type
REMARK                         _______ _______ _______ _____ _____    ______ ____
ROOT
ATOM      1  O   UNL     1     -36.636  19.969   1.682  0.00  0.00    -0.437 OA
ENDROOT
BRANCH   1   3
ATOM      2  O   UNL     1     -34.451  19.583   2.325  0.00  0.00    -0.245 OA
ATOM      3  C   UNL     1     -35.371  20.330   2.030  0.00  0.00    +0.342 C 
BRANCH   3   5
ATOM      4  C   UNL     1     -35.345  22.521   3.139  0.00  0.00    +0.007 C 
ATOM      5  C   UNL     1     -35.300  21.808   1.991  0.00  0.00    +0.082 C 
BRANCH   4   6
ATOM      6  C   UNL     1     -35.272  23.970   3.230  0.00  0.00    +0.003 C 
ATOM      7  C   UNL     1     -35.871  24.632   4.301  0.00  0.00    +0.040 C 
ATOM      8  C   UNL     1     -34.605  24.699   2.245  0.00  0.00    +0.003 C 
ATOM      9  C   UNL     1     -35.134  26.751   3.405  0.00  0.00    +0.172 C 
ATOM     10  C   UNL     1     -35.801  26.022   4.390  0.00  0.00    +0.168 C 
ATOM     11  C   UNL     1     -34.536  26.089   2.332  0.00  0.00    +0.040 C 
BRANCH   9  12
ATOM     12  O   UNL     1     -35.058  28.109   3.480  0.00  0.00    -0.468 OA
ATOM     13  C   UNL     1     -33.810  28.708   3.139  0.00  0.00    +0.253 C 
ENDBRANCH   9  12
BRANCH  10  14
ATOM     14  O   UNL     1     -36.391  26.658   5.440  0.00  0.00    -0.503 OA
ATOM     15  H   UNL     1     -37.321  26.775   5.455  0.00  0.00    +0.292 HD
ENDBRANCH  10  14
ENDBRANCH   4   6
ENDBRANCH   3   5
ENDBRANCH   1   3
BRANCH   1  16
ATOM     16  C   UNL     1     -37.209  20.703   0.595  0.00  0.00    +0.273 C 
BRANCH  16  18
ATOM     17  O   UNL     1     -39.554  20.550   0.095  0.00  0.00    -0.292 OA
ATOM     18  C   UNL     1     -38.679  20.978   0.846  0.00  0.00    +0.199 C 
BRANCH  18  19
ATOM     19  C   UNL     1     -38.988  21.809   2.079  0.00  0.00    +0.095 C 
BRANCH  19  20
ATOM     20  C   UNL     1     -38.758  23.284   1.880  0.00  0.00    -0.011 C 
ATOM     21  C   UNL     1     -39.187  24.179   2.848  0.00  0.00    +0.036 C 
ATOM     22  C   UNL     1     -38.118  23.726   0.730  0.00  0.00    -0.001 C 
ATOM     23  C   UNL     1     -38.973  25.545   2.665  0.00  0.00    +0.167 C 
ATOM     24  C   UNL     1     -37.904  25.092   0.545  0.00  0.00    +0.039 C 
ATOM     25  C   UNL     1     -38.332  26.001   1.512  0.00  0.00    +0.167 C 
BRANCH  23  26
ATOM     26  O   UNL     1     -39.394  26.424   3.616  0.00  0.00    -0.503 OA
ATOM     27  H   UNL     1     -40.296  26.441   3.872  0.00  0.00    +0.292 HD
ENDBRANCH  23  26
BRANCH  25  28
ATOM     28  O   UNL     1     -38.117  27.333   1.321  0.00  0.00    -0.503 OA
ATOM     29  H   UNL     1     -38.185  27.927   2.042  0.00  0.00    +0.292 HD
ENDBRANCH  25  28
ENDBRANCH  19  20
ENDBRANCH  18  19
ENDBRANCH  16  18
ENDBRANCH   1  16
TORSDOF 11
ENDMDL
MODEL 3
REMARK VINA RESULT:      -5.5      1.958      6.462
REMARK  Name = 5315874
REMARK  11 active torsions:
REMARK  status: ('A' for Active; 'I' for Inactive)
REMARK    1  A    between atoms: O_1  and  C_3
REMARK    2  A    between atoms: O_1  and  C_16
REMARK    3  A    between atoms: C_3  and  C_5
REMARK    4  A    between atoms: C_4  and  C_6
REMARK    5  A    between atoms: C_9  and  O_12
REMARK    6  A    between atoms: C_10  and  O_14
REMARK    7  A    between atoms: C_16  and  C_18
REMARK    8  A    between atoms: C_18  and  C_19
REMARK    9  A    between atoms: C_19  and  C_20
REMARK   10  A    between atoms: C_23  and  O_26
REMARK   11  A    between atoms: C_25  and  O_28
REMARK                            x       y       z     vdW  Elec       q    Type
REMARK                         _______ _______ _______ _____ _____    ______ ____
ROOT
ATOM      1  O   UNL     1     -37.267  20.838   2.182  0.00  0.00    -0.437 OA
ENDROOT
BRANCH   1   3
ATOM      2  O   UNL     1     -35.332  19.703   1.628  0.00  0.00    -0.245 OA
ATOM      3  C   UNL     1     -35.922  20.692   2.036  0.00  0.00    +0.342 C 
BRANCH   3   5
ATOM      4  C   UNL     1     -35.732  22.604   3.566  0.00  0.00    +0.007 C 
ATOM      5  C   UNL     1     -35.284  21.957   2.467  0.00  0.00    +0.082 C 
BRANCH   4   6
ATOM      6  C   UNL     1     -35.182  23.843   4.093  0.00  0.00    +0.003 C 
ATOM      7  C   UNL     1     -34.090  24.442   3.467  0.00  0.00    +0.040 C 
ATOM      8  C   UNL     1     -35.747  24.430   5.226  0.00  0.00    +0.003 C 
ATOM      9  C   UNL     1     -34.127  26.219   5.104  0.00  0.00    +0.172 C 
ATOM     10  C   UNL     1     -33.563  25.631   3.971  0.00  0.00    +0.168 C 
ATOM     11  C   UNL     1     -35.219  25.618   5.731  0.00  0.00    +0.040 C 
BRANCH   9  12
ATOM     12  O   UNL     1     -33.621  27.380   5.606  0.00  0.00    -0.468 OA
ATOM     13  C   UNL     1     -32.679  27.270   6.670  0.00  0.00    +0.253 C 
ENDBRANCH   9  12
BRANCH  10  14
ATOM     14  O   UNL     1     -32.495  26.207   3.352  0.00  0.00    -0.503 OA
ATOM     15  H   UNL     1     -32.363  26.084   2.433  0.00  0.00    +0.292 HD
ENDBRANCH  10  14
ENDBRANCH   4   6
ENDBRANCH   3   5
ENDBRANCH   1   3
BRANCH   1  16
ATOM     16  C   UNL     1     -38.025  20.807   0.969  0.00  0.00    +0.273 C 
BRANCH  16  18
ATOM     17  O   UNL     1     -40.229  21.187   1.845  0.00  0.00    -0.292 OA
ATOM     18  C   UNL     1     -39.318  21.585   1.122  0.00  0.00    +0.199 C 
BRANCH  18  19
ATOM     19  C   UNL     1     -39.403  22.876   0.328  0.00  0.00    +0.095 C 
BRANCH  19  20
ATOM     20  C   UNL     1     -38.642  24.015   0.955  0.00  0.00    -0.011 C 
ATOM     21  C   UNL     1     -39.210  24.720   2.007  0.00  0.00    +0.036 C 
ATOM     22  C   UNL     1     -37.383  24.344   0.472  0.00  0.00    -0.001 C 
ATOM     23  C   UNL     1     -38.505  25.773   2.588  0.00  0.00    +0.167 C 
ATOM     24  C   UNL     1     -36.678  25.397   1.052  0.00  0.00    +0.039 C 
ATOM     25  C   UNL     1     -37.239  26.112   2.110  0.00  0.00    +0.167 C 
BRANCH  23  26
ATOM     26  O   UNL     1     -39.063  26.464   3.621  0.00  0.00    -0.503 OA
ATOM     27  H   UNL     1     -39.085  27.401   3.601  0.00  0.00    +0.292 HD
ENDBRANCH  23  26
BRANCH  25  28
ATOM     28  O   UNL     1     -36.541  27.140   2.669  0.00  0.00    -0.503 OA
ATOM     29  H   UNL     1     -36.653  27.345   3.576  0.00  0.00    +0.292 HD
ENDBRANCH  25  28
ENDBRANCH  19  20
ENDBRANCH  18  19
ENDBRANCH  16  18
ENDBRANCH   1  16
TORSDOF 11
ENDMDL
MODEL 4
REMARK VINA RESULT:      -5.5      2.116      3.123
REMARK  Name = 5315874
REMARK  11 active torsions:
REMARK  status: ('A' for Active; 'I' for Inactive)
REMARK    1  A    between atoms: O_1  and  C_3
REMARK    2  A    between atoms: O_1  and  C_16
REMARK    3  A    between atoms: C_3  and  C_5
REMARK    4  A    between atoms: C_4  and  C_6
REMARK    5  A    between atoms: C_9  and  O_12
REMARK    6  A    between atoms: C_10  and  O_14
REMARK    7  A    between atoms: C_16  and  C_18
REMARK    8  A    between atoms: C_18  and  C_19
REMARK    9  A    between atoms: C_19  and  C_20
REMARK   10  A    between atoms: C_23  and  O_26
REMARK   11  A    between atoms: C_25  and  O_28
REMARK                            x       y       z     vdW  Elec       q    Type
REMARK                         _______ _______ _______ _____ _____    ______ ____
ROOT
ATOM      1  O   UNL     1     -34.257  26.966   1.591  0.00  0.00    -0.437 OA
ENDROOT
BRANCH   1   3
ATOM      2  O   UNL     1     -33.869  26.570  -0.652  0.00  0.00    -0.245 OA
ATOM      3  C   UNL     1     -34.005  26.191   0.501  0.00  0.00    +0.342 C 
BRANCH   3   5
ATOM      4  C   UNL     1     -33.846  23.780   0.058  0.00  0.00    +0.007 C 
ATOM      5  C   UNL     1     -33.924  24.785   0.959  0.00  0.00    +0.082 C 
BRANCH   4   6
ATOM      6  C   UNL     1     -33.751  22.366   0.385  0.00  0.00    +0.003 C 
ATOM      7  C   UNL     1     -34.706  21.776   1.211  0.00  0.00    +0.040 C 
ATOM      8  C   UNL     1     -32.703  21.601  -0.128  0.00  0.00    +0.003 C 
ATOM      9  C   UNL     1     -33.569  19.654   1.012  0.00  0.00    +0.172 C 
ATOM     10  C   UNL     1     -34.616  20.420   1.524  0.00  0.00    +0.168 C 
ATOM     11  C   UNL     1     -32.613  20.245   0.186  0.00  0.00    +0.040 C 
BRANCH   9  12
ATOM     12  O   UNL     1     -33.471  18.328   1.310  0.00  0.00    -0.468 OA
ATOM     13  C   UNL     1     -32.223  17.694   1.037  0.00  0.00    +0.253 C 
ENDBRANCH   9  12
BRANCH  10  14
ATOM     14  O   UNL     1     -35.555  19.855   2.334  0.00  0.00    -0.503 OA
ATOM     15  H   UNL     1     -35.799  18.958   2.213  0.00  0.00    +0.292 HD
ENDBRANCH  10  14
ENDBRANCH   4   6
ENDBRANCH   3   5
ENDBRANCH   1   3
BRANCH   1  16
ATOM     16  C   UNL     1     -33.312  26.851   2.659  0.00  0.00    +0.273 C 
BRANCH  16  18
ATOM     17  O   UNL     1     -33.399  27.691   4.908  0.00  0.00    -0.292 OA
ATOM     18  C   UNL     1     -33.980  27.103   3.997  0.00  0.00    +0.199 C 
BRANCH  18  19
ATOM     19  C   UNL     1     -35.401  26.585   4.128  0.00  0.00    +0.095 C 
BRANCH  19  20
ATOM     20  C   UNL     1     -35.477  25.102   4.378  0.00  0.00    -0.011 C 
ATOM     21  C   UNL     1     -36.424  24.343   3.705  0.00  0.00    +0.036 C 
ATOM     22  C   UNL     1     -34.598  24.515   5.277  0.00  0.00    -0.001 C 
ATOM     23  C   UNL     1     -36.493  22.969   3.936  0.00  0.00    +0.167 C 
ATOM     24  C   UNL     1     -34.667  23.142   5.509  0.00  0.00    +0.039 C 
ATOM     25  C   UNL     1     -35.614  22.369   4.838  0.00  0.00    +0.167 C 
BRANCH  23  26
ATOM     26  O   UNL     1     -37.422  22.224   3.275  0.00  0.00    -0.503 OA
ATOM     27  H   UNL     1     -37.483  22.272   2.341  0.00  0.00    +0.292 HD
ENDBRANCH  23  26
BRANCH  25  28
ATOM     28  O   UNL     1     -35.673  21.028   5.073  0.00  0.00    -0.503 OA
ATOM     29  H   UNL     1     -35.212  20.658   5.799  0.00  0.00    +0.292 HD
ENDBRANCH  25  28
ENDBRANCH  19  20
ENDBRANCH  18  19
ENDBRANCH  16  18
ENDBRANCH   1  16
TORSDOF 11
ENDMDL
MODEL 5
REMARK VINA RESULT:      -5.5      2.201      6.949
REMARK  Name = 5315874
REMARK  11 active torsions:
REMARK  status: ('A' for Active; 'I' for Inactive)
REMARK    1  A    between atoms: O_1  and  C_3
REMARK    2  A    between atoms: O_1  and  C_16
REMARK    3  A    between atoms: C_3  and  C_5
REMARK    4  A    between atoms: C_4  and  C_6
REMARK    5  A    between atoms: C_9  and  O_12
REMARK    6  A    between atoms: C_10  and  O_14
REMARK    7  A    between atoms: C_16  and  C_18
REMARK    8  A    between atoms: C_18  and  C_19
REMARK    9  A    between atoms: C_19  and  C_20
REMARK   10  A    between atoms: C_23  and  O_26
REMARK   11  A    between atoms: C_25  and  O_28
REMARK                            x       y       z     vdW  Elec       q    Type
REMARK                         _______ _______ _______ _____ _____    ______ ____
ROOT
ATOM      1  O   UNL     1     -36.362  22.466   4.495  0.00  0.00    -0.437 OA
ENDROOT
BRANCH   1   3
ATOM      2  O   UNL     1     -35.895  22.078   6.724  0.00  0.00    -0.245 OA
ATOM      3  C   UNL     1     -35.687  22.645   5.663  0.00  0.00    +0.342 C 
BRANCH   3   5
ATOM      4  C   UNL     1     -34.941  24.980   5.514  0.00  0.00    +0.007 C 
ATOM      5  C   UNL     1     -34.641  23.666   5.424  0.00  0.00    +0.082 C 
BRANCH   4   6
ATOM      6  C   UNL     1     -34.001  26.072   5.313  0.00  0.00    +0.003 C 
ATOM      7  C   UNL     1     -33.373  26.662   6.409  0.00  0.00    +0.040 C 
ATOM      8  C   UNL     1     -33.728  26.528   4.023  0.00  0.00    +0.003 C 
ATOM      9  C   UNL     1     -32.198  28.165   4.928  0.00  0.00    +0.172 C 
ATOM     10  C   UNL     1     -32.471  27.707   6.217  0.00  0.00    +0.168 C 
ATOM     11  C   UNL     1     -32.827  27.575   3.831  0.00  0.00    +0.040 C 
BRANCH   9  12
ATOM     12  O   UNL     1     -31.318  29.185   4.727  0.00  0.00    -0.468 OA
ATOM     13  C   UNL     1     -31.868  30.483   4.512  0.00  0.00    +0.253 C 
ENDBRANCH   9  12
BRANCH  10  14
ATOM     14  O   UNL     1     -31.864  28.277   7.296  0.00  0.00    -0.503 OA
ATOM     15  H   UNL     1     -32.019  27.936   8.154  0.00  0.00    +0.292 HD
ENDBRANCH  10  14
ENDBRANCH   4   6
ENDBRANCH   3   5
ENDBRANCH   1   3
BRANCH   1  16
ATOM     16  C   UNL     1     -35.636  21.795   3.461  0.00  0.00    +0.273 C 
BRANCH  16  18
ATOM     17  O   UNL     1     -37.288  21.637   1.724  0.00  0.00    -0.292 OA
ATOM     18  C   UNL     1     -36.219  22.115   2.098  0.00  0.00    +0.199 C 
BRANCH  18  19
ATOM     19  C   UNL     1     -35.397  23.061   1.241  0.00  0.00    +0.095 C 
BRANCH  19  20
ATOM     20  C   UNL     1     -35.784  24.508   1.405  0.00  0.00    -0.011 C 
ATOM     21  C   UNL     1     -36.813  24.846   2.271  0.00  0.00    +0.036 C 
ATOM     22  C   UNL     1     -35.104  25.481   0.687  0.00  0.00    -0.001 C 
ATOM     23  C   UNL     1     -37.171  26.185   2.424  0.00  0.00    +0.167 C 
ATOM     24  C   UNL     1     -35.461  26.821   0.839  0.00  0.00    +0.039 C 
ATOM     25  C   UNL     1     -36.494  27.173   1.707  0.00  0.00    +0.167 C 
BRANCH  23  26
ATOM     26  O   UNL     1     -38.181  26.517   3.275  0.00  0.00    -0.503 OA
ATOM     27  H   UNL     1     -39.006  26.075   3.217  0.00  0.00    +0.292 HD
ENDBRANCH  23  26
BRANCH  25  28
ATOM     28  O   UNL     1     -36.834  28.484   1.848  0.00  0.00    -0.503 OA
ATOM     29  H   UNL     1     -37.716  28.760   1.694  0.00  0.00    +0.292 HD
ENDBRANCH  25  28
ENDBRANCH  19  20
ENDBRANCH  18  19
ENDBRANCH  16  18
ENDBRANCH   1  16
TORSDOF 11
ENDMDL
MODEL 6
REMARK VINA RESULT:      -5.5      2.129      5.823
REMARK  Name = 5315874
REMARK  11 active torsions:
REMARK  status: ('A' for Active; 'I' for Inactive)
REMARK    1  A    between atoms: O_1  and  C_3
REMARK    2  A    between atoms: O_1  and  C_16
REMARK    3  A    between atoms: C_3  and  C_5
REMARK    4  A    between atoms: C_4  and  C_6
REMARK    5  A    between atoms: C_9  and  O_12
REMARK    6  A    between atoms: C_10  and  O_14
REMARK    7  A    between atoms: C_16  and  C_18
REMARK    8  A    between atoms: C_18  and  C_19
REMARK    9  A    between atoms: C_19  and  C_20
REMARK   10  A    between atoms: C_23  and  O_26
REMARK   11  A    between atoms: C_25  and  O_28
REMARK                            x       y       z     vdW  Elec       q    Type
REMARK                         _______ _______ _______ _____ _____    ______ ____
ROOT
ATOM      1  O   UNL     1     -35.709  22.068   0.059  0.00  0.00    -0.437 OA
ENDROOT
BRANCH   1   3
ATOM      2  O   UNL     1     -35.400  23.533  -1.701  0.00  0.00    -0.245 OA
ATOM      3  C   UNL     1     -35.279  23.219  -0.527  0.00  0.00    +0.342 C 
BRANCH   3   5
ATOM      4  C   UNL     1     -35.070  25.288   0.778  0.00  0.00    +0.007 C 
ATOM      5  C   UNL     1     -34.627  24.038   0.520  0.00  0.00    +0.082 C 
BRANCH   4   6
ATOM      6  C   UNL     1     -34.521  26.182   1.786  0.00  0.00    +0.003 C 
ATOM      7  C   UNL     1     -35.162  27.387   2.072  0.00  0.00    +0.040 C 
ATOM      8  C   UNL     1     -33.352  25.834   2.464  0.00  0.00    +0.003 C 
ATOM      9  C   UNL     1     -33.467  27.897   3.717  0.00  0.00    +0.172 C 
ATOM     10  C   UNL     1     -34.636  28.244   3.039  0.00  0.00    +0.168 C 
ATOM     11  C   UNL     1     -32.826  26.691   3.429  0.00  0.00    +0.040 C 
BRANCH   9  12
ATOM     12  O   UNL     1     -32.944  28.725   4.664  0.00  0.00    -0.468 OA
ATOM     13  C   UNL     1     -32.125  28.126   5.666  0.00  0.00    +0.253 C 
ENDBRANCH   9  12
BRANCH  10  14
ATOM     14  O   UNL     1     -35.269  29.419   3.310  0.00  0.00    -0.503 OA
ATOM     15  H   UNL     1     -36.205  29.463   3.287  0.00  0.00    +0.292 HD
ENDBRANCH  10  14
ENDBRANCH   4   6
ENDBRANCH   3   5
ENDBRANCH   1   3
BRANCH   1  16
ATOM     16  C   UNL     1     -34.940  21.624   1.181  0.00  0.00    +0.273 C 
BRANCH  16  18
ATOM     17  O   UNL     1     -36.892  20.528   2.052  0.00  0.00    -0.292 OA
ATOM     18  C   UNL     1     -35.845  21.126   2.291  0.00  0.00    +0.199 C 
BRANCH  18  19
ATOM     19  C   UNL     1     -35.368  21.415   3.703  0.00  0.00    +0.095 C 
BRANCH  19  20
ATOM     20  C   UNL     1     -35.672  22.817   4.163  0.00  0.00    -0.011 C 
ATOM     21  C   UNL     1     -36.794  23.469   3.672  0.00  0.00    +0.036 C 
ATOM     22  C   UNL     1     -34.826  23.436   5.072  0.00  0.00    -0.001 C 
ATOM     23  C   UNL     1     -37.077  24.766   4.099  0.00  0.00    +0.167 C 
ATOM     24  C   UNL     1     -35.108  24.733   5.499  0.00  0.00    +0.039 C 
ATOM     25  C   UNL     1     -36.233  25.398   5.013  0.00  0.00    +0.167 C 
BRANCH  23  26
ATOM     26  O   UNL     1     -38.179  25.405   3.617  0.00  0.00    -0.503 OA
ATOM     27  H   UNL     1     -39.024  25.010   3.702  0.00  0.00    +0.292 HD
ENDBRANCH  23  26
BRANCH  25  28
ATOM     28  O   UNL     1     -36.498  26.666   5.437  0.00  0.00    -0.503 OA
ATOM     29  H   UNL     1     -37.336  27.050   5.271  0.00  0.00    +0.292 HD
ENDBRANCH  25  28
ENDBRANCH  19  20
ENDBRANCH  18  19
ENDBRANCH  16  18
ENDBRANCH   1  16
TORSDOF 11
ENDMDL
MODEL 7
REMARK VINA RESULT:      -5.5      2.993      8.178
REMARK  Name = 5315874
REMARK  11 active torsions:
REMARK  status: ('A' for Active; 'I' for Inactive)
REMARK    1  A    between atoms: O_1  and  C_3
REMARK    2  A    between atoms: O_1  and  C_16
REMARK    3  A    between atoms: C_3  and  C_5
REMARK    4  A    between atoms: C_4  and  C_6
REMARK    5  A    between atoms: C_9  and  O_12
REMARK    6  A    between atoms: C_10  and  O_14
REMARK    7  A    between atoms: C_16  and  C_18
REMARK    8  A    between atoms: C_18  and  C_19
REMARK    9  A    between atoms: C_19  and  C_20
REMARK   10  A    between atoms: C_23  and  O_26
REMARK   11  A    between atoms: C_25  and  O_28
REMARK                            x       y       z     vdW  Elec       q    Type
REMARK                         _______ _______ _______ _____ _____    ______ ____
ROOT
ATOM      1  O   UNL     1     -36.398  22.673   4.106  0.00  0.00    -0.437 OA
ENDROOT
BRANCH   1   3
ATOM      2  O   UNL     1     -35.922  22.286   6.333  0.00  0.00    -0.245 OA
ATOM      3  C   UNL     1     -35.733  22.868   5.277  0.00  0.00    +0.342 C 
BRANCH   3   5
ATOM      4  C   UNL     1     -34.817  25.107   5.704  0.00  0.00    +0.007 C 
ATOM      5  C   UNL     1     -34.725  23.929   5.048  0.00  0.00    +0.082 C 
BRANCH   4   6
ATOM      6  C   UNL     1     -33.886  26.216   5.573  0.00  0.00    +0.003 C 
ATOM      7  C   UNL     1     -33.672  26.802   4.326  0.00  0.00    +0.040 C 
ATOM      8  C   UNL     1     -33.205  26.692   6.694  0.00  0.00    +0.003 C 
ATOM      9  C   UNL     1     -32.098  28.343   5.320  0.00  0.00    +0.172 C 
ATOM     10  C   UNL     1     -32.779  27.866   4.199  0.00  0.00    +0.168 C 
ATOM     11  C   UNL     1     -32.312  27.755   6.567  0.00  0.00    +0.040 C 
BRANCH   9  12
ATOM     12  O   UNL     1     -31.224  29.382   5.209  0.00  0.00    -0.468 OA
ATOM     13  C   UNL     1     -31.658  30.647   5.703  0.00  0.00    +0.253 C 
ENDBRANCH   9  12
BRANCH  10  14
ATOM     14  O   UNL     1     -32.577  28.431   2.976  0.00  0.00    -0.503 OA
ATOM     15  H   UNL     1     -31.708  28.518   2.638  0.00  0.00    +0.292 HD
ENDBRANCH  10  14
ENDBRANCH   4   6
ENDBRANCH   3   5
ENDBRANCH   1   3
BRANCH   1  16
ATOM     16  C   UNL     1     -35.576  22.588   2.938  0.00  0.00    +0.273 C 
BRANCH  16  18
ATOM     17  O   UNL     1     -36.089  20.242   2.988  0.00  0.00    -0.292 OA
ATOM     18  C   UNL     1     -35.583  21.181   2.375  0.00  0.00    +0.199 C 
BRANCH  18  19
ATOM     19  C   UNL     1     -34.930  21.017   1.014  0.00  0.00    +0.095 C 
BRANCH  19  20
ATOM     20  C   UNL     1     -34.401  19.628   0.767  0.00  0.00    -0.011 C 
ATOM     21  C   UNL     1     -33.185  19.253   1.319  0.00  0.00    +0.036 C 
ATOM     22  C   UNL     1     -35.138  18.744  -0.008  0.00  0.00    -0.001 C 
ATOM     23  C   UNL     1     -32.695  17.966   1.092  0.00  0.00    +0.167 C 
ATOM     24  C   UNL     1     -34.649  17.458  -0.236  0.00  0.00    +0.039 C 
ATOM     25  C   UNL     1     -33.427  17.070   0.314  0.00  0.00    +0.167 C 
BRANCH  23  26
ATOM     26  O   UNL     1     -31.501  17.598   1.634  0.00  0.00    -0.503 OA
ATOM     27  H   UNL     1     -30.706  17.985   1.323  0.00  0.00    +0.292 HD
ENDBRANCH  23  26
BRANCH  25  28
ATOM     28  O   UNL     1     -32.960  15.811   0.084  0.00  0.00    -0.503 OA
ATOM     29  H   UNL     1     -33.455  15.067   0.365  0.00  0.00    +0.292 HD
ENDBRANCH  25  28
ENDBRANCH  19  20
ENDBRANCH  18  19
ENDBRANCH  16  18
ENDBRANCH   1  16
TORSDOF 11
ENDMDL
MODEL 8
REMARK VINA RESULT:      -5.4      5.223      8.043
REMARK  Name = 5315874
REMARK  11 active torsions:
REMARK  status: ('A' for Active; 'I' for Inactive)
REMARK    1  A    between atoms: O_1  and  C_3
REMARK    2  A    between atoms: O_1  and  C_16
REMARK    3  A    between atoms: C_3  and  C_5
REMARK    4  A    between atoms: C_4  and  C_6
REMARK    5  A    between atoms: C_9  and  O_12
REMARK    6  A    between atoms: C_10  and  O_14
REMARK    7  A    between atoms: C_16  and  C_18
REMARK    8  A    between atoms: C_18  and  C_19
REMARK    9  A    between atoms: C_19  and  C_20
REMARK   10  A    between atoms: C_23  and  O_26
REMARK   11  A    between atoms: C_25  and  O_28
REMARK                            x       y       z     vdW  Elec       q    Type
REMARK                         _______ _______ _______ _____ _____    ______ ____
ROOT
ATOM      1  O   UNL     1     -34.402  28.446   3.706  0.00  0.00    -0.437 OA
ENDROOT
BRANCH   1   3
ATOM      2  O   UNL     1     -35.312  27.959   1.639  0.00  0.00    -0.245 OA
ATOM      3  C   UNL     1     -35.049  28.735   2.545  0.00  0.00    +0.342 C 
BRANCH   3   5
ATOM      4  C   UNL     1     -36.228  30.692   1.643  0.00  0.00    +0.007 C 
ATOM      5  C   UNL     1     -35.384  30.178   2.565  0.00  0.00    +0.082 C 
BRANCH   4   6
ATOM      6  C   UNL     1     -36.640  32.085   1.567  0.00  0.00    +0.003 C 
ATOM      7  C   UNL     1     -37.951  32.441   1.879  0.00  0.00    +0.040 C 
ATOM      8  C   UNL     1     -35.724  33.063   1.180  0.00  0.00    +0.003 C 
ATOM      9  C   UNL     1     -37.432  34.756   1.420  0.00  0.00    +0.172 C 
ATOM     10  C   UNL     1     -38.347  33.777   1.807  0.00  0.00    +0.168 C 
ATOM     11  C   UNL     1     -36.120  34.398   1.108  0.00  0.00    +0.040 C 
BRANCH   9  12
ATOM     12  O   UNL     1     -37.806  36.064   1.347  0.00  0.00    -0.468 OA
ATOM     13  C   UNL     1     -36.998  36.925   0.548  0.00  0.00    +0.253 C 
ENDBRANCH   9  12
BRANCH  10  14
ATOM     14  O   UNL     1     -39.631  34.113   2.112  0.00  0.00    -0.503 OA
ATOM     15  H   UNL     1     -39.865  35.013   2.229  0.00  0.00    +0.292 HD
ENDBRANCH  10  14
ENDBRANCH   4   6
ENDBRANCH   3   5
ENDBRANCH   1   3
BRANCH   1  16
ATOM     16  C   UNL     1     -33.776  27.160   3.759  0.00  0.00    +0.273 C 
BRANCH  16  18
ATOM     17  O   UNL     1     -33.282  26.414   5.989  0.00  0.00    -0.292 OA
ATOM     18  C   UNL     1     -34.094  26.460   5.066  0.00  0.00    +0.199 C 
BRANCH  18  19
ATOM     19  C   UNL     1     -35.472  25.829   5.151  0.00  0.00    +0.095 C 
BRANCH  19  20
ATOM     20  C   UNL     1     -35.508  24.402   4.668  0.00  0.00    -0.011 C 
ATOM     21  C   UNL     1     -35.403  23.367   5.586  0.00  0.00    +0.036 C 
ATOM     22  C   UNL     1     -35.647  24.144   3.312  0.00  0.00    -0.001 C 
ATOM     23  C   UNL     1     -35.438  22.046   5.139  0.00  0.00    +0.167 C 
ATOM     24  C   UNL     1     -35.682  22.824   2.864  0.00  0.00    +0.039 C 
ATOM     25  C   UNL     1     -35.577  21.776   3.777  0.00  0.00    +0.167 C 
BRANCH  23  26
ATOM     26  O   UNL     1     -35.335  21.031   6.040  0.00  0.00    -0.503 OA
ATOM     27  H   UNL     1     -36.080  20.494   6.228  0.00  0.00    +0.292 HD
ENDBRANCH  23  26
BRANCH  25  28
ATOM     28  O   UNL     1     -35.611  20.490   3.328  0.00  0.00    -0.503 OA
ATOM     29  H   UNL     1     -34.925  19.895   3.555  0.00  0.00    +0.292 HD
ENDBRANCH  25  28
ENDBRANCH  19  20
ENDBRANCH  18  19
ENDBRANCH  16  18
ENDBRANCH   1  16
TORSDOF 11
ENDMDL
MODEL 9
REMARK VINA RESULT:      -5.4      3.213      4.330
REMARK  Name = 5315874
REMARK  11 active torsions:
REMARK  status: ('A' for Active; 'I' for Inactive)
REMARK    1  A    between atoms: O_1  and  C_3
REMARK    2  A    between atoms: O_1  and  C_16
REMARK    3  A    between atoms: C_3  and  C_5
REMARK    4  A    between atoms: C_4  and  C_6
REMARK    5  A    between atoms: C_9  and  O_12
REMARK    6  A    between atoms: C_10  and  O_14
REMARK    7  A    between atoms: C_16  and  C_18
REMARK    8  A    between atoms: C_18  and  C_19
REMARK    9  A    between atoms: C_19  and  C_20
REMARK   10  A    between atoms: C_23  and  O_26
REMARK   11  A    between atoms: C_25  and  O_28
REMARK                            x       y       z     vdW  Elec       q    Type
REMARK                         _______ _______ _______ _____ _____    ______ ____
ROOT
ATOM      1  O   UNL     1     -34.392  25.371   0.380  0.00  0.00    -0.437 OA
ENDROOT
BRANCH   1   3
ATOM      2  O   UNL     1     -32.981  25.198  -1.442  0.00  0.00    -0.245 OA
ATOM      3  C   UNL     1     -33.553  24.722  -0.473  0.00  0.00    +0.342 C 
BRANCH   3   5
ATOM      4  C   UNL     1     -32.480  22.513  -0.507  0.00  0.00    +0.007 C 
ATOM      5  C   UNL     1     -33.452  23.316  -0.019  0.00  0.00    +0.082 C 
BRANCH   4   6
ATOM      6  C   UNL     1     -32.273  21.124  -0.131  0.00  0.00    +0.003 C 
ATOM      7  C   UNL     1     -33.293  20.413   0.499  0.00  0.00    +0.040 C 
ATOM      8  C   UNL     1     -31.053  20.503  -0.400  0.00  0.00    +0.003 C 
ATOM      9  C   UNL     1     -31.875  18.459   0.591  0.00  0.00    +0.172 C 
ATOM     10  C   UNL     1     -33.096  19.080   0.859  0.00  0.00    +0.168 C 
ATOM     11  C   UNL     1     -30.854  19.171  -0.039  0.00  0.00    +0.040 C 
BRANCH   9  12
ATOM     12  O   UNL     1     -31.670  17.157   0.937  0.00  0.00    -0.468 OA
ATOM     13  C   UNL     1     -31.918  16.174  -0.066  0.00  0.00    +0.253 C 
ENDBRANCH   9  12
BRANCH  10  14
ATOM     14  O   UNL     1     -34.099  18.395   1.476  0.00  0.00    -0.503 OA
ATOM     15  H   UNL     1     -34.941  18.793   1.582  0.00  0.00    +0.292 HD
ENDBRANCH  10  14
ENDBRANCH   4   6
ENDBRANCH   3   5
ENDBRANCH   1   3
BRANCH   1  16
ATOM     16  C   UNL     1     -33.765  26.292   1.278  0.00  0.00    +0.273 C 
BRANCH  16  18
ATOM     17  O   UNL     1     -32.814  25.671   3.395  0.00  0.00    -0.292 OA
ATOM     18  C   UNL     1     -33.826  25.780   2.704  0.00  0.00    +0.199 C 
BRANCH  18  19
ATOM     19  C   UNL     1     -35.210  25.418   3.210  0.00  0.00    +0.095 C 
BRANCH  19  20
ATOM     20  C   UNL     1     -35.255  24.104   3.945  0.00  0.00    -0.011 C 
ATOM     21  C   UNL     1     -35.419  22.927   3.230  0.00  0.00    +0.036 C 
ATOM     22  C   UNL     1     -35.129  24.090   5.327  0.00  0.00    -0.001 C 
ATOM     23  C   UNL     1     -35.459  21.709   3.911  0.00  0.00    +0.167 C 
ATOM     24  C   UNL     1     -35.169  22.874   6.008  0.00  0.00    +0.039 C 
ATOM     25  C   UNL     1     -35.334  21.684   5.300  0.00  0.00    +0.167 C 
BRANCH  23  26
ATOM     26  O   UNL     1     -35.620  20.554   3.209  0.00  0.00    -0.503 OA
ATOM     27  H   UNL     1     -35.315  20.497   2.324  0.00  0.00    +0.292 HD
ENDBRANCH  23  26
BRANCH  25  28
ATOM     28  O   UNL     1     -35.372  20.502   5.976  0.00  0.00    -0.503 OA
ATOM     29  H   UNL     1     -34.575  20.064   6.200  0.00  0.00    +0.292 HD
ENDBRANCH  25  28
ENDBRANCH  19  20
ENDBRANCH  18  19
ENDBRANCH  16  18
ENDBRANCH   1  16
TORSDOF 11
ENDMDL
