MODEL 1
REMARK VINA RESULT:      -6.3      0.000      0.000
REMARK  Name = 5743568
REMARK  2 active torsions:
REMARK  status: ('A' for Active; 'I' for Inactive)
REMARK    1  A    between atoms: N_3  and  C_15
REMARK    2  A    between atoms: C_10  and  O_21
REMARK                            x       y       z     vdW  Elec       q    Type
REMARK                         _______ _______ _______ _____ _____    ______ ____
ROOT
ATOM      1  O   UNL     1     -36.446  23.689   5.206  0.00  0.00    -0.269 OA
ATOM      2  O   UNL     1     -35.188  25.876   1.321  0.00  0.00    -0.269 OA
ATOM      3  N   UNL     1     -36.107  24.554   3.042  0.00  0.00    -0.216 N 
ATOM      4  C   UNL     1     -35.917  24.433   4.402  0.00  0.00    +0.256 C 
ATOM      5  C   UNL     1     -35.295  25.516   2.479  0.00  0.00    +0.255 C 
ATOM      6  C   UNL     1     -34.893  25.419   4.747  0.00  0.00    +0.061 C 
ATOM      7  C   UNL     1     -34.517  26.073   3.584  0.00  0.00    +0.059 C 
ATOM      8  C   UNL     1     -34.330  25.722   5.970  0.00  0.00    +0.041 C 
ATOM      9  C   UNL     1     -33.558  27.067   3.582  0.00  0.00    +0.008 C 
ATOM     10  C   UNL     1     -33.357  26.726   5.993  0.00  0.00    +0.134 C 
ATOM     11  C   UNL     1     -32.975  27.391   4.810  0.00  0.00    +0.037 C 
ENDROOT
BRANCH   3  15
ATOM     12  O   UNL     1     -38.691  25.409   2.957  0.00  0.00    -0.273 OA
ATOM     13  O   UNL     1     -40.282  21.196   1.998  0.00  0.00    -0.275 OA
ATOM     14  N   UNL     1     -39.445  23.284   2.500  0.00  0.00    -0.254 N 
ATOM     15  C   UNL     1     -37.047  23.764   2.293  0.00  0.00    +0.160 C 
ATOM     16  C   UNL     1     -36.882  22.283   2.591  0.00  0.00    +0.039 C 
ATOM     17  C   UNL     1     -37.914  21.493   1.806  0.00  0.00    +0.088 C 
ATOM     18  C   UNL     1     -38.444  24.244   2.644  0.00  0.00    +0.247 C 
ATOM     19  C   UNL     1     -39.317  21.951   2.122  0.00  0.00    +0.228 C 
ATOM     20  H   UNL     1     -40.361  23.588   2.691  0.00  0.00    +0.158 HD
ENDBRANCH   3  15
BRANCH  10  21
ATOM     21  O   UNL     1     -32.768  27.068   7.174  0.00  0.00    -0.506 OA
ATOM     22  H   UNL     1     -32.909  26.543   7.937  0.00  0.00    +0.292 HD
ENDBRANCH  10  21
TORSDOF 2
ENDMDL
MODEL 2
REMARK VINA RESULT:      -6.2      3.424      4.590
REMARK  Name = 5743568
REMARK  2 active torsions:
REMARK  status: ('A' for Active; 'I' for Inactive)
REMARK    1  A    between atoms: N_3  and  C_15
REMARK    2  A    between atoms: C_10  and  O_21
REMARK                            x       y       z     vdW  Elec       q    Type
REMARK                         _______ _______ _______ _____ _____    ______ ____
ROOT
ATOM      1  O   UNL     1     -35.350  23.724   0.576  0.00  0.00    -0.269 OA
ATOM      2  O   UNL     1     -35.234  20.493   3.893  0.00  0.00    -0.269 OA
ATOM      3  N   UNL     1     -35.233  21.805   1.936  0.00  0.00    -0.216 N 
ATOM      4  C   UNL     1     -35.347  23.148   1.648  0.00  0.00    +0.256 C 
ATOM      5  C   UNL     1     -35.289  21.549   3.290  0.00  0.00    +0.255 C 
ATOM      6  C   UNL     1     -35.478  23.820   2.941  0.00  0.00    +0.061 C 
ATOM      7  C   UNL     1     -35.443  22.852   3.933  0.00  0.00    +0.059 C 
ATOM      8  C   UNL     1     -35.618  25.161   3.233  0.00  0.00    +0.041 C 
ATOM      9  C   UNL     1     -35.547  23.175   5.272  0.00  0.00    +0.008 C 
ATOM     10  C   UNL     1     -35.725  25.512   4.582  0.00  0.00    +0.134 C 
ATOM     11  C   UNL     1     -35.689  24.528   5.591  0.00  0.00    +0.037 C 
ENDROOT
BRANCH   3  15
ATOM     12  O   UNL     1     -37.465  20.476   1.122  0.00  0.00    -0.273 OA
ATOM     13  O   UNL     1     -35.038  16.839  -0.323  0.00  0.00    -0.275 OA
ATOM     14  N   UNL     1     -36.216  18.670   0.433  0.00  0.00    -0.254 N 
ATOM     15  C   UNL     1     -35.074  20.784   0.935  0.00  0.00    +0.160 C 
ATOM     16  C   UNL     1     -33.885  19.890   1.245  0.00  0.00    +0.039 C 
ATOM     17  C   UNL     1     -33.777  18.810   0.183  0.00  0.00    +0.088 C 
ATOM     18  C   UNL     1     -36.364  19.985   0.875  0.00  0.00    +0.247 C 
ATOM     19  C   UNL     1     -35.046  18.000   0.087  0.00  0.00    +0.228 C 
ATOM     20  H   UNL     1     -37.047  18.149   0.356  0.00  0.00    +0.158 HD
ENDBRANCH   3  15
BRANCH  10  21
ATOM     21  O   UNL     1     -35.865  26.823   4.930  0.00  0.00    -0.506 OA
ATOM     22  H   UNL     1     -35.656  27.101   5.799  0.00  0.00    +0.292 HD
ENDBRANCH  10  21
TORSDOF 2
ENDMDL
MODEL 3
REMARK VINA RESULT:      -6.2      1.130      2.209
REMARK  Name = 5743568
REMARK  2 active torsions:
REMARK  status: ('A' for Active; 'I' for Inactive)
REMARK    1  A    between atoms: N_3  and  C_15
REMARK    2  A    between atoms: C_10  and  O_21
REMARK                            x       y       z     vdW  Elec       q    Type
REMARK                         _______ _______ _______ _____ _____    ______ ____
ROOT
ATOM      1  O   UNL     1     -36.504  26.463   1.486  0.00  0.00    -0.269 OA
ATOM      2  O   UNL     1     -36.746  22.880   4.411  0.00  0.00    -0.269 OA
ATOM      3  N   UNL     1     -36.908  24.479   2.688  0.00  0.00    -0.216 N 
ATOM      4  C   UNL     1     -36.330  25.701   2.418  0.00  0.00    +0.256 C 
ATOM      5  C   UNL     1     -36.450  23.926   3.865  0.00  0.00    +0.255 C 
ATOM      6  C   UNL     1     -35.405  25.953   3.523  0.00  0.00    +0.061 C 
ATOM      7  C   UNL     1     -35.478  24.880   4.398  0.00  0.00    +0.059 C 
ATOM      8  C   UNL     1     -34.570  27.028   3.752  0.00  0.00    +0.041 C 
ATOM      9  C   UNL     1     -34.719  24.824   5.550  0.00  0.00    +0.008 C 
ATOM     10  C   UNL     1     -33.791  26.993   4.912  0.00  0.00    +0.134 C 
ATOM     11  C   UNL     1     -33.865  25.902   5.802  0.00  0.00    +0.037 C 
ENDROOT
BRANCH   3  15
ATOM     12  O   UNL     1     -39.511  24.541   3.481  0.00  0.00    -0.273 OA
ATOM     13  O   UNL     1     -40.601  20.859   0.940  0.00  0.00    -0.275 OA
ATOM     14  N   UNL     1     -40.008  22.685   2.214  0.00  0.00    -0.254 N 
ATOM     15  C   UNL     1     -37.880  23.849   1.835  0.00  0.00    +0.160 C 
ATOM     16  C   UNL     1     -37.398  22.489   1.360  0.00  0.00    +0.039 C 
ATOM     17  C   UNL     1     -38.468  21.849   0.493  0.00  0.00    +0.088 C 
ATOM     18  C   UNL     1     -39.178  23.732   2.615  0.00  0.00    +0.247 C 
ATOM     19  C   UNL     1     -39.778  21.726   1.232  0.00  0.00    +0.228 C 
ATOM     20  H   UNL     1     -40.868  22.616   2.686  0.00  0.00    +0.158 HD
ENDBRANCH   3  15
BRANCH  10  21
ATOM     21  O   UNL     1     -32.947  28.027   5.189  0.00  0.00    -0.506 OA
ATOM     22  H   UNL     1     -32.791  28.690   4.546  0.00  0.00    +0.292 HD
ENDBRANCH  10  21
TORSDOF 2
ENDMDL
MODEL 4
REMARK VINA RESULT:      -6.1      1.692      6.499
REMARK  Name = 5743568
REMARK  2 active torsions:
REMARK  status: ('A' for Active; 'I' for Inactive)
REMARK    1  A    between atoms: N_3  and  C_15
REMARK    2  A    between atoms: C_10  and  O_21
REMARK                            x       y       z     vdW  Elec       q    Type
REMARK                         _______ _______ _______ _____ _____    ______ ____
ROOT
ATOM      1  O   UNL     1     -37.988  24.180   3.675  0.00  0.00    -0.269 OA
ATOM      2  O   UNL     1     -34.748  21.557   1.657  0.00  0.00    -0.269 OA
ATOM      3  N   UNL     1     -36.064  23.069   2.894  0.00  0.00    -0.216 N 
ATOM      4  C   UNL     1     -37.410  23.348   3.002  0.00  0.00    +0.256 C 
ATOM      5  C   UNL     1     -35.805  22.049   2.004  0.00  0.00    +0.255 C 
ATOM      6  C   UNL     1     -38.081  22.410   2.103  0.00  0.00    +0.061 C 
ATOM      7  C   UNL     1     -37.110  21.625   1.499  0.00  0.00    +0.059 C 
ATOM      8  C   UNL     1     -39.423  22.251   1.828  0.00  0.00    +0.041 C 
ATOM      9  C   UNL     1     -37.431  20.638   0.588  0.00  0.00    +0.008 C 
ATOM     10  C   UNL     1     -39.773  21.257   0.909  0.00  0.00    +0.134 C 
ATOM     11  C   UNL     1     -38.786  20.459   0.294  0.00  0.00    +0.037 C 
ENDROOT
BRANCH   3  15
ATOM     12  O   UNL     1     -35.941  22.663   5.584  0.00  0.00    -0.273 OA
ATOM     13  O   UNL     1     -33.757  26.651   6.307  0.00  0.00    -0.275 OA
ATOM     14  N   UNL     1     -34.870  24.674   5.903  0.00  0.00    -0.254 N 
ATOM     15  C   UNL     1     -35.043  23.767   3.629  0.00  0.00    +0.160 C 
ATOM     16  C   UNL     1     -34.958  25.224   3.207  0.00  0.00    +0.039 C 
ATOM     17  C   UNL     1     -33.893  25.927   4.030  0.00  0.00    +0.088 C 
ATOM     18  C   UNL     1     -35.362  23.639   5.108  0.00  0.00    +0.247 C 
ATOM     19  C   UNL     1     -34.172  25.812   5.509  0.00  0.00    +0.228 C 
ATOM     20  H   UNL     1     -35.039  24.589   6.869  0.00  0.00    +0.158 HD
ENDBRANCH   3  15
BRANCH  10  21
ATOM     21  O   UNL     1     -41.085  21.055   0.599  0.00  0.00    -0.506 OA
ATOM     22  H   UNL     1     -41.736  21.094   1.272  0.00  0.00    +0.292 HD
ENDBRANCH  10  21
TORSDOF 2
ENDMDL
MODEL 5
REMARK VINA RESULT:      -6.1      1.743      6.596
REMARK  Name = 5743568
REMARK  2 active torsions:
REMARK  status: ('A' for Active; 'I' for Inactive)
REMARK    1  A    between atoms: N_3  and  C_15
REMARK    2  A    between atoms: C_10  and  O_21
REMARK                            x       y       z     vdW  Elec       q    Type
REMARK                         _______ _______ _______ _____ _____    ______ ____
ROOT
ATOM      1  O   UNL     1     -34.964  21.495   1.818  0.00  0.00    -0.269 OA
ATOM      2  O   UNL     1     -38.059  24.405   3.666  0.00  0.00    -0.269 OA
ATOM      3  N   UNL     1     -36.194  23.156   2.947  0.00  0.00    -0.216 N 
ATOM      4  C   UNL     1     -35.990  22.080   2.109  0.00  0.00    +0.256 C 
ATOM      5  C   UNL     1     -37.522  23.521   3.023  0.00  0.00    +0.255 C 
ATOM      6  C   UNL     1     -37.312  21.728   1.590  0.00  0.00    +0.061 C 
ATOM      7  C   UNL     1     -38.237  22.599   2.143  0.00  0.00    +0.059 C 
ATOM      8  C   UNL     1     -37.681  20.731   0.711  0.00  0.00    +0.041 C 
ATOM      9  C   UNL     1     -39.583  22.520   1.846  0.00  0.00    +0.008 C 
ATOM     10  C   UNL     1     -39.040  20.632   0.394  0.00  0.00    +0.134 C 
ATOM     11  C   UNL     1     -39.981  21.518   0.957  0.00  0.00    +0.037 C 
ENDROOT
BRANCH   3  15
ATOM     12  O   UNL     1     -36.039  22.751   5.635  0.00  0.00    -0.273 OA
ATOM     13  O   UNL     1     -33.719  26.671   6.311  0.00  0.00    -0.275 OA
ATOM     14  N   UNL     1     -34.900  24.729   5.931  0.00  0.00    -0.254 N 
ATOM     15  C   UNL     1     -35.140  23.822   3.662  0.00  0.00    +0.160 C 
ATOM     16  C   UNL     1     -35.017  25.276   3.236  0.00  0.00    +0.039 C 
ATOM     17  C   UNL     1     -33.916  25.946   4.038  0.00  0.00    +0.088 C 
ATOM     18  C   UNL     1     -35.438  23.708   5.147  0.00  0.00    +0.247 C 
ATOM     19  C   UNL     1     -34.174  25.843   5.522  0.00  0.00    +0.228 C 
ATOM     20  H   UNL     1     -35.056  24.651   6.900  0.00  0.00    +0.158 HD
ENDBRANCH   3  15
BRANCH  10  21
ATOM     21  O   UNL     1     -39.463  19.665  -0.470  0.00  0.00    -0.506 OA
ATOM     22  H   UNL     1     -39.967  18.942  -0.153  0.00  0.00    +0.292 HD
ENDBRANCH  10  21
TORSDOF 2
ENDMDL
MODEL 6
REMARK VINA RESULT:      -6.0      1.547      1.992
REMARK  Name = 5743568
REMARK  2 active torsions:
REMARK  status: ('A' for Active; 'I' for Inactive)
REMARK    1  A    between atoms: N_3  and  C_15
REMARK    2  A    between atoms: C_10  and  O_21
REMARK                            x       y       z     vdW  Elec       q    Type
REMARK                         _______ _______ _______ _____ _____    ______ ____
ROOT
ATOM      1  O   UNL     1     -36.172  22.931   5.628  0.00  0.00    -0.269 OA
ATOM      2  O   UNL     1     -36.339  24.770   1.380  0.00  0.00    -0.269 OA
ATOM      3  N   UNL     1     -36.535  23.546   3.384  0.00  0.00    -0.216 N 
ATOM      4  C   UNL     1     -36.012  23.644   4.656  0.00  0.00    +0.256 C 
ATOM      5  C   UNL     1     -36.095  24.555   2.553  0.00  0.00    +0.255 C 
ATOM      6  C   UNL     1     -35.164  24.836   4.644  0.00  0.00    +0.061 C 
ATOM      7  C   UNL     1     -35.214  25.386   3.372  0.00  0.00    +0.059 C 
ATOM      8  C   UNL     1     -34.408  25.396   5.653  0.00  0.00    +0.041 C 
ATOM      9  C   UNL     1     -34.511  26.527   3.042  0.00  0.00    +0.008 C 
ATOM     10  C   UNL     1     -33.688  26.553   5.342  0.00  0.00    +0.134 C 
ATOM     11  C   UNL     1     -33.739  27.113   4.048  0.00  0.00    +0.037 C 
ENDROOT
BRANCH   3  15
ATOM     12  O   UNL     1     -35.464  21.344   2.193  0.00  0.00    -0.273 OA
ATOM     13  O   UNL     1     -39.423  20.288   0.090  0.00  0.00    -0.275 OA
ATOM     14  N   UNL     1     -37.456  20.865   1.144  0.00  0.00    -0.254 N 
ATOM     15  C   UNL     1     -37.437  22.506   2.970  0.00  0.00    +0.160 C 
ATOM     16  C   UNL     1     -38.651  23.081   2.258  0.00  0.00    +0.039 C 
ATOM     17  C   UNL     1     -39.557  21.948   1.811  0.00  0.00    +0.088 C 
ATOM     18  C   UNL     1     -36.671  21.554   2.069  0.00  0.00    +0.247 C 
ATOM     19  C   UNL     1     -38.825  20.974   0.920  0.00  0.00    +0.228 C 
ATOM     20  H   UNL     1     -36.979  20.219   0.575  0.00  0.00    +0.158 HD
ENDBRANCH   3  15
BRANCH  10  21
ATOM     21  O   UNL     1     -32.924  27.151   6.300  0.00  0.00    -0.506 OA
ATOM     22  H   UNL     1     -33.245  27.222   7.177  0.00  0.00    +0.292 HD
ENDBRANCH  10  21
TORSDOF 2
ENDMDL
MODEL 7
REMARK VINA RESULT:      -5.9      2.992      6.312
REMARK  Name = 5743568
REMARK  2 active torsions:
REMARK  status: ('A' for Active; 'I' for Inactive)
REMARK    1  A    between atoms: N_3  and  C_15
REMARK    2  A    between atoms: C_10  and  O_21
REMARK                            x       y       z     vdW  Elec       q    Type
REMARK                         _______ _______ _______ _____ _____    ______ ____
ROOT
ATOM      1  O   UNL     1     -34.366  26.779   5.436  0.00  0.00    -0.269 OA
ATOM      2  O   UNL     1     -34.264  25.129   1.109  0.00  0.00    -0.269 OA
ATOM      3  N   UNL     1     -34.165  26.332   3.133  0.00  0.00    -0.216 N 
ATOM      4  C   UNL     1     -34.439  26.062   4.456  0.00  0.00    +0.256 C 
ATOM      5  C   UNL     1     -34.388  25.245   2.314  0.00  0.00    +0.255 C 
ATOM      6  C   UNL     1     -34.869  24.664   4.493  0.00  0.00    +0.061 C 
ATOM      7  C   UNL     1     -34.838  24.171   3.198  0.00  0.00    +0.059 C 
ATOM      8  C   UNL     1     -35.259  23.884   5.562  0.00  0.00    +0.041 C 
ATOM      9  C   UNL     1     -35.195  22.870   2.902  0.00  0.00    +0.008 C 
ATOM     10  C   UNL     1     -35.624  22.562   5.288  0.00  0.00    +0.134 C 
ATOM     11  C   UNL     1     -35.592  22.061   3.970  0.00  0.00    +0.037 C 
ENDROOT
BRANCH   3  15
ATOM     12  O   UNL     1     -31.551  26.961   3.562  0.00  0.00    -0.273 OA
ATOM     13  O   UNL     1     -32.359  31.483   3.237  0.00  0.00    -0.275 OA
ATOM     14  N   UNL     1     -32.002  29.213   3.414  0.00  0.00    -0.254 N 
ATOM     15  C   UNL     1     -33.698  27.607   2.658  0.00  0.00    +0.160 C 
ATOM     16  C   UNL     1     -34.679  28.716   3.004  0.00  0.00    +0.039 C 
ATOM     17  C   UNL     1     -34.131  30.045   2.514  0.00  0.00    +0.088 C 
ATOM     18  C   UNL     1     -32.335  27.865   3.276  0.00  0.00    +0.247 C 
ATOM     19  C   UNL     1     -32.770  30.330   3.100  0.00  0.00    +0.228 C 
ATOM     20  H   UNL     1     -31.108  29.397   3.781  0.00  0.00    +0.158 HD
ENDBRANCH   3  15
BRANCH  10  21
ATOM     21  O   UNL     1     -36.016  21.745   6.306  0.00  0.00    -0.506 OA
ATOM     22  H   UNL     1     -36.534  22.087   7.008  0.00  0.00    +0.292 HD
ENDBRANCH  10  21
TORSDOF 2
ENDMDL
MODEL 8
REMARK VINA RESULT:      -5.9      1.750      2.856
REMARK  Name = 5743568
REMARK  2 active torsions:
REMARK  status: ('A' for Active; 'I' for Inactive)
REMARK    1  A    between atoms: N_3  and  C_15
REMARK    2  A    between atoms: C_10  and  O_21
REMARK                            x       y       z     vdW  Elec       q    Type
REMARK                         _______ _______ _______ _____ _____    ______ ____
ROOT
ATOM      1  O   UNL     1     -36.577  24.936   1.603  0.00  0.00    -0.269 OA
ATOM      2  O   UNL     1     -36.000  22.711   5.625  0.00  0.00    -0.269 OA
ATOM      3  N   UNL     1     -36.531  23.499   3.469  0.00  0.00    -0.216 N 
ATOM      4  C   UNL     1     -36.226  24.618   2.724  0.00  0.00    +0.256 C 
ATOM      5  C   UNL     1     -35.939  23.516   4.715  0.00  0.00    +0.255 C 
ATOM      6  C   UNL     1     -35.345  25.426   3.567  0.00  0.00    +0.061 C 
ATOM      7  C   UNL     1     -35.172  24.760   4.771  0.00  0.00    +0.059 C 
ATOM      8  C   UNL     1     -34.744  26.642   3.313  0.00  0.00    +0.041 C 
ATOM      9  C   UNL     1     -34.389  25.274   5.785  0.00  0.00    +0.008 C 
ATOM     10  C   UNL     1     -33.944  27.182   4.325  0.00  0.00    +0.134 C 
ATOM     11  C   UNL     1     -33.769  26.504   5.549  0.00  0.00    +0.037 C 
ENDROOT
BRANCH   3  15
ATOM     12  O   UNL     1     -35.361  21.497   2.043  0.00  0.00    -0.273 OA
ATOM     13  O   UNL     1     -39.326  20.327   0.016  0.00  0.00    -0.275 OA
ATOM     14  N   UNL     1     -37.359  20.959   1.037  0.00  0.00    -0.254 N 
ATOM     15  C   UNL     1     -37.375  22.433   3.000  0.00  0.00    +0.160 C 
ATOM     16  C   UNL     1     -38.658  22.973   2.392  0.00  0.00    +0.039 C 
ATOM     17  C   UNL     1     -39.500  21.817   1.882  0.00  0.00    +0.088 C 
ATOM     18  C   UNL     1     -36.584  21.624   1.988  0.00  0.00    +0.247 C 
ATOM     19  C   UNL     1     -38.742  20.982   0.879  0.00  0.00    +0.228 C 
ATOM     20  H   UNL     1     -36.864  20.403   0.394  0.00  0.00    +0.158 HD
ENDBRANCH   3  15
BRANCH  10  21
ATOM     21  O   UNL     1     -33.325  28.380   4.128  0.00  0.00    -0.506 OA
ATOM     22  H   UNL     1     -33.286  29.007   4.824  0.00  0.00    +0.292 HD
ENDBRANCH  10  21
TORSDOF 2
ENDMDL
MODEL 9
REMARK VINA RESULT:      -5.9      2.925      6.523
REMARK  Name = 5743568
REMARK  2 active torsions:
REMARK  status: ('A' for Active; 'I' for Inactive)
REMARK    1  A    between atoms: N_3  and  C_15
REMARK    2  A    between atoms: C_10  and  O_21
REMARK                            x       y       z     vdW  Elec       q    Type
REMARK                         _______ _______ _______ _____ _____    ______ ____
ROOT
ATOM      1  O   UNL     1     -34.321  25.074   1.171  0.00  0.00    -0.269 OA
ATOM      2  O   UNL     1     -34.312  26.693   5.511  0.00  0.00    -0.269 OA
ATOM      3  N   UNL     1     -34.208  26.273   3.195  0.00  0.00    -0.216 N 
ATOM      4  C   UNL     1     -34.423  25.183   2.378  0.00  0.00    +0.256 C 
ATOM      5  C   UNL     1     -34.420  25.985   4.527  0.00  0.00    +0.255 C 
ATOM      6  C   UNL     1     -34.822  24.094   3.270  0.00  0.00    +0.061 C 
ATOM      7  C   UNL     1     -34.820  24.579   4.569  0.00  0.00    +0.059 C 
ATOM      8  C   UNL     1     -35.158  22.788   2.979  0.00  0.00    +0.041 C 
ATOM      9  C   UNL     1     -35.153  23.783   5.647  0.00  0.00    +0.008 C 
ATOM     10  C   UNL     1     -35.500  21.963   4.055  0.00  0.00    +0.134 C 
ATOM     11  C   UNL     1     -35.497  22.456   5.376  0.00  0.00    +0.037 C 
ENDROOT
BRANCH   3  15
ATOM     12  O   UNL     1     -31.627  27.032   3.615  0.00  0.00    -0.273 OA
ATOM     13  O   UNL     1     -32.657  31.506   3.261  0.00  0.00    -0.275 OA
ATOM     14  N   UNL     1     -32.189  29.258   3.453  0.00  0.00    -0.254 N 
ATOM     15  C   UNL     1     -33.805  27.566   2.711  0.00  0.00    +0.160 C 
ATOM     16  C   UNL     1     -34.838  28.627   3.051  0.00  0.00    +0.039 C 
ATOM     17  C   UNL     1     -34.357  29.978   2.552  0.00  0.00    +0.088 C 
ATOM     18  C   UNL     1     -32.456  27.895   3.324  0.00  0.00    +0.247 C 
ATOM     19  C   UNL     1     -33.011  30.334   3.133  0.00  0.00    +0.228 C 
ATOM     20  H   UNL     1     -31.304  29.488   3.817  0.00  0.00    +0.158 HD
ENDBRANCH   3  15
BRANCH  10  21
ATOM     21  O   UNL     1     -35.841  20.663   3.827  0.00  0.00    -0.506 OA
ATOM     22  H   UNL     1     -35.212  20.070   3.466  0.00  0.00    +0.292 HD
ENDBRANCH  10  21
TORSDOF 2
ENDMDL
