MODEL 1
REMARK VINA RESULT:      -6.7      0.000      0.000
REMARK  Name = 5317483
REMARK  8 active torsions:
REMARK  status: ('A' for Active; 'I' for Inactive)
REMARK    1  A    between atoms: C_4  and  C_28
REMARK    2  A    between atoms: C_6  and  O_22
REMARK    3  A    between atoms: C_7  and  O_24
REMARK    4  A    between atoms: C_9  and  C_12
REMARK    5  A    between atoms: C_11  and  O_26
REMARK    6  A    between atoms: C_15  and  O_18
REMARK    7  A    between atoms: C_17  and  O_20
REMARK    8  A    between atoms: C_28  and  C_29
REMARK                            x       y       z     vdW  Elec       q    Type
REMARK                         _______ _______ _______ _____ _____    ______ ____
ROOT
ATOM      1  O   UNL     1     -34.745  20.076   2.481  0.00  0.00    -0.450 OA
ATOM      2  O   UNL     1     -34.939  23.389   0.115  0.00  0.00    -0.283 OA
ATOM      3  C   UNL     1     -35.175  22.456   2.268  0.00  0.00    +0.110 A 
ATOM      4  C   UNL     1     -35.815  23.690   4.240  0.00  0.00    +0.050 C 
ATOM      5  C   UNL     1     -35.093  21.288   3.022  0.00  0.00    +0.154 A 
ATOM      6  C   UNL     1     -35.537  23.663   2.874  0.00  0.00    +0.139 C 
ATOM      7  C   UNL     1     -35.733  22.520   4.997  0.00  0.00    +0.136 C 
ATOM      8  C   UNL     1     -35.372  21.317   4.388  0.00  0.00    +0.074 C 
ATOM      9  C   UNL     1     -34.451  20.017   1.128  0.00  0.00    +0.182 A 
ATOM     10  C   UNL     1     -34.878  22.396   0.828  0.00  0.00    +0.238 A 
ATOM     11  C   UNL     1     -34.502  21.068   0.289  0.00  0.00    +0.208 A 
ENDROOT
BRANCH   9  12
ATOM     12  C   UNL     1     -34.094  18.660   0.677  0.00  0.00    +0.041 C 
ATOM     13  C   UNL     1     -32.808  18.167   0.898  0.00  0.00    +0.043 C 
ATOM     14  C   UNL     1     -35.042  17.868   0.027  0.00  0.00    +0.006 C 
ATOM     15  C   UNL     1     -32.470  16.883   0.470  0.00  0.00    +0.172 C 
ATOM     16  C   UNL     1     -34.705  16.584  -0.401  0.00  0.00    +0.040 C 
ATOM     17  C   UNL     1     -33.419  16.092  -0.179  0.00  0.00    +0.168 C 
BRANCH  15  18
ATOM     18  O   UNL     1     -31.211  16.412   0.692  0.00  0.00    -0.468 OA
ATOM     19  C   UNL     1     -30.131  17.308   0.438  0.00  0.00    +0.253 C 
ENDBRANCH  15  18
BRANCH  17  20
ATOM     20  O   UNL     1     -33.101  14.835  -0.600  0.00  0.00    -0.503 OA
ATOM     21  H   UNL     1     -32.816  14.695  -1.482  0.00  0.00    +0.292 HD
ENDBRANCH  17  20
ENDBRANCH   9  12
BRANCH   6  22
ATOM     22  O   UNL     1     -35.625  24.825   2.166  0.00  0.00    -0.506 OA
ATOM     23  H   UNL     1     -35.574  25.648   2.610  0.00  0.00    +0.292 HD
ENDBRANCH   6  22
BRANCH   7  24
ATOM     24  O   UNL     1     -36.003  22.533   6.333  0.00  0.00    -0.506 OA
ATOM     25  H   UNL     1     -35.324  22.738   6.945  0.00  0.00    +0.292 HD
ENDBRANCH   7  24
BRANCH  11  26
ATOM     26  O   UNL     1     -34.235  20.968  -1.059  0.00  0.00    -0.501 OA
ATOM     27  H   UNL     1     -33.733  21.633  -1.488  0.00  0.00    +0.292 HD
ENDBRANCH  11  26
BRANCH   4  28
ATOM     28  C   UNL     1     -36.201  24.975   4.903  0.00  0.00    +0.058 C 
BRANCH  28  29
ATOM     29  C   UNL     1     -35.155  25.473   5.866  0.00  0.00    -0.030 C 
ATOM     30  C   UNL     1     -34.121  26.298   5.614  0.00  0.00    -0.048 C 
ATOM     31  C   UNL     1     -33.895  26.833   4.225  0.00  0.00    +0.026 C 
ATOM     32  C   UNL     1     -33.110  26.757   6.626  0.00  0.00    +0.026 C 
ENDBRANCH  28  29
ENDBRANCH   4  28
TORSDOF 8
ENDMDL
MODEL 2
REMARK VINA RESULT:      -6.6      4.260      7.341
REMARK  Name = 5317483
REMARK  8 active torsions:
REMARK  status: ('A' for Active; 'I' for Inactive)
REMARK    1  A    between atoms: C_4  and  C_28
REMARK    2  A    between atoms: C_6  and  O_22
REMARK    3  A    between atoms: C_7  and  O_24
REMARK    4  A    between atoms: C_9  and  C_12
REMARK    5  A    between atoms: C_11  and  O_26
REMARK    6  A    between atoms: C_15  and  O_18
REMARK    7  A    between atoms: C_17  and  O_20
REMARK    8  A    between atoms: C_28  and  C_29
REMARK                            x       y       z     vdW  Elec       q    Type
REMARK                         _______ _______ _______ _____ _____    ______ ____
ROOT
ATOM      1  O   UNL     1     -36.263  25.765   2.719  0.00  0.00    -0.450 OA
ATOM      2  O   UNL     1     -33.597  28.711   3.628  0.00  0.00    -0.283 OA
ATOM      3  C   UNL     1     -35.469  28.032   2.364  0.00  0.00    +0.110 A 
ATOM      4  C   UNL     1     -36.621  29.415   0.757  0.00  0.00    +0.050 C 
ATOM      5  C   UNL     1     -36.347  26.984   2.096  0.00  0.00    +0.154 A 
ATOM      6  C   UNL     1     -35.601  29.252   1.696  0.00  0.00    +0.139 C 
ATOM      7  C   UNL     1     -37.501  28.366   0.489  0.00  0.00    +0.136 C 
ATOM      8  C   UNL     1     -37.365  27.149   1.157  0.00  0.00    +0.074 C 
ATOM      9  C   UNL     1     -35.268  25.574   3.665  0.00  0.00    +0.182 A 
ATOM     10  C   UNL     1     -34.402  27.829   3.356  0.00  0.00    +0.238 A 
ATOM     11  C   UNL     1     -34.353  26.499   4.007  0.00  0.00    +0.208 A 
ENDROOT
BRANCH   9  12
ATOM     12  C   UNL     1     -35.289  24.224   4.256  0.00  0.00    +0.041 C 
ATOM     13  C   UNL     1     -35.283  23.100   3.430  0.00  0.00    +0.043 C 
ATOM     14  C   UNL     1     -35.316  24.069   5.643  0.00  0.00    +0.006 C 
ATOM     15  C   UNL     1     -35.303  21.822   3.990  0.00  0.00    +0.172 C 
ATOM     16  C   UNL     1     -35.336  22.792   6.203  0.00  0.00    +0.040 C 
ATOM     17  C   UNL     1     -35.330  21.668   5.376  0.00  0.00    +0.168 C 
BRANCH  15  18
ATOM     18  O   UNL     1     -35.296  20.732   3.172  0.00  0.00    -0.468 OA
ATOM     19  C   UNL     1     -36.367  20.617   2.238  0.00  0.00    +0.253 C 
ENDBRANCH  15  18
BRANCH  17  20
ATOM     20  O   UNL     1     -35.349  20.426   5.935  0.00  0.00    -0.503 OA
ATOM     21  H   UNL     1     -35.932  20.240   6.644  0.00  0.00    +0.292 HD
ENDBRANCH  17  20
ENDBRANCH   9  12
BRANCH   6  22
ATOM     22  O   UNL     1     -34.760  30.298   1.935  0.00  0.00    -0.506 OA
ATOM     23  H   UNL     1     -33.842  30.146   2.038  0.00  0.00    +0.292 HD
ENDBRANCH   6  22
BRANCH   7  24
ATOM     24  O   UNL     1     -38.502  28.512  -0.426  0.00  0.00    -0.506 OA
ATOM     25  H   UNL     1     -38.748  29.368  -0.718  0.00  0.00    +0.292 HD
ENDBRANCH   7  24
BRANCH  11  26
ATOM     26  O   UNL     1     -33.355  26.265   4.929  0.00  0.00    -0.501 OA
ATOM     27  H   UNL     1     -33.158  26.910   5.579  0.00  0.00    +0.292 HD
ENDBRANCH  11  26
BRANCH   4  28
ATOM     28  C   UNL     1     -36.777  30.716   0.036  0.00  0.00    +0.058 C 
BRANCH  28  29
ATOM     29  C   UNL     1     -37.723  31.661   0.733  0.00  0.00    -0.030 C 
ATOM     30  C   UNL     1     -37.465  32.897   1.201  0.00  0.00    -0.048 C 
ATOM     31  C   UNL     1     -36.087  33.490   1.068  0.00  0.00    +0.026 C 
ATOM     32  C   UNL     1     -38.459  33.789   1.890  0.00  0.00    +0.026 C 
ENDBRANCH  28  29
ENDBRANCH   4  28
TORSDOF 8
ENDMDL
MODEL 3
REMARK VINA RESULT:      -6.5      4.176      7.197
REMARK  Name = 5317483
REMARK  8 active torsions:
REMARK  status: ('A' for Active; 'I' for Inactive)
REMARK    1  A    between atoms: C_4  and  C_28
REMARK    2  A    between atoms: C_6  and  O_22
REMARK    3  A    between atoms: C_7  and  O_24
REMARK    4  A    between atoms: C_9  and  C_12
REMARK    5  A    between atoms: C_11  and  O_26
REMARK    6  A    between atoms: C_15  and  O_18
REMARK    7  A    between atoms: C_17  and  O_20
REMARK    8  A    between atoms: C_28  and  C_29
REMARK                            x       y       z     vdW  Elec       q    Type
REMARK                         _______ _______ _______ _____ _____    ______ ____
ROOT
ATOM      1  O   UNL     1     -35.135  26.275   3.319  0.00  0.00    -0.450 OA
ATOM      2  O   UNL     1     -38.438  27.092   1.075  0.00  0.00    -0.283 OA
ATOM      3  C   UNL     1     -36.371  27.838   1.931  0.00  0.00    +0.110 A 
ATOM      4  C   UNL     1     -35.422  30.020   1.533  0.00  0.00    +0.050 C 
ATOM      5  C   UNL     1     -35.268  27.498   2.712  0.00  0.00    +0.154 A 
ATOM      6  C   UNL     1     -36.453  29.100   1.338  0.00  0.00    +0.139 C 
ATOM      7  C   UNL     1     -34.318  29.681   2.315  0.00  0.00    +0.136 C 
ATOM      8  C   UNL     1     -34.239  28.419   2.906  0.00  0.00    +0.074 C 
ATOM      9  C   UNL     1     -36.136  25.334   3.136  0.00  0.00    +0.182 A 
ATOM     10  C   UNL     1     -37.443  26.848   1.745  0.00  0.00    +0.238 A 
ATOM     11  C   UNL     1     -37.254  25.540   2.416  0.00  0.00    +0.208 A 
ENDROOT
BRANCH   9  12
ATOM     12  C   UNL     1     -35.870  24.068   3.841  0.00  0.00    +0.041 C 
ATOM     13  C   UNL     1     -35.760  22.878   3.121  0.00  0.00    +0.043 C 
ATOM     14  C   UNL     1     -35.729  24.057   5.229  0.00  0.00    +0.006 C 
ATOM     15  C   UNL     1     -35.508  21.679   3.788  0.00  0.00    +0.172 C 
ATOM     16  C   UNL     1     -35.478  22.859   5.897  0.00  0.00    +0.040 C 
ATOM     17  C   UNL     1     -35.367  21.670   5.177  0.00  0.00    +0.168 C 
BRANCH  15  18
ATOM     18  O   UNL     1     -35.402  20.524   3.074  0.00  0.00    -0.468 OA
ATOM     19  C   UNL     1     -36.323  20.339   2.001  0.00  0.00    +0.253 C 
ENDBRANCH  15  18
BRANCH  17  20
ATOM     20  O   UNL     1     -35.120  20.505   5.839  0.00  0.00    -0.503 OA
ATOM     21  H   UNL     1     -34.701  20.523   6.677  0.00  0.00    +0.292 HD
ENDBRANCH  17  20
ENDBRANCH   9  12
BRANCH   6  22
ATOM     22  O   UNL     1     -37.516  29.465   0.567  0.00  0.00    -0.506 OA
ATOM     23  H   UNL     1     -37.374  29.850  -0.276  0.00  0.00    +0.292 HD
ENDBRANCH   6  22
BRANCH   7  24
ATOM     24  O   UNL     1     -33.303  30.570   2.513  0.00  0.00    -0.506 OA
ATOM     25  H   UNL     1     -32.712  30.769   1.814  0.00  0.00    +0.292 HD
ENDBRANCH   7  24
BRANCH  11  26
ATOM     26  O   UNL     1     -38.246  24.593   2.281  0.00  0.00    -0.501 OA
ATOM     27  H   UNL     1     -38.211  23.802   2.782  0.00  0.00    +0.292 HD
ENDBRANCH  11  26
BRANCH   4  28
ATOM     28  C   UNL     1     -35.495  31.375   0.903  0.00  0.00    +0.058 C 
BRANCH  28  29
ATOM     29  C   UNL     1     -36.428  32.309   1.630  0.00  0.00    -0.030 C 
ATOM     30  C   UNL     1     -37.490  32.973   1.134  0.00  0.00    -0.048 C 
ATOM     31  C   UNL     1     -37.865  32.836  -0.317  0.00  0.00    +0.026 C 
ATOM     32  C   UNL     1     -38.381  33.893   1.920  0.00  0.00    +0.026 C 
ENDBRANCH  28  29
ENDBRANCH   4  28
TORSDOF 8
ENDMDL
MODEL 4
REMARK VINA RESULT:      -6.5      2.844      9.233
REMARK  Name = 5317483
REMARK  8 active torsions:
REMARK  status: ('A' for Active; 'I' for Inactive)
REMARK    1  A    between atoms: C_4  and  C_28
REMARK    2  A    between atoms: C_6  and  O_22
REMARK    3  A    between atoms: C_7  and  O_24
REMARK    4  A    between atoms: C_9  and  C_12
REMARK    5  A    between atoms: C_11  and  O_26
REMARK    6  A    between atoms: C_15  and  O_18
REMARK    7  A    between atoms: C_17  and  O_20
REMARK    8  A    between atoms: C_28  and  C_29
REMARK                            x       y       z     vdW  Elec       q    Type
REMARK                         _______ _______ _______ _____ _____    ______ ____
ROOT
ATOM      1  O   UNL     1     -34.553  25.883   1.904  0.00  0.00    -0.450 OA
ATOM      2  O   UNL     1     -36.369  24.010   5.036  0.00  0.00    -0.283 OA
ATOM      3  C   UNL     1     -35.364  23.827   2.911  0.00  0.00    +0.110 A 
ATOM      4  C   UNL     1     -35.102  21.766   1.684  0.00  0.00    +0.050 C 
ATOM      5  C   UNL     1     -34.752  24.526   1.872  0.00  0.00    +0.154 A 
ATOM      6  C   UNL     1     -35.542  22.444   2.822  0.00  0.00    +0.139 C 
ATOM      7  C   UNL     1     -34.488  22.465   0.644  0.00  0.00    +0.136 C 
ATOM      8  C   UNL     1     -34.314  23.846   0.736  0.00  0.00    +0.074 C 
ATOM      9  C   UNL     1     -34.969  26.585   3.025  0.00  0.00    +0.182 A 
ATOM     10  C   UNL     1     -35.820  24.570   4.096  0.00  0.00    +0.238 A 
ATOM     11  C   UNL     1     -35.580  26.032   4.089  0.00  0.00    +0.208 A 
ENDROOT
BRANCH   9  12
ATOM     12  C   UNL     1     -34.698  28.030   2.930  0.00  0.00    +0.041 C 
ATOM     13  C   UNL     1     -33.532  28.559   3.485  0.00  0.00    +0.043 C 
ATOM     14  C   UNL     1     -35.607  28.871   2.287  0.00  0.00    +0.006 C 
ATOM     15  C   UNL     1     -33.275  29.927   3.396  0.00  0.00    +0.172 C 
ATOM     16  C   UNL     1     -35.350  30.239   2.198  0.00  0.00    +0.040 C 
ATOM     17  C   UNL     1     -34.184  30.767   2.752  0.00  0.00    +0.168 C 
BRANCH  15  18
ATOM     18  O   UNL     1     -32.132  30.432   3.941  0.00  0.00    -0.468 OA
ATOM     19  C   UNL     1     -32.017  30.385   5.361  0.00  0.00    +0.253 C 
ENDBRANCH  15  18
BRANCH  17  20
ATOM     20  O   UNL     1     -33.944  32.105   2.658  0.00  0.00    -0.503 OA
ATOM     21  H   UNL     1     -34.351  32.607   1.980  0.00  0.00    +0.292 HD
ENDBRANCH  17  20
ENDBRANCH   9  12
BRANCH   6  22
ATOM     22  O   UNL     1     -36.135  21.729   3.819  0.00  0.00    -0.506 OA
ATOM     23  H   UNL     1     -36.693  22.160   4.437  0.00  0.00    +0.292 HD
ENDBRANCH   6  22
BRANCH   7  24
ATOM     24  O   UNL     1     -34.054  21.814  -0.472  0.00  0.00    -0.506 OA
ATOM     25  H   UNL     1     -34.502  21.048  -0.772  0.00  0.00    +0.292 HD
ENDBRANCH   7  24
BRANCH  11  26
ATOM     26  O   UNL     1     -36.011  26.765   5.174  0.00  0.00    -0.501 OA
ATOM     27  H   UNL     1     -35.606  26.645   6.010  0.00  0.00    +0.292 HD
ENDBRANCH  11  26
BRANCH   4  28
ATOM     28  C   UNL     1     -35.283  20.285   1.576  0.00  0.00    +0.058 C 
BRANCH  28  29
ATOM     29  C   UNL     1     -34.013  19.519   1.846  0.00  0.00    -0.030 C 
ATOM     30  C   UNL     1     -33.387  18.639   1.041  0.00  0.00    -0.048 C 
ATOM     31  C   UNL     1     -33.957  18.307  -0.313  0.00  0.00    +0.026 C 
ATOM     32  C   UNL     1     -32.118  17.908   1.375  0.00  0.00    +0.026 C 
ENDBRANCH  28  29
ENDBRANCH   4  28
TORSDOF 8
ENDMDL
MODEL 5
REMARK VINA RESULT:      -6.5      0.695      1.858
REMARK  Name = 5317483
REMARK  8 active torsions:
REMARK  status: ('A' for Active; 'I' for Inactive)
REMARK    1  A    between atoms: C_4  and  C_28
REMARK    2  A    between atoms: C_6  and  O_22
REMARK    3  A    between atoms: C_7  and  O_24
REMARK    4  A    between atoms: C_9  and  C_12
REMARK    5  A    between atoms: C_11  and  O_26
REMARK    6  A    between atoms: C_15  and  O_18
REMARK    7  A    between atoms: C_17  and  O_20
REMARK    8  A    between atoms: C_28  and  C_29
REMARK                            x       y       z     vdW  Elec       q    Type
REMARK                         _______ _______ _______ _____ _____    ______ ____
ROOT
ATOM      1  O   UNL     1     -34.749  20.077   2.477  0.00  0.00    -0.450 OA
ATOM      2  O   UNL     1     -34.906  23.378   0.093  0.00  0.00    -0.283 OA
ATOM      3  C   UNL     1     -35.161  22.459   2.249  0.00  0.00    +0.110 A 
ATOM      4  C   UNL     1     -35.804  23.707   4.212  0.00  0.00    +0.050 C 
ATOM      5  C   UNL     1     -35.092  21.293   3.010  0.00  0.00    +0.154 A 
ATOM      6  C   UNL     1     -35.517  23.671   2.847  0.00  0.00    +0.139 C 
ATOM      7  C   UNL     1     -35.735  22.540   4.974  0.00  0.00    +0.136 C 
ATOM      8  C   UNL     1     -35.379  21.332   4.374  0.00  0.00    +0.074 C 
ATOM      9  C   UNL     1     -34.448  20.009   1.126  0.00  0.00    +0.182 A 
ATOM     10  C   UNL     1     -34.856  22.389   0.812  0.00  0.00    +0.238 A 
ATOM     11  C   UNL     1     -34.486  21.056   0.282  0.00  0.00    +0.208 A 
ENDROOT
BRANCH   9  12
ATOM     12  C   UNL     1     -34.098  18.647   0.683  0.00  0.00    +0.041 C 
ATOM     13  C   UNL     1     -35.066  17.835   0.092  0.00  0.00    +0.043 C 
ATOM     14  C   UNL     1     -32.799  18.169   0.857  0.00  0.00    +0.006 C 
ATOM     15  C   UNL     1     -34.735  16.546  -0.327  0.00  0.00    +0.172 C 
ATOM     16  C   UNL     1     -32.467  16.880   0.438  0.00  0.00    +0.040 C 
ATOM     17  C   UNL     1     -33.435  16.069  -0.153  0.00  0.00    +0.168 C 
BRANCH  15  18
ATOM     18  O   UNL     1     -35.689  15.763  -0.904  0.00  0.00    -0.468 OA
ATOM     19  C   UNL     1     -37.031  15.942  -0.456  0.00  0.00    +0.253 C 
ENDBRANCH  15  18
BRANCH  17  20
ATOM     20  O   UNL     1     -33.099  14.812  -0.559  0.00  0.00    -0.503 OA
ATOM     21  H   UNL     1     -33.713  14.297  -1.044  0.00  0.00    +0.292 HD
ENDBRANCH  17  20
ENDBRANCH   9  12
BRANCH   6  22
ATOM     22  O   UNL     1     -35.593  24.830   2.133  0.00  0.00    -0.506 OA
ATOM     23  H   UNL     1     -34.809  25.273   1.875  0.00  0.00    +0.292 HD
ENDBRANCH   6  22
BRANCH   7  24
ATOM     24  O   UNL     1     -36.012  22.561   6.309  0.00  0.00    -0.506 OA
ATOM     25  H   UNL     1     -35.675  21.889   6.867  0.00  0.00    +0.292 HD
ENDBRANCH   7  24
BRANCH  11  26
ATOM     26  O   UNL     1     -34.212  20.947  -1.065  0.00  0.00    -0.501 OA
ATOM     27  H   UNL     1     -34.134  20.101  -1.460  0.00  0.00    +0.292 HD
ENDBRANCH  11  26
BRANCH   4  28
ATOM     28  C   UNL     1     -36.185  24.997   4.866  0.00  0.00    +0.058 C 
BRANCH  28  29
ATOM     29  C   UNL     1     -35.145  25.489   5.839  0.00  0.00    -0.030 C 
ATOM     30  C   UNL     1     -34.114  26.322   5.602  0.00  0.00    -0.048 C 
ATOM     31  C   UNL     1     -33.885  26.876   4.221  0.00  0.00    +0.026 C 
ATOM     32  C   UNL     1     -33.109  26.772   6.624  0.00  0.00    +0.026 C 
ENDBRANCH  28  29
ENDBRANCH   4  28
TORSDOF 8
ENDMDL
MODEL 6
REMARK VINA RESULT:      -6.4      2.505      4.887
REMARK  Name = 5317483
REMARK  8 active torsions:
REMARK  status: ('A' for Active; 'I' for Inactive)
REMARK    1  A    between atoms: C_4  and  C_28
REMARK    2  A    between atoms: C_6  and  O_22
REMARK    3  A    between atoms: C_7  and  O_24
REMARK    4  A    between atoms: C_9  and  C_12
REMARK    5  A    between atoms: C_11  and  O_26
REMARK    6  A    between atoms: C_15  and  O_18
REMARK    7  A    between atoms: C_17  and  O_20
REMARK    8  A    between atoms: C_28  and  C_29
REMARK                            x       y       z     vdW  Elec       q    Type
REMARK                         _______ _______ _______ _____ _____    ______ ____
ROOT
ATOM      1  O   UNL     1     -34.568  23.921   2.065  0.00  0.00    -0.450 OA
ATOM      2  O   UNL     1     -35.135  24.734   6.018  0.00  0.00    -0.283 OA
ATOM      3  C   UNL     1     -34.205  25.401   3.956  0.00  0.00    +0.110 A 
ATOM      4  C   UNL     1     -32.929  27.418   3.608  0.00  0.00    +0.050 C 
ATOM      5  C   UNL     1     -34.045  25.065   2.613  0.00  0.00    +0.154 A 
ATOM      6  C   UNL     1     -33.648  26.579   4.459  0.00  0.00    +0.139 C 
ATOM      7  C   UNL     1     -32.768  27.083   2.263  0.00  0.00    +0.136 C 
ATOM      8  C   UNL     1     -33.325  25.905   1.764  0.00  0.00    +0.074 C 
ATOM      9  C   UNL     1     -35.297  23.071   2.881  0.00  0.00    +0.182 A 
ATOM     10  C   UNL     1     -34.967  24.494   4.830  0.00  0.00    +0.238 A 
ATOM     11  C   UNL     1     -35.516  23.274   4.193  0.00  0.00    +0.208 A 
ENDROOT
BRANCH   9  12
ATOM     12  C   UNL     1     -35.800  21.883   2.169  0.00  0.00    +0.041 C 
ATOM     13  C   UNL     1     -34.919  20.869   1.792  0.00  0.00    +0.043 C 
ATOM     14  C   UNL     1     -37.159  21.771   1.871  0.00  0.00    +0.006 C 
ATOM     15  C   UNL     1     -35.395  19.745   1.118  0.00  0.00    +0.172 C 
ATOM     16  C   UNL     1     -37.636  20.647   1.196  0.00  0.00    +0.040 C 
ATOM     17  C   UNL     1     -36.754  19.634   0.820  0.00  0.00    +0.168 C 
BRANCH  15  18
ATOM     18  O   UNL     1     -34.524  18.761   0.755  0.00  0.00    -0.468 OA
ATOM     19  C   UNL     1     -33.276  18.716   1.444  0.00  0.00    +0.253 C 
ENDBRANCH  15  18
BRANCH  17  20
ATOM     20  O   UNL     1     -37.231  18.540   0.163  0.00  0.00    -0.503 OA
ATOM     21  H   UNL     1     -36.702  18.111  -0.480  0.00  0.00    +0.292 HD
ENDBRANCH  17  20
ENDBRANCH   9  12
BRANCH   6  22
ATOM     22  O   UNL     1     -33.787  26.939   5.767  0.00  0.00    -0.506 OA
ATOM     23  H   UNL     1     -33.845  26.280   6.431  0.00  0.00    +0.292 HD
ENDBRANCH   6  22
BRANCH   7  24
ATOM     24  O   UNL     1     -32.068  27.894   1.421  0.00  0.00    -0.506 OA
ATOM     25  H   UNL     1     -31.246  27.610   1.073  0.00  0.00    +0.292 HD
ENDBRANCH   7  24
BRANCH  11  26
ATOM     26  O   UNL     1     -36.219  22.391   4.984  0.00  0.00    -0.501 OA
ATOM     27  H   UNL     1     -36.960  21.937   4.634  0.00  0.00    +0.292 HD
ENDBRANCH  11  26
BRANCH   4  28
ATOM     28  C   UNL     1     -32.329  28.685   4.133  0.00  0.00    +0.058 C 
BRANCH  28  29
ATOM     29  C   UNL     1     -30.979  28.472   4.769  0.00  0.00    -0.030 C 
ATOM     30  C   UNL     1     -30.580  28.826   6.006  0.00  0.00    -0.048 C 
ATOM     31  C   UNL     1     -31.526  29.536   6.937  0.00  0.00    +0.026 C 
ATOM     32  C   UNL     1     -29.213  28.583   6.578  0.00  0.00    +0.026 C 
ENDBRANCH  28  29
ENDBRANCH   4  28
TORSDOF 8
ENDMDL
MODEL 7
REMARK VINA RESULT:      -6.4      2.881      5.483
REMARK  Name = 5317483
REMARK  8 active torsions:
REMARK  status: ('A' for Active; 'I' for Inactive)
REMARK    1  A    between atoms: C_4  and  C_28
REMARK    2  A    between atoms: C_6  and  O_22
REMARK    3  A    between atoms: C_7  and  O_24
REMARK    4  A    between atoms: C_9  and  C_12
REMARK    5  A    between atoms: C_11  and  O_26
REMARK    6  A    between atoms: C_15  and  O_18
REMARK    7  A    between atoms: C_17  and  O_20
REMARK    8  A    between atoms: C_28  and  C_29
REMARK                            x       y       z     vdW  Elec       q    Type
REMARK                         _______ _______ _______ _____ _____    ______ ____
ROOT
ATOM      1  O   UNL     1     -34.503  23.871   2.113  0.00  0.00    -0.450 OA
ATOM      2  O   UNL     1     -35.208  24.827   6.011  0.00  0.00    -0.283 OA
ATOM      3  C   UNL     1     -34.198  25.414   3.963  0.00  0.00    +0.110 A 
ATOM      4  C   UNL     1     -32.892  27.409   3.592  0.00  0.00    +0.050 C 
ATOM      5  C   UNL     1     -33.991  25.030   2.639  0.00  0.00    +0.154 A 
ATOM      6  C   UNL     1     -33.649  26.605   4.445  0.00  0.00    +0.139 C 
ATOM      7  C   UNL     1     -32.685  27.025   2.267  0.00  0.00    +0.136 C 
ATOM      8  C   UNL     1     -33.233  25.835   1.789  0.00  0.00    +0.074 C 
ATOM      9  C   UNL     1     -35.269  23.056   2.931  0.00  0.00    +0.182 A 
ATOM     10  C   UNL     1     -34.998  24.545   4.839  0.00  0.00    +0.238 A 
ATOM     11  C   UNL     1     -35.535  23.307   4.226  0.00  0.00    +0.208 A 
ENDROOT
BRANCH   9  12
ATOM     12  C   UNL     1     -35.756  21.847   2.242  0.00  0.00    +0.041 C 
ATOM     13  C   UNL     1     -37.057  21.806   1.740  0.00  0.00    +0.043 C 
ATOM     14  C   UNL     1     -34.916  20.742   2.093  0.00  0.00    +0.006 C 
ATOM     15  C   UNL     1     -37.517  20.661   1.089  0.00  0.00    +0.172 C 
ATOM     16  C   UNL     1     -35.377  19.598   1.442  0.00  0.00    +0.040 C 
ATOM     17  C   UNL     1     -36.677  19.557   0.940  0.00  0.00    +0.168 C 
BRANCH  15  18
ATOM     18  O   UNL     1     -38.790  20.633   0.603  0.00  0.00    -0.468 OA
ATOM     19  C   UNL     1     -39.762  21.423   1.286  0.00  0.00    +0.253 C 
ENDBRANCH  15  18
BRANCH  17  20
ATOM     20  O   UNL     1     -37.115  18.434   0.305  0.00  0.00    -0.503 OA
ATOM     21  H   UNL     1     -37.954  18.074   0.516  0.00  0.00    +0.292 HD
ENDBRANCH  17  20
ENDBRANCH   9  12
BRANCH   6  22
ATOM     22  O   UNL     1     -33.833  27.012   5.734  0.00  0.00    -0.506 OA
ATOM     23  H   UNL     1     -34.629  26.804   6.182  0.00  0.00    +0.292 HD
ENDBRANCH   6  22
BRANCH   7  24
ATOM     24  O   UNL     1     -31.947  27.801   1.423  0.00  0.00    -0.506 OA
ATOM     25  H   UNL     1     -32.369  28.268   0.728  0.00  0.00    +0.292 HD
ENDBRANCH   7  24
BRANCH  11  26
ATOM     26  O   UNL     1     -36.274  22.457   5.020  0.00  0.00    -0.501 OA
ATOM     27  H   UNL     1     -36.643  21.678   4.655  0.00  0.00    +0.292 HD
ENDBRANCH  11  26
BRANCH   4  28
ATOM     28  C   UNL     1     -32.301  28.688   4.094  0.00  0.00    +0.058 C 
BRANCH  28  29
ATOM     29  C   UNL     1     -30.960  28.494   4.755  0.00  0.00    -0.030 C 
ATOM     30  C   UNL     1     -30.583  28.868   5.992  0.00  0.00    -0.048 C 
ATOM     31  C   UNL     1     -31.548  29.585   6.899  0.00  0.00    +0.026 C 
ATOM     32  C   UNL     1     -29.223  28.641   6.590  0.00  0.00    +0.026 C 
ENDBRANCH  28  29
ENDBRANCH   4  28
TORSDOF 8
ENDMDL
MODEL 8
REMARK VINA RESULT:      -6.3      2.918      9.378
REMARK  Name = 5317483
REMARK  8 active torsions:
REMARK  status: ('A' for Active; 'I' for Inactive)
REMARK    1  A    between atoms: C_4  and  C_28
REMARK    2  A    between atoms: C_6  and  O_22
REMARK    3  A    between atoms: C_7  and  O_24
REMARK    4  A    between atoms: C_9  and  C_12
REMARK    5  A    between atoms: C_11  and  O_26
REMARK    6  A    between atoms: C_15  and  O_18
REMARK    7  A    between atoms: C_17  and  O_20
REMARK    8  A    between atoms: C_28  and  C_29
REMARK                            x       y       z     vdW  Elec       q    Type
REMARK                         _______ _______ _______ _____ _____    ______ ____
ROOT
ATOM      1  O   UNL     1     -34.527  25.880   1.919  0.00  0.00    -0.450 OA
ATOM      2  O   UNL     1     -36.390  23.997   5.016  0.00  0.00    -0.283 OA
ATOM      3  C   UNL     1     -35.359  23.822   2.902  0.00  0.00    +0.110 A 
ATOM      4  C   UNL     1     -35.091  21.767   1.667  0.00  0.00    +0.050 C 
ATOM      5  C   UNL     1     -34.731  24.525   1.876  0.00  0.00    +0.154 A 
ATOM      6  C   UNL     1     -35.542  22.441   2.803  0.00  0.00    +0.139 C 
ATOM      7  C   UNL     1     -34.462  22.470   0.639  0.00  0.00    +0.136 C 
ATOM      8  C   UNL     1     -34.282  23.850   0.741  0.00  0.00    +0.074 C 
ATOM      9  C   UNL     1     -34.954  26.577   3.038  0.00  0.00    +0.182 A 
ATOM     10  C   UNL     1     -35.827  24.560   4.087  0.00  0.00    +0.238 A 
ATOM     11  C   UNL     1     -35.580  26.021   4.091  0.00  0.00    +0.208 A 
ENDROOT
BRANCH   9  12
ATOM     12  C   UNL     1     -34.675  28.022   2.956  0.00  0.00    +0.041 C 
ATOM     13  C   UNL     1     -35.568  28.870   2.300  0.00  0.00    +0.043 C 
ATOM     14  C   UNL     1     -33.516  28.544   3.533  0.00  0.00    +0.006 C 
ATOM     15  C   UNL     1     -35.303  30.237   2.222  0.00  0.00    +0.172 C 
ATOM     16  C   UNL     1     -33.251  29.911   3.455  0.00  0.00    +0.040 C 
ATOM     17  C   UNL     1     -34.145  30.758   2.800  0.00  0.00    +0.168 C 
BRANCH  15  18
ATOM     18  O   UNL     1     -36.184  31.055   1.580  0.00  0.00    -0.468 OA
ATOM     19  C   UNL     1     -36.983  30.468   0.555  0.00  0.00    +0.253 C 
ENDBRANCH  15  18
BRANCH  17  20
ATOM     20  O   UNL     1     -33.876  32.092   2.731  0.00  0.00    -0.503 OA
ATOM     21  H   UNL     1     -33.710  32.577   3.515  0.00  0.00    +0.292 HD
ENDBRANCH  17  20
ENDBRANCH   9  12
BRANCH   6  22
ATOM     22  O   UNL     1     -36.150  21.722   3.789  0.00  0.00    -0.506 OA
ATOM     23  H   UNL     1     -37.027  21.929   4.046  0.00  0.00    +0.292 HD
ENDBRANCH   6  22
BRANCH   7  24
ATOM     24  O   UNL     1     -34.016  21.824  -0.476  0.00  0.00    -0.506 OA
ATOM     25  H   UNL     1     -33.146  21.477  -0.500  0.00  0.00    +0.292 HD
ENDBRANCH   7  24
BRANCH  11  26
ATOM     26  O   UNL     1     -36.021  26.750   5.175  0.00  0.00    -0.501 OA
ATOM     27  H   UNL     1     -36.465  26.320   5.879  0.00  0.00    +0.292 HD
ENDBRANCH  11  26
BRANCH   4  28
ATOM     28  C   UNL     1     -35.277  20.288   1.547  0.00  0.00    +0.058 C 
BRANCH  28  29
ATOM     29  C   UNL     1     -34.012  19.515   1.820  0.00  0.00    -0.030 C 
ATOM     30  C   UNL     1     -33.380  18.645   1.009  0.00  0.00    -0.048 C 
ATOM     31  C   UNL     1     -33.935  18.334  -0.355  0.00  0.00    +0.026 C 
ATOM     32  C   UNL     1     -32.116  17.906   1.346  0.00  0.00    +0.026 C 
ENDBRANCH  28  29
ENDBRANCH   4  28
TORSDOF 8
ENDMDL
MODEL 9
REMARK VINA RESULT:      -6.2      3.353      8.827
REMARK  Name = 5317483
REMARK  8 active torsions:
REMARK  status: ('A' for Active; 'I' for Inactive)
REMARK    1  A    between atoms: C_4  and  C_28
REMARK    2  A    between atoms: C_6  and  O_22
REMARK    3  A    between atoms: C_7  and  O_24
REMARK    4  A    between atoms: C_9  and  C_12
REMARK    5  A    between atoms: C_11  and  O_26
REMARK    6  A    between atoms: C_15  and  O_18
REMARK    7  A    between atoms: C_17  and  O_20
REMARK    8  A    between atoms: C_28  and  C_29
REMARK                            x       y       z     vdW  Elec       q    Type
REMARK                         _______ _______ _______ _____ _____    ______ ____
ROOT
ATOM      1  O   UNL     1     -36.084  22.434   2.288  0.00  0.00    -0.450 OA
ATOM      2  O   UNL     1     -40.140  22.557   1.915  0.00  0.00    -0.283 OA
ATOM      3  C   UNL     1     -38.105  21.561   1.262  0.00  0.00    +0.110 A 
ATOM      4  C   UNL     1     -37.899  19.769  -0.340  0.00  0.00    +0.050 C 
ATOM      5  C   UNL     1     -36.722  21.571   1.433  0.00  0.00    +0.154 A 
ATOM      6  C   UNL     1     -38.700  20.661   0.375  0.00  0.00    +0.139 C 
ATOM      7  C   UNL     1     -36.515  19.778  -0.169  0.00  0.00    +0.136 C 
ATOM      8  C   UNL     1     -35.924  20.679   0.717  0.00  0.00    +0.074 C 
ATOM      9  C   UNL     1     -36.851  23.325   3.021  0.00  0.00    +0.182 A 
ATOM     10  C   UNL     1     -38.923  22.515   2.028  0.00  0.00    +0.238 A 
ATOM     11  C   UNL     1     -38.191  23.424   2.942  0.00  0.00    +0.208 A 
ENDROOT
BRANCH   9  12
ATOM     12  C   UNL     1     -36.044  24.192   3.897  0.00  0.00    +0.041 C 
ATOM     13  C   UNL     1     -35.780  25.510   3.524  0.00  0.00    +0.043 C 
ATOM     14  C   UNL     1     -35.541  23.695   5.101  0.00  0.00    +0.006 C 
ATOM     15  C   UNL     1     -35.016  26.331   4.354  0.00  0.00    +0.172 C 
ATOM     16  C   UNL     1     -34.776  24.515   5.930  0.00  0.00    +0.040 C 
ATOM     17  C   UNL     1     -34.514  25.833   5.557  0.00  0.00    +0.168 C 
BRANCH  15  18
ATOM     18  O   UNL     1     -34.766  27.617   3.978  0.00  0.00    -0.468 OA
ATOM     19  C   UNL     1     -35.013  27.953   2.615  0.00  0.00    +0.253 C 
ENDBRANCH  15  18
BRANCH  17  20
ATOM     20  O   UNL     1     -33.767  26.625   6.376  0.00  0.00    -0.503 OA
ATOM     21  H   UNL     1     -33.622  27.524   6.154  0.00  0.00    +0.292 HD
ENDBRANCH  17  20
ENDBRANCH   9  12
BRANCH   6  22
ATOM     22  O   UNL     1     -40.049  20.623   0.186  0.00  0.00    -0.506 OA
ATOM     23  H   UNL     1     -40.628  20.753   0.911  0.00  0.00    +0.292 HD
ENDBRANCH   6  22
BRANCH   7  24
ATOM     24  O   UNL     1     -35.721  18.912  -0.861  0.00  0.00    -0.506 OA
ATOM     25  H   UNL     1     -35.879  17.990  -0.811  0.00  0.00    +0.292 HD
ENDBRANCH   7  24
BRANCH  11  26
ATOM     26  O   UNL     1     -38.921  24.344   3.662  0.00  0.00    -0.501 OA
ATOM     27  H   UNL     1     -39.648  24.780   3.264  0.00  0.00    +0.292 HD
ENDBRANCH  11  26
BRANCH   4  28
ATOM     28  C   UNL     1     -38.523  18.797  -1.291  0.00  0.00    +0.058 C 
BRANCH  28  29
ATOM     29  C   UNL     1     -38.559  17.391  -0.750  0.00  0.00    -0.030 C 
ATOM     30  C   UNL     1     -39.380  16.385  -1.109  0.00  0.00    -0.048 C 
ATOM     31  C   UNL     1     -40.430  16.598  -2.166  0.00  0.00    +0.026 C 
ATOM     32  C   UNL     1     -39.362  15.001  -0.525  0.00  0.00    +0.026 C 
ENDBRANCH  28  29
ENDBRANCH   4  28
TORSDOF 8
ENDMDL
