MODEL 1
REMARK VINA RESULT:      -5.3      0.000      0.000
REMARK  Name = 206006
REMARK  5 active torsions:
REMARK  status: ('A' for Active; 'I' for Inactive)
REMARK    1  A    between atoms: C_1  and  N_4
REMARK    2  A    between atoms: C_1  and  C_10
REMARK    3  A    between atoms: C_10  and  C_11
REMARK    4  A    between atoms: C_11  and  C_14
REMARK    5  A    between atoms: N_13  and  O_16
REMARK                            x       y       z     vdW  Elec       q    Type
REMARK                         _______ _______ _______ _____ _____    ______ ____
ROOT
ATOM      1  C   UNL     1     -36.109  24.079   3.535  0.00  0.00    +0.099 C 
ENDROOT
BRANCH   1   4
ATOM      2  O   UNL     1     -34.982  20.120   2.676  0.00  0.00    -0.123 OA
ATOM      3  O   UNL     1     -36.513  21.612   2.156  0.00  0.00    -0.123 OA
ATOM      4  N   UNL     1     -35.709  23.053   4.491  0.00  0.00    -0.251 N 
ATOM      5  N   UNL     1     -35.166  21.076   5.312  0.00  0.00    -0.207 NA
ATOM      6  N   UNL     1     -35.677  21.133   2.974  0.00  0.00    +0.091 N 
ATOM      7  C   UNL     1     -35.519  21.733   4.230  0.00  0.00    +0.284 C 
ATOM      8  C   UNL     1     -35.467  23.267   5.811  0.00  0.00    +0.089 C 
ATOM      9  C   UNL     1     -35.133  22.027   6.302  0.00  0.00    +0.118 C 
ENDBRANCH   1   4
BRANCH   1  10
ATOM     10  C   UNL     1     -36.312  25.472   4.144  0.00  0.00    +0.032 C 
BRANCH  10  11
ATOM     11  C   UNL     1     -35.263  26.496   3.706  0.00  0.00    +0.089 C 
BRANCH  11  14
ATOM     12  O   UNL     1     -32.995  25.678   3.847  0.00  0.00    -0.273 OA
ATOM     13  N   UNL     1     -33.839  26.934   5.590  0.00  0.00    -0.193 N 
ATOM     14  C   UNL     1     -33.913  26.303   4.372  0.00  0.00    +0.245 C 
ATOM     15  H   UNL     1     -34.592  27.447   5.963  0.00  0.00    +0.182 HD
BRANCH  13  16
ATOM     16  O   UNL     1     -32.613  26.797   6.266  0.00  0.00    -0.264 OA
ATOM     17  C   UNL     1     -32.025  28.085   6.386  0.00  0.00    +0.206 C 
ENDBRANCH  13  16
ENDBRANCH  11  14
ENDBRANCH  10  11
ENDBRANCH   1  10
TORSDOF 5
ENDMDL
MODEL 2
REMARK VINA RESULT:      -5.2      2.636      5.572
REMARK  Name = 206006
REMARK  5 active torsions:
REMARK  status: ('A' for Active; 'I' for Inactive)
REMARK    1  A    between atoms: C_1  and  N_4
REMARK    2  A    between atoms: C_1  and  C_10
REMARK    3  A    between atoms: C_10  and  C_11
REMARK    4  A    between atoms: C_11  and  C_14
REMARK    5  A    between atoms: N_13  and  O_16
REMARK                            x       y       z     vdW  Elec       q    Type
REMARK                         _______ _______ _______ _____ _____    ______ ____
ROOT
ATOM      1  C   UNL     1     -35.736  25.455   5.424  0.00  0.00    +0.099 C 
ENDROOT
BRANCH   1   4
ATOM      2  O   UNL     1     -38.926  26.292   2.817  0.00  0.00    -0.123 OA
ATOM      3  O   UNL     1     -38.055  24.637   3.974  0.00  0.00    -0.123 OA
ATOM      4  N   UNL     1     -35.676  26.210   4.179  0.00  0.00    -0.251 N 
ATOM      5  N   UNL     1     -36.290  27.074   2.241  0.00  0.00    -0.207 NA
ATOM      6  N   UNL     1     -37.928  25.730   3.352  0.00  0.00    +0.091 N 
ATOM      7  C   UNL     1     -36.666  26.326   3.254  0.00  0.00    +0.284 C 
ATOM      8  C   UNL     1     -34.601  26.919   3.746  0.00  0.00    +0.089 C 
ATOM      9  C   UNL     1     -35.002  27.447   2.541  0.00  0.00    +0.118 C 
ENDBRANCH   1   4
BRANCH   1  10
ATOM     10  C   UNL     1     -34.801  24.240   5.478  0.00  0.00    +0.032 C 
BRANCH  10  11
ATOM     11  C   UNL     1     -35.500  22.942   5.888  0.00  0.00    +0.089 C 
BRANCH  11  14
ATOM     12  O   UNL     1     -35.042  20.807   4.855  0.00  0.00    -0.273 OA
ATOM     13  N   UNL     1     -36.315  22.353   3.707  0.00  0.00    -0.193 N 
ATOM     14  C   UNL     1     -35.570  21.913   4.774  0.00  0.00    +0.245 C 
ATOM     15  H   UNL     1     -36.744  23.240   3.693  0.00  0.00    +0.182 HD
BRANCH  13  16
ATOM     16  O   UNL     1     -36.423  21.448   2.635  0.00  0.00    -0.264 OA
ATOM     17  C   UNL     1     -37.714  21.592   2.060  0.00  0.00    +0.206 C 
ENDBRANCH  13  16
ENDBRANCH  11  14
ENDBRANCH  10  11
ENDBRANCH   1  10
TORSDOF 5
ENDMDL
MODEL 3
REMARK VINA RESULT:      -5.1      3.328      4.585
REMARK  Name = 206006
REMARK  5 active torsions:
REMARK  status: ('A' for Active; 'I' for Inactive)
REMARK    1  A    between atoms: C_1  and  N_4
REMARK    2  A    between atoms: C_1  and  C_10
REMARK    3  A    between atoms: C_10  and  C_11
REMARK    4  A    between atoms: C_11  and  C_14
REMARK    5  A    between atoms: N_13  and  O_16
REMARK                            x       y       z     vdW  Elec       q    Type
REMARK                         _______ _______ _______ _____ _____    ______ ____
ROOT
ATOM      1  C   UNL     1     -35.981  24.145   3.540  0.00  0.00    +0.099 C 
ENDROOT
BRANCH   1   4
ATOM      2  O   UNL     1     -35.040  20.144   2.659  0.00  0.00    -0.123 OA
ATOM      3  O   UNL     1     -36.491  21.712   2.137  0.00  0.00    -0.123 OA
ATOM      4  N   UNL     1     -35.641  23.095   4.491  0.00  0.00    -0.251 N 
ATOM      5  N   UNL     1     -35.204  21.087   5.301  0.00  0.00    -0.207 NA
ATOM      6  N   UNL     1     -35.687  21.187   2.959  0.00  0.00    +0.091 N 
ATOM      7  C   UNL     1     -35.513  21.768   4.221  0.00  0.00    +0.284 C 
ATOM      8  C   UNL     1     -35.403  23.286   5.815  0.00  0.00    +0.089 C 
ATOM      9  C   UNL     1     -35.134  22.027   6.299  0.00  0.00    +0.118 C 
ENDBRANCH   1   4
BRANCH   1  10
ATOM     10  C   UNL     1     -37.165  25.026   3.960  0.00  0.00    +0.032 C 
BRANCH  10  11
ATOM     11  C   UNL     1     -38.465  24.707   3.218  0.00  0.00    +0.089 C 
BRANCH  11  14
ATOM     12  O   UNL     1     -38.947  26.726   1.984  0.00  0.00    -0.273 OA
ATOM     13  N   UNL     1     -40.428  26.033   3.615  0.00  0.00    -0.193 N 
ATOM     14  C   UNL     1     -39.280  25.938   2.866  0.00  0.00    +0.245 C 
ATOM     15  H   UNL     1     -40.669  25.364   4.296  0.00  0.00    +0.182 HD
BRANCH  13  16
ATOM     16  O   UNL     1     -41.234  27.153   3.340  0.00  0.00    -0.264 OA
ATOM     17  C   UNL     1     -42.557  26.866   3.771  0.00  0.00    +0.206 C 
ENDBRANCH  13  16
ENDBRANCH  11  14
ENDBRANCH  10  11
ENDBRANCH   1  10
TORSDOF 5
ENDMDL
MODEL 4
REMARK VINA RESULT:      -5.0      2.203      2.741
REMARK  Name = 206006
REMARK  5 active torsions:
REMARK  status: ('A' for Active; 'I' for Inactive)
REMARK    1  A    between atoms: C_1  and  N_4
REMARK    2  A    between atoms: C_1  and  C_10
REMARK    3  A    between atoms: C_10  and  C_11
REMARK    4  A    between atoms: C_11  and  C_14
REMARK    5  A    between atoms: N_13  and  O_16
REMARK                            x       y       z     vdW  Elec       q    Type
REMARK                         _______ _______ _______ _____ _____    ______ ____
ROOT
ATOM      1  C   UNL     1     -37.539  23.622   2.909  0.00  0.00    +0.099 C 
ENDROOT
BRANCH   1   4
ATOM      2  O   UNL     1     -35.840  22.025   6.407  0.00  0.00    -0.123 OA
ATOM      3  O   UNL     1     -36.193  23.951   5.404  0.00  0.00    -0.123 OA
ATOM      4  N   UNL     1     -36.659  22.465   3.007  0.00  0.00    -0.251 N 
ATOM      5  N   UNL     1     -35.264  20.981   3.862  0.00  0.00    -0.207 NA
ATOM      6  N   UNL     1     -36.003  22.702   5.352  0.00  0.00    +0.091 N 
ATOM      7  C   UNL     1     -35.972  22.060   4.108  0.00  0.00    +0.284 C 
ATOM      8  C   UNL     1     -36.384  21.604   1.991  0.00  0.00    +0.089 C 
ATOM      9  C   UNL     1     -35.516  20.691   2.544  0.00  0.00    +0.118 C 
ENDBRANCH   1   4
BRANCH   1  10
ATOM     10  C   UNL     1     -37.011  24.750   2.014  0.00  0.00    +0.032 C 
BRANCH  10  11
ATOM     11  C   UNL     1     -36.961  26.114   2.706  0.00  0.00    +0.089 C 
BRANCH  11  14
ATOM     12  O   UNL     1     -34.610  26.550   2.369  0.00  0.00    -0.273 OA
ATOM     13  N   UNL     1     -35.519  26.888   4.464  0.00  0.00    -0.193 N 
ATOM     14  C   UNL     1     -35.565  26.523   3.141  0.00  0.00    +0.245 C 
ATOM     15  H   UNL     1     -36.317  26.876   5.042  0.00  0.00    +0.182 HD
BRANCH  13  16
ATOM     16  O   UNL     1     -34.253  27.280   4.937  0.00  0.00    -0.264 OA
ATOM     17  C   UNL     1     -33.828  26.334   5.908  0.00  0.00    +0.206 C 
ENDBRANCH  13  16
ENDBRANCH  11  14
ENDBRANCH  10  11
ENDBRANCH   1  10
TORSDOF 5
ENDMDL
MODEL 5
REMARK VINA RESULT:      -5.0      2.540      3.236
REMARK  Name = 206006
REMARK  5 active torsions:
REMARK  status: ('A' for Active; 'I' for Inactive)
REMARK    1  A    between atoms: C_1  and  N_4
REMARK    2  A    between atoms: C_1  and  C_10
REMARK    3  A    between atoms: C_10  and  C_11
REMARK    4  A    between atoms: C_11  and  C_14
REMARK    5  A    between atoms: N_13  and  O_16
REMARK                            x       y       z     vdW  Elec       q    Type
REMARK                         _______ _______ _______ _____ _____    ______ ____
ROOT
ATOM      1  C   UNL     1     -36.847  24.686   3.664  0.00  0.00    +0.099 C 
ENDROOT
BRANCH   1   4
ATOM      2  O   UNL     1     -40.455  23.632   1.780  0.00  0.00    -0.123 OA
ATOM      3  O   UNL     1     -39.699  24.561   3.625  0.00  0.00    -0.123 OA
ATOM      4  N   UNL     1     -37.151  23.429   2.991  0.00  0.00    -0.251 N 
ATOM      5  N   UNL     1     -38.304  21.837   1.984  0.00  0.00    -0.207 NA
ATOM      6  N   UNL     1     -39.551  23.767   2.653  0.00  0.00    +0.091 N 
ATOM      7  C   UNL     1     -38.369  23.025   2.542  0.00  0.00    +0.284 C 
ATOM      8  C   UNL     1     -36.247  22.454   2.711  0.00  0.00    +0.089 C 
ATOM      9  C   UNL     1     -36.984  21.474   2.087  0.00  0.00    +0.118 C 
ENDBRANCH   1   4
BRANCH   1  10
ATOM     10  C   UNL     1     -36.215  24.528   5.053  0.00  0.00    +0.032 C 
BRANCH  10  11
ATOM     11  C   UNL     1     -35.613  25.820   5.606  0.00  0.00    +0.089 C 
BRANCH  11  14
ATOM     12  O   UNL     1     -33.470  25.159   4.710  0.00  0.00    -0.273 OA
ATOM     13  N   UNL     1     -33.557  26.899   6.225  0.00  0.00    -0.193 N 
ATOM     14  C   UNL     1     -34.103  25.897   5.460  0.00  0.00    +0.245 C 
ATOM     15  H   UNL     1     -34.107  27.486   6.794  0.00  0.00    +0.182 HD
BRANCH  13  16
ATOM     16  O   UNL     1     -32.159  27.029   6.137  0.00  0.00    -0.264 OA
ATOM     17  C   UNL     1     -31.827  28.399   6.313  0.00  0.00    +0.206 C 
ENDBRANCH  13  16
ENDBRANCH  11  14
ENDBRANCH  10  11
ENDBRANCH   1  10
TORSDOF 5
ENDMDL
MODEL 6
REMARK VINA RESULT:      -5.0      3.082      4.780
REMARK  Name = 206006
REMARK  5 active torsions:
REMARK  status: ('A' for Active; 'I' for Inactive)
REMARK    1  A    between atoms: C_1  and  N_4
REMARK    2  A    between atoms: C_1  and  C_10
REMARK    3  A    between atoms: C_10  and  C_11
REMARK    4  A    between atoms: C_11  and  C_14
REMARK    5  A    between atoms: N_13  and  O_16
REMARK                            x       y       z     vdW  Elec       q    Type
REMARK                         _______ _______ _______ _____ _____    ______ ____
ROOT
ATOM      1  C   UNL     1     -35.803  24.219   3.523  0.00  0.00    +0.099 C 
ENDROOT
BRANCH   1   4
ATOM      2  O   UNL     1     -35.060  20.164   2.699  0.00  0.00    -0.123 OA
ATOM      3  O   UNL     1     -36.395  21.810   2.110  0.00  0.00    -0.123 OA
ATOM      4  N   UNL     1     -35.565  23.157   4.492  0.00  0.00    -0.251 N 
ATOM      5  N   UNL     1     -35.278  21.133   5.327  0.00  0.00    -0.207 NA
ATOM      6  N   UNL     1     -35.658  21.245   2.967  0.00  0.00    +0.091 N 
ATOM      7  C   UNL     1     -35.503  21.823   4.233  0.00  0.00    +0.284 C 
ATOM      8  C   UNL     1     -35.371  23.343   5.824  0.00  0.00    +0.089 C 
ATOM      9  C   UNL     1     -35.196  22.074   6.324  0.00  0.00    +0.118 C 
ENDBRANCH   1   4
BRANCH   1  10
ATOM     10  C   UNL     1     -36.874  25.235   3.942  0.00  0.00    +0.032 C 
BRANCH  10  11
ATOM     11  C   UNL     1     -37.973  25.438   2.897  0.00  0.00    +0.089 C 
BRANCH  11  14
ATOM     12  O   UNL     1     -40.055  24.619   3.806  0.00  0.00    -0.273 OA
ATOM     13  N   UNL     1     -39.003  23.401   2.151  0.00  0.00    -0.193 N 
ATOM     14  C   UNL     1     -39.122  24.454   3.026  0.00  0.00    +0.245 C 
ATOM     15  H   UNL     1     -38.249  23.320   1.522  0.00  0.00    +0.182 HD
BRANCH  13  16
ATOM     16  O   UNL     1     -40.036  22.447   2.215  0.00  0.00    -0.264 OA
ATOM     17  C   UNL     1     -39.804  21.472   1.208  0.00  0.00    +0.206 C 
ENDBRANCH  13  16
ENDBRANCH  11  14
ENDBRANCH  10  11
ENDBRANCH   1  10
TORSDOF 5
ENDMDL
MODEL 7
REMARK VINA RESULT:      -5.0      1.614      6.034
REMARK  Name = 206006
REMARK  5 active torsions:
REMARK  status: ('A' for Active; 'I' for Inactive)
REMARK    1  A    between atoms: C_1  and  N_4
REMARK    2  A    between atoms: C_1  and  C_10
REMARK    3  A    between atoms: C_10  and  C_11
REMARK    4  A    between atoms: C_11  and  C_14
REMARK    5  A    between atoms: N_13  and  O_16
REMARK                            x       y       z     vdW  Elec       q    Type
REMARK                         _______ _______ _______ _____ _____    ______ ____
ROOT
ATOM      1  C   UNL     1     -34.067  24.611   4.852  0.00  0.00    +0.099 C 
ENDROOT
BRANCH   1   4
ATOM      2  O   UNL     1     -32.136  28.344   4.969  0.00  0.00    -0.123 OA
ATOM      3  O   UNL     1     -32.828  26.736   6.301  0.00  0.00    -0.123 OA
ATOM      4  N   UNL     1     -34.448  25.819   4.131  0.00  0.00    -0.251 N 
ATOM      5  N   UNL     1     -34.497  27.935   3.502  0.00  0.00    -0.207 NA
ATOM      6  N   UNL     1     -32.928  27.393   5.226  0.00  0.00    +0.091 N 
ATOM      7  C   UNL     1     -33.932  27.064   4.307  0.00  0.00    +0.284 C 
ATOM      8  C   UNL     1     -35.398  25.883   3.161  0.00  0.00    +0.089 C 
ATOM      9  C   UNL     1     -35.413  27.206   2.785  0.00  0.00    +0.118 C 
ENDBRANCH   1   4
BRANCH   1  10
ATOM     10  C   UNL     1     -35.209  23.946   5.630  0.00  0.00    +0.032 C 
BRANCH  10  11
ATOM     11  C   UNL     1     -35.172  22.417   5.595  0.00  0.00    +0.089 C 
BRANCH  11  14
ATOM     12  O   UNL     1     -35.276  20.806   3.799  0.00  0.00    -0.273 OA
ATOM     13  N   UNL     1     -36.799  22.541   3.832  0.00  0.00    -0.193 N 
ATOM     14  C   UNL     1     -35.728  21.827   4.312  0.00  0.00    +0.245 C 
ATOM     15  H   UNL     1     -37.146  23.341   4.290  0.00  0.00    +0.182 HD
BRANCH  13  16
ATOM     16  O   UNL     1     -37.366  22.049   2.642  0.00  0.00    -0.264 OA
ATOM     17  C   UNL     1     -37.047  22.951   1.591  0.00  0.00    +0.206 C 
ENDBRANCH  13  16
ENDBRANCH  11  14
ENDBRANCH  10  11
ENDBRANCH   1  10
TORSDOF 5
ENDMDL
MODEL 8
REMARK VINA RESULT:      -4.9      1.490      2.361
REMARK  Name = 206006
REMARK  5 active torsions:
REMARK  status: ('A' for Active; 'I' for Inactive)
REMARK    1  A    between atoms: C_1  and  N_4
REMARK    2  A    between atoms: C_1  and  C_10
REMARK    3  A    between atoms: C_10  and  C_11
REMARK    4  A    between atoms: C_11  and  C_14
REMARK    5  A    between atoms: N_13  and  O_16
REMARK                            x       y       z     vdW  Elec       q    Type
REMARK                         _______ _______ _______ _____ _____    ______ ____
ROOT
ATOM      1  C   UNL     1     -36.247  23.851   4.433  0.00  0.00    +0.099 C 
ENDROOT
BRANCH   1   4
ATOM      2  O   UNL     1     -35.655  20.123   2.583  0.00  0.00    -0.123 OA
ATOM      3  O   UNL     1     -35.404  21.126   4.525  0.00  0.00    -0.123 OA
ATOM      4  N   UNL     1     -35.655  23.606   3.125  0.00  0.00    -0.251 N 
ATOM      5  N   UNL     1     -34.790  22.523   1.406  0.00  0.00    -0.207 NA
ATOM      6  N   UNL     1     -35.460  21.171   3.263  0.00  0.00    +0.091 N 
ATOM      7  C   UNL     1     -35.303  22.398   2.608  0.00  0.00    +0.284 C 
ATOM      8  C   UNL     1     -35.355  24.566   2.210  0.00  0.00    +0.089 C 
ATOM      9  C   UNL     1     -34.818  23.872   1.151  0.00  0.00    +0.118 C 
ENDBRANCH   1   4
BRANCH   1  10
ATOM     10  C   UNL     1     -35.250  24.293   5.512  0.00  0.00    +0.032 C 
BRANCH  10  11
ATOM     11  C   UNL     1     -35.106  25.811   5.634  0.00  0.00    +0.089 C 
BRANCH  11  14
ATOM     12  O   UNL     1     -33.094  26.187   4.353  0.00  0.00    -0.273 OA
ATOM     13  N   UNL     1     -33.176  26.917   6.542  0.00  0.00    -0.193 N 
ATOM     14  C   UNL     1     -33.685  26.304   5.423  0.00  0.00    +0.245 C 
ATOM     15  H   UNL     1     -33.696  27.012   7.373  0.00  0.00    +0.182 HD
BRANCH  13  16
ATOM     16  O   UNL     1     -31.860  27.400   6.417  0.00  0.00    -0.264 OA
ATOM     17  C   UNL     1     -31.891  28.814   6.550  0.00  0.00    +0.206 C 
ENDBRANCH  13  16
ENDBRANCH  11  14
ENDBRANCH  10  11
ENDBRANCH   1  10
TORSDOF 5
ENDMDL
MODEL 9
REMARK VINA RESULT:      -4.9      2.615      3.895
REMARK  Name = 206006
REMARK  5 active torsions:
REMARK  status: ('A' for Active; 'I' for Inactive)
REMARK    1  A    between atoms: C_1  and  N_4
REMARK    2  A    between atoms: C_1  and  C_10
REMARK    3  A    between atoms: C_10  and  C_11
REMARK    4  A    between atoms: C_11  and  C_14
REMARK    5  A    between atoms: N_13  and  O_16
REMARK                            x       y       z     vdW  Elec       q    Type
REMARK                         _______ _______ _______ _____ _____    ______ ____
ROOT
ATOM      1  C   UNL     1     -36.120  22.992   4.161  0.00  0.00    +0.099 C 
ENDROOT
BRANCH   1   4
ATOM      2  O   UNL     1     -38.168  26.377   2.741  0.00  0.00    -0.123 OA
ATOM      3  O   UNL     1     -38.512  24.522   3.871  0.00  0.00    -0.123 OA
ATOM      4  N   UNL     1     -36.017  23.587   2.835  0.00  0.00    -0.251 N 
ATOM      5  N   UNL     1     -36.455  24.877   1.096  0.00  0.00    -0.207 NA
ATOM      6  N   UNL     1     -37.868  25.178   3.004  0.00  0.00    +0.091 N 
ATOM      7  C   UNL     1     -36.808  24.567   2.323  0.00  0.00    +0.284 C 
ATOM      8  C   UNL     1     -35.102  23.241   1.891  0.00  0.00    +0.089 C 
ATOM      9  C   UNL     1     -35.392  24.053   0.820  0.00  0.00    +0.118 C 
ENDBRANCH   1   4
BRANCH   1  10
ATOM     10  C   UNL     1     -35.118  23.540   5.185  0.00  0.00    +0.032 C 
BRANCH  10  11
ATOM     11  C   UNL     1     -35.446  24.953   5.673  0.00  0.00    +0.089 C 
BRANCH  11  14
ATOM     12  O   UNL     1     -33.394  25.984   4.926  0.00  0.00    -0.273 OA
ATOM     13  N   UNL     1     -35.400  27.030   4.467  0.00  0.00    -0.193 N 
ATOM     14  C   UNL     1     -34.618  26.034   5.001  0.00  0.00    +0.245 C 
ATOM     15  H   UNL     1     -36.383  27.017   4.528  0.00  0.00    +0.182 HD
BRANCH  13  16
ATOM     16  O   UNL     1     -34.698  28.067   3.827  0.00  0.00    -0.264 OA
ATOM     17  C   UNL     1     -35.075  28.081   2.457  0.00  0.00    +0.206 C 
ENDBRANCH  13  16
ENDBRANCH  11  14
ENDBRANCH  10  11
ENDBRANCH   1  10
TORSDOF 5
ENDMDL
