MODEL 1
REMARK VINA RESULT:      -5.0      0.000      0.000
REMARK  Name = 5311264
REMARK  11 active torsions:
REMARK  status: ('A' for Active; 'I' for Inactive)
REMARK    1  A    between atoms: P_1  and  O_4
REMARK    2  A    between atoms: P_1  and  O_11
REMARK    3  A    between atoms: O_4  and  C_5
REMARK    4  A    between atoms: C_5  and  C_6
REMARK    5  A    between atoms: C_6  and  N_7
REMARK    6  A    between atoms: O_11  and  C_12
REMARK    7  A    between atoms: C_12  and  C_13
REMARK    8  A    between atoms: C_13  and  O_14
REMARK    9  A    between atoms: C_13  and  C_16
REMARK   10  A    between atoms: C_16  and  O_17
REMARK   11  A    between atoms: O_17  and  C_19
REMARK                            x       y       z     vdW  Elec       q    Type
REMARK                         _______ _______ _______ _____ _____    ______ ____
ROOT
ATOM      1  P   UNL     1     -33.676  26.623   5.218  0.00  0.00    +0.506 P 
ATOM      2  O   UNL     1     -33.236  25.324   4.576  0.00  0.00    -0.116 OA
ATOM      3  O   UNL     1     -33.291  26.936   6.649  0.00  0.00    -0.225 OA
ENDROOT
BRANCH   1   4
ATOM      4  O   UNL     1     -33.201  27.874   4.278  0.00  0.00    -0.274 OA
BRANCH   4   5
ATOM      5  C   UNL     1     -32.341  28.864   4.826  0.00  0.00    +0.132 C 
BRANCH   5   6
ATOM      6  C   UNL     1     -30.899  28.416   4.688  0.00  0.00    -0.040 C 
BRANCH   6   7
ATOM      7  N   UNL     1     -30.055  29.109   5.748  0.00  0.00    +0.387 N 
ATOM      8  C   UNL     1     -29.024  28.132   6.293  0.00  0.00    -0.096 C 
ATOM      9  C   UNL     1     -30.954  29.583   6.881  0.00  0.00    -0.096 C 
ATOM     10  C   UNL     1     -29.346  30.305   5.130  0.00  0.00    -0.096 C 
ENDBRANCH   6   7
ENDBRANCH   5   6
ENDBRANCH   4   5
ENDBRANCH   1   4
BRANCH   1  11
ATOM     11  O   UNL     1     -35.300  26.747   5.060  0.00  0.00    -0.269 OA
BRANCH  11  12
ATOM     12  C   UNL     1     -36.109  25.611   5.322  0.00  0.00    +0.187 C 
BRANCH  12  13
ATOM     13  C   UNL     1     -36.771  25.139   4.032  0.00  0.00    +0.184 C 
BRANCH  13  14
ATOM     14  O   UNL     1     -38.169  24.961   4.272  0.00  0.00    -0.378 OA
ATOM     15  H   UNL     1     -38.674  25.571   3.711  0.00  0.00    +0.211 HD
ENDBRANCH  13  14
BRANCH  13  16
ATOM     16  C   UNL     1     -36.200  23.805   3.569  0.00  0.00    +0.240 C 
BRANCH  16  17
ATOM     17  O   UNL     1     -36.545  22.801   4.518  0.00  0.00    -0.446 OA
BRANCH  17  19
ATOM     18  O   UNL     1     -35.254  20.952   4.018  0.00  0.00    -0.250 OA
ATOM     19  C   UNL     1     -35.582  21.863   4.765  0.00  0.00    +0.318 C 
ATOM     20  C   UNL     1     -34.967  22.110   6.109  0.00  0.00    +0.121 C 
ENDBRANCH  17  19
ENDBRANCH  16  17
ENDBRANCH  13  16
ENDBRANCH  12  13
ENDBRANCH  11  12
ENDBRANCH   1  11
TORSDOF 11
ENDMDL
MODEL 2
REMARK VINA RESULT:      -4.9      0.881      1.460
REMARK  Name = 5311264
REMARK  11 active torsions:
REMARK  status: ('A' for Active; 'I' for Inactive)
REMARK    1  A    between atoms: P_1  and  O_4
REMARK    2  A    between atoms: P_1  and  O_11
REMARK    3  A    between atoms: O_4  and  C_5
REMARK    4  A    between atoms: C_5  and  C_6
REMARK    5  A    between atoms: C_6  and  N_7
REMARK    6  A    between atoms: O_11  and  C_12
REMARK    7  A    between atoms: C_12  and  C_13
REMARK    8  A    between atoms: C_13  and  O_14
REMARK    9  A    between atoms: C_13  and  C_16
REMARK   10  A    between atoms: C_16  and  O_17
REMARK   11  A    between atoms: O_17  and  C_19
REMARK                            x       y       z     vdW  Elec       q    Type
REMARK                         _______ _______ _______ _____ _____    ______ ____
ROOT
ATOM      1  P   UNL     1     -33.494  26.946   4.705  0.00  0.00    +0.506 P 
ATOM      2  O   UNL     1     -33.510  28.284   3.996  0.00  0.00    -0.116 OA
ATOM      3  O   UNL     1     -33.048  25.698   3.970  0.00  0.00    -0.225 OA
ENDROOT
BRANCH   1   4
ATOM      4  O   UNL     1     -32.610  27.073   6.075  0.00  0.00    -0.274 OA
BRANCH   4   5
ATOM      5  C   UNL     1     -32.082  28.341   6.440  0.00  0.00    +0.132 C 
BRANCH   5   6
ATOM      6  C   UNL     1     -30.596  28.377   6.137  0.00  0.00    -0.040 C 
BRANCH   6   7
ATOM      7  N   UNL     1     -30.276  29.636   5.345  0.00  0.00    +0.387 N 
ATOM      8  C   UNL     1     -28.963  30.225   5.837  0.00  0.00    -0.096 C 
ATOM      9  C   UNL     1     -31.392  30.653   5.537  0.00  0.00    -0.096 C 
ATOM     10  C   UNL     1     -30.155  29.289   3.868  0.00  0.00    -0.096 C 
ENDBRANCH   6   7
ENDBRANCH   5   6
ENDBRANCH   4   5
ENDBRANCH   1   4
BRANCH   1  11
ATOM     11  O   UNL     1     -34.978  26.689   5.344  0.00  0.00    -0.269 OA
BRANCH  11  12
ATOM     12  C   UNL     1     -35.494  25.369   5.390  0.00  0.00    +0.187 C 
BRANCH  12  13
ATOM     13  C   UNL     1     -36.350  25.105   4.157  0.00  0.00    +0.184 C 
BRANCH  13  14
ATOM     14  O   UNL     1     -37.729  25.171   4.533  0.00  0.00    -0.378 OA
ATOM     15  H   UNL     1     -37.914  24.493   5.202  0.00  0.00    +0.211 HD
ENDBRANCH  13  14
BRANCH  13  16
ATOM     16  C   UNL     1     -36.088  23.719   3.582  0.00  0.00    +0.240 C 
BRANCH  16  17
ATOM     17  O   UNL     1     -36.449  22.740   4.551  0.00  0.00    -0.446 OA
BRANCH  17  19
ATOM     18  O   UNL     1     -35.268  20.864   3.901  0.00  0.00    -0.250 OA
ATOM     19  C   UNL     1     -35.555  21.721   4.726  0.00  0.00    +0.318 C 
ATOM     20  C   UNL     1     -34.958  21.799   6.098  0.00  0.00    +0.121 C 
ENDBRANCH  17  19
ENDBRANCH  16  17
ENDBRANCH  13  16
ENDBRANCH  12  13
ENDBRANCH  11  12
ENDBRANCH   1  11
TORSDOF 11
ENDMDL
MODEL 3
REMARK VINA RESULT:      -4.8      2.812      3.496
REMARK  Name = 5311264
REMARK  11 active torsions:
REMARK  status: ('A' for Active; 'I' for Inactive)
REMARK    1  A    between atoms: P_1  and  O_4
REMARK    2  A    between atoms: P_1  and  O_11
REMARK    3  A    between atoms: O_4  and  C_5
REMARK    4  A    between atoms: C_5  and  C_6
REMARK    5  A    between atoms: C_6  and  N_7
REMARK    6  A    between atoms: O_11  and  C_12
REMARK    7  A    between atoms: C_12  and  C_13
REMARK    8  A    between atoms: C_13  and  O_14
REMARK    9  A    between atoms: C_13  and  C_16
REMARK   10  A    between atoms: C_16  and  O_17
REMARK   11  A    between atoms: O_17  and  C_19
REMARK                            x       y       z     vdW  Elec       q    Type
REMARK                         _______ _______ _______ _____ _____    ______ ____
ROOT
ATOM      1  P   UNL     1     -33.723  26.567   5.269  0.00  0.00    +0.506 P 
ATOM      2  O   UNL     1     -33.300  25.260   4.632  0.00  0.00    -0.116 OA
ATOM      3  O   UNL     1     -33.262  26.918   6.669  0.00  0.00    -0.225 OA
ENDROOT
BRANCH   1   4
ATOM      4  O   UNL     1     -33.323  27.803   4.276  0.00  0.00    -0.274 OA
BRANCH   4   5
ATOM      5  C   UNL     1     -34.176  28.114   3.182  0.00  0.00    +0.132 C 
BRANCH   5   6
ATOM      6  C   UNL     1     -33.866  29.510   2.679  0.00  0.00    -0.040 C 
BRANCH   6   7
ATOM      7  N   UNL     1     -35.015  29.997   1.808  0.00  0.00    +0.387 N 
ATOM      8  C   UNL     1     -35.738  31.135   2.511  0.00  0.00    -0.096 C 
ATOM      9  C   UNL     1     -35.987  28.850   1.567  0.00  0.00    -0.096 C 
ATOM     10  C   UNL     1     -34.470  30.487   0.475  0.00  0.00    -0.096 C 
ENDBRANCH   6   7
ENDBRANCH   5   6
ENDBRANCH   4   5
ENDBRANCH   1   4
BRANCH   1  11
ATOM     11  O   UNL     1     -35.355  26.663   5.203  0.00  0.00    -0.269 OA
BRANCH  11  12
ATOM     12  C   UNL     1     -36.126  25.485   5.385  0.00  0.00    +0.187 C 
BRANCH  12  13
ATOM     13  C   UNL     1     -36.760  25.072   4.062  0.00  0.00    +0.184 C 
BRANCH  13  14
ATOM     14  O   UNL     1     -38.167  24.907   4.259  0.00  0.00    -0.378 OA
ATOM     15  H   UNL     1     -38.382  25.061   5.192  0.00  0.00    +0.211 HD
ENDBRANCH  13  14
BRANCH  13  16
ATOM     16  C   UNL     1     -36.198  23.747   3.564  0.00  0.00    +0.240 C 
BRANCH  16  17
ATOM     17  O   UNL     1     -36.532  22.724   4.496  0.00  0.00    -0.446 OA
BRANCH  17  19
ATOM     18  O   UNL     1     -35.286  20.856   3.955  0.00  0.00    -0.250 OA
ATOM     19  C   UNL     1     -35.570  21.777   4.707  0.00  0.00    +0.318 C 
ATOM     20  C   UNL     1     -34.891  22.028   6.020  0.00  0.00    +0.121 C 
ENDBRANCH  17  19
ENDBRANCH  16  17
ENDBRANCH  13  16
ENDBRANCH  12  13
ENDBRANCH  11  12
ENDBRANCH   1  11
TORSDOF 11
ENDMDL
MODEL 4
REMARK VINA RESULT:      -4.8      3.731      7.788
REMARK  Name = 5311264
REMARK  11 active torsions:
REMARK  status: ('A' for Active; 'I' for Inactive)
REMARK    1  A    between atoms: P_1  and  O_4
REMARK    2  A    between atoms: P_1  and  O_11
REMARK    3  A    between atoms: O_4  and  C_5
REMARK    4  A    between atoms: C_5  and  C_6
REMARK    5  A    between atoms: C_6  and  N_7
REMARK    6  A    between atoms: O_11  and  C_12
REMARK    7  A    between atoms: C_12  and  C_13
REMARK    8  A    between atoms: C_13  and  O_14
REMARK    9  A    between atoms: C_13  and  C_16
REMARK   10  A    between atoms: C_16  and  O_17
REMARK   11  A    between atoms: O_17  and  C_19
REMARK                            x       y       z     vdW  Elec       q    Type
REMARK                         _______ _______ _______ _____ _____    ______ ____
ROOT
ATOM      1  P   UNL     1     -35.717  22.920   5.097  0.00  0.00    +0.506 P 
ATOM      2  O   UNL     1     -36.773  23.853   4.542  0.00  0.00    -0.116 OA
ATOM      3  O   UNL     1     -35.969  22.158   6.381  0.00  0.00    -0.225 OA
ENDROOT
BRANCH   1   4
ATOM      4  O   UNL     1     -35.291  21.844   3.941  0.00  0.00    -0.274 OA
BRANCH   4   5
ATOM      5  C   UNL     1     -36.020  21.816   2.721  0.00  0.00    +0.132 C 
BRANCH   5   6
ATOM      6  C   UNL     1     -36.255  20.377   2.304  0.00  0.00    -0.040 C 
BRANCH   6   7
ATOM      7  N   UNL     1     -35.405  20.064   1.080  0.00  0.00    +0.387 N 
ATOM      8  C   UNL     1     -34.063  19.503   1.524  0.00  0.00    -0.096 C 
ATOM      9  C   UNL     1     -35.182  21.339   0.279  0.00  0.00    -0.096 C 
ATOM     10  C   UNL     1     -36.123  19.041   0.213  0.00  0.00    -0.096 C 
ENDBRANCH   6   7
ENDBRANCH   5   6
ENDBRANCH   4   5
ENDBRANCH   1   4
BRANCH   1  11
ATOM     11  O   UNL     1     -34.318  23.758   5.237  0.00  0.00    -0.269 OA
BRANCH  11  12
ATOM     12  C   UNL     1     -34.125  24.919   4.445  0.00  0.00    +0.187 C 
BRANCH  12  13
ATOM     13  C   UNL     1     -34.343  26.166   5.295  0.00  0.00    +0.184 C 
BRANCH  13  14
ATOM     14  O   UNL     1     -35.595  26.755   4.932  0.00  0.00    -0.378 OA
ATOM     15  H   UNL     1     -36.149  26.849   5.723  0.00  0.00    +0.211 HD
ENDBRANCH  13  14
BRANCH  13  16
ATOM     16  C   UNL     1     -33.251  27.201   5.056  0.00  0.00    +0.240 C 
BRANCH  16  17
ATOM     17  O   UNL     1     -32.737  27.629   6.312  0.00  0.00    -0.446 OA
BRANCH  17  19
ATOM     18  O   UNL     1     -30.435  27.790   6.195  0.00  0.00    -0.250 OA
ATOM     19  C   UNL     1     -31.546  28.298   6.268  0.00  0.00    +0.318 C 
ATOM     20  C   UNL     1     -31.791  29.776   6.321  0.00  0.00    +0.121 C 
ENDBRANCH  17  19
ENDBRANCH  16  17
ENDBRANCH  13  16
ENDBRANCH  12  13
ENDBRANCH  11  12
ENDBRANCH   1  11
TORSDOF 11
ENDMDL
MODEL 5
REMARK VINA RESULT:      -4.8      0.848      1.580
REMARK  Name = 5311264
REMARK  11 active torsions:
REMARK  status: ('A' for Active; 'I' for Inactive)
REMARK    1  A    between atoms: P_1  and  O_4
REMARK    2  A    between atoms: P_1  and  O_11
REMARK    3  A    between atoms: O_4  and  C_5
REMARK    4  A    between atoms: C_5  and  C_6
REMARK    5  A    between atoms: C_6  and  N_7
REMARK    6  A    between atoms: O_11  and  C_12
REMARK    7  A    between atoms: C_12  and  C_13
REMARK    8  A    between atoms: C_13  and  O_14
REMARK    9  A    between atoms: C_13  and  C_16
REMARK   10  A    between atoms: C_16  and  O_17
REMARK   11  A    between atoms: O_17  and  C_19
REMARK                            x       y       z     vdW  Elec       q    Type
REMARK                         _______ _______ _______ _____ _____    ______ ____
ROOT
ATOM      1  P   UNL     1     -33.686  26.581   4.454  0.00  0.00    +0.506 P 
ATOM      2  O   UNL     1     -33.431  27.225   3.107  0.00  0.00    -0.116 OA
ATOM      3  O   UNL     1     -33.484  25.091   4.639  0.00  0.00    -0.225 OA
ENDROOT
BRANCH   1   4
ATOM      4  O   UNL     1     -32.810  27.359   5.595  0.00  0.00    -0.274 OA
BRANCH   4   5
ATOM      5  C   UNL     1     -31.849  28.325   5.190  0.00  0.00    +0.132 C 
BRANCH   5   6
ATOM      6  C   UNL     1     -30.904  28.612   6.341  0.00  0.00    -0.040 C 
BRANCH   6   7
ATOM      7  N   UNL     1     -29.494  28.796   5.797  0.00  0.00    +0.387 N 
ATOM      8  C   UNL     1     -29.157  30.278   5.752  0.00  0.00    -0.096 C 
ATOM      9  C   UNL     1     -29.413  28.213   4.393  0.00  0.00    -0.096 C 
ATOM     10  C   UNL     1     -28.504  28.076   6.702  0.00  0.00    -0.096 C 
ENDBRANCH   6   7
ENDBRANCH   5   6
ENDBRANCH   4   5
ENDBRANCH   1   4
BRANCH   1  11
ATOM     11  O   UNL     1     -35.199  26.981   4.932  0.00  0.00    -0.269 OA
BRANCH  11  12
ATOM     12  C   UNL     1     -36.149  25.951   5.154  0.00  0.00    +0.187 C 
BRANCH  12  13
ATOM     13  C   UNL     1     -36.778  25.534   3.829  0.00  0.00    +0.184 C 
BRANCH  13  14
ATOM     14  O   UNL     1     -38.098  26.079   3.757  0.00  0.00    -0.378 OA
ATOM     15  H   UNL     1     -38.358  26.414   4.630  0.00  0.00    +0.211 HD
ENDBRANCH  13  14
BRANCH  13  16
ATOM     16  C   UNL     1     -36.889  24.019   3.717  0.00  0.00    +0.240 C 
BRANCH  16  17
ATOM     17  O   UNL     1     -36.460  23.433   4.941  0.00  0.00    -0.446 OA
BRANCH  17  19
ATOM     18  O   UNL     1     -35.421  21.725   3.782  0.00  0.00    -0.250 OA
ATOM     19  C   UNL     1     -35.682  22.316   4.822  0.00  0.00    +0.318 C 
ATOM     20  C   UNL     1     -35.177  21.902   6.171  0.00  0.00    +0.121 C 
ENDBRANCH  17  19
ENDBRANCH  16  17
ENDBRANCH  13  16
ENDBRANCH  12  13
ENDBRANCH  11  12
ENDBRANCH   1  11
TORSDOF 11
ENDMDL
MODEL 6
REMARK VINA RESULT:      -4.8      1.419      2.143
REMARK  Name = 5311264
REMARK  11 active torsions:
REMARK  status: ('A' for Active; 'I' for Inactive)
REMARK    1  A    between atoms: P_1  and  O_4
REMARK    2  A    between atoms: P_1  and  O_11
REMARK    3  A    between atoms: O_4  and  C_5
REMARK    4  A    between atoms: C_5  and  C_6
REMARK    5  A    between atoms: C_6  and  N_7
REMARK    6  A    between atoms: O_11  and  C_12
REMARK    7  A    between atoms: C_12  and  C_13
REMARK    8  A    between atoms: C_13  and  O_14
REMARK    9  A    between atoms: C_13  and  C_16
REMARK   10  A    between atoms: C_16  and  O_17
REMARK   11  A    between atoms: O_17  and  C_19
REMARK                            x       y       z     vdW  Elec       q    Type
REMARK                         _______ _______ _______ _____ _____    ______ ____
ROOT
ATOM      1  P   UNL     1     -32.705  27.597   4.593  0.00  0.00    +0.506 P 
ATOM      2  O   UNL     1     -33.148  28.989   4.194  0.00  0.00    -0.116 OA
ATOM      3  O   UNL     1     -32.467  26.540   3.535  0.00  0.00    -0.225 OA
ENDROOT
BRANCH   1   4
ATOM      4  O   UNL     1     -31.359  27.706   5.516  0.00  0.00    -0.274 OA
BRANCH   4   5
ATOM      5  C   UNL     1     -30.424  28.744   5.255  0.00  0.00    +0.132 C 
BRANCH   5   6
ATOM      6  C   UNL     1     -30.004  29.388   6.562  0.00  0.00    -0.040 C 
BRANCH   6   7
ATOM      7  N   UNL     1     -28.533  29.092   6.817  0.00  0.00    +0.387 N 
ATOM      8  C   UNL     1     -27.692  29.707   5.708  0.00  0.00    -0.096 C 
ATOM      9  C   UNL     1     -28.316  27.585   6.842  0.00  0.00    -0.096 C 
ATOM     10  C   UNL     1     -28.121  29.685   8.156  0.00  0.00    -0.096 C 
ENDBRANCH   6   7
ENDBRANCH   5   6
ENDBRANCH   4   5
ENDBRANCH   1   4
BRANCH   1  11
ATOM     11  O   UNL     1     -33.764  27.020   5.698  0.00  0.00    -0.269 OA
BRANCH  11  12
ATOM     12  C   UNL     1     -34.371  25.757   5.482  0.00  0.00    +0.187 C 
BRANCH  12  13
ATOM     13  C   UNL     1     -35.619  25.923   4.622  0.00  0.00    +0.184 C 
BRANCH  13  14
ATOM     14  O   UNL     1     -36.709  26.307   5.465  0.00  0.00    -0.378 OA
ATOM     15  H   UNL     1     -36.852  27.264   5.391  0.00  0.00    +0.211 HD
ENDBRANCH  13  14
BRANCH  13  16
ATOM     16  C   UNL     1     -35.998  24.619   3.932  0.00  0.00    +0.240 C 
BRANCH  16  17
ATOM     17  O   UNL     1     -36.406  23.676   4.916  0.00  0.00    -0.446 OA
BRANCH  17  19
ATOM     18  O   UNL     1     -35.539  21.782   3.919  0.00  0.00    -0.250 OA
ATOM     19  C   UNL     1     -35.745  22.481   4.902  0.00  0.00    +0.318 C 
ATOM     20  C   UNL     1     -35.294  22.133   6.288  0.00  0.00    +0.121 C 
ENDBRANCH  17  19
ENDBRANCH  16  17
ENDBRANCH  13  16
ENDBRANCH  12  13
ENDBRANCH  11  12
ENDBRANCH   1  11
TORSDOF 11
ENDMDL
MODEL 7
REMARK VINA RESULT:      -4.7      4.057      5.895
REMARK  Name = 5311264
REMARK  11 active torsions:
REMARK  status: ('A' for Active; 'I' for Inactive)
REMARK    1  A    between atoms: P_1  and  O_4
REMARK    2  A    between atoms: P_1  and  O_11
REMARK    3  A    between atoms: O_4  and  C_5
REMARK    4  A    between atoms: C_5  and  C_6
REMARK    5  A    between atoms: C_6  and  N_7
REMARK    6  A    between atoms: O_11  and  C_12
REMARK    7  A    between atoms: C_12  and  C_13
REMARK    8  A    between atoms: C_13  and  O_14
REMARK    9  A    between atoms: C_13  and  C_16
REMARK   10  A    between atoms: C_16  and  O_17
REMARK   11  A    between atoms: O_17  and  C_19
REMARK                            x       y       z     vdW  Elec       q    Type
REMARK                         _______ _______ _______ _____ _____    ______ ____
ROOT
ATOM      1  P   UNL     1     -37.449  23.195   2.853  0.00  0.00    +0.506 P 
ATOM      2  O   UNL     1     -38.613  24.008   3.378  0.00  0.00    -0.116 OA
ATOM      3  O   UNL     1     -36.460  23.812   1.886  0.00  0.00    -0.225 OA
ENDROOT
BRANCH   1   4
ATOM      4  O   UNL     1     -36.611  22.579   4.115  0.00  0.00    -0.274 OA
BRANCH   4   5
ATOM      5  C   UNL     1     -35.342  23.132   4.437  0.00  0.00    +0.132 C 
BRANCH   5   6
ATOM      6  C   UNL     1     -35.525  24.303   5.383  0.00  0.00    -0.040 C 
BRANCH   6   7
ATOM      7  N   UNL     1     -34.772  25.509   4.839  0.00  0.00    +0.387 N 
ATOM      8  C   UNL     1     -34.010  26.183   5.970  0.00  0.00    -0.096 C 
ATOM      9  C   UNL     1     -35.763  26.494   4.236  0.00  0.00    -0.096 C 
ATOM     10  C   UNL     1     -33.793  25.054   3.766  0.00  0.00    -0.096 C 
ENDBRANCH   6   7
ENDBRANCH   5   6
ENDBRANCH   4   5
ENDBRANCH   1   4
BRANCH   1  11
ATOM     11  O   UNL     1     -38.043  21.815   2.203  0.00  0.00    -0.269 OA
BRANCH  11  12
ATOM     12  C   UNL     1     -37.441  21.286   1.033  0.00  0.00    +0.187 C 
BRANCH  12  13
ATOM     13  C   UNL     1     -36.481  20.162   1.409  0.00  0.00    +0.184 C 
BRANCH  13  14
ATOM     14  O   UNL     1     -36.712  19.798   2.773  0.00  0.00    -0.378 OA
ATOM     15  H   UNL     1     -35.884  19.484   3.168  0.00  0.00    +0.211 HD
ENDBRANCH  13  14
BRANCH  13  16
ATOM     16  C   UNL     1     -35.029  20.603   1.282  0.00  0.00    +0.240 C 
BRANCH  16  17
ATOM     17  O   UNL     1     -34.192  19.621   1.883  0.00  0.00    -0.446 OA
BRANCH  17  19
ATOM     18  O   UNL     1     -32.167  19.749   0.780  0.00  0.00    -0.250 OA
ATOM     19  C   UNL     1     -33.181  19.143   1.099  0.00  0.00    +0.318 C 
ATOM     20  C   UNL     1     -33.489  17.740   0.672  0.00  0.00    +0.121 C 
ENDBRANCH  17  19
ENDBRANCH  16  17
ENDBRANCH  13  16
ENDBRANCH  12  13
ENDBRANCH  11  12
ENDBRANCH   1  11
TORSDOF 11
ENDMDL
MODEL 8
REMARK VINA RESULT:      -4.7      5.317      7.125
REMARK  Name = 5311264
REMARK  11 active torsions:
REMARK  status: ('A' for Active; 'I' for Inactive)
REMARK    1  A    between atoms: P_1  and  O_4
REMARK    2  A    between atoms: P_1  and  O_11
REMARK    3  A    between atoms: O_4  and  C_5
REMARK    4  A    between atoms: C_5  and  C_6
REMARK    5  A    between atoms: C_6  and  N_7
REMARK    6  A    between atoms: O_11  and  C_12
REMARK    7  A    between atoms: C_12  and  C_13
REMARK    8  A    between atoms: C_13  and  O_14
REMARK    9  A    between atoms: C_13  and  C_16
REMARK   10  A    between atoms: C_16  and  O_17
REMARK   11  A    between atoms: O_17  and  C_19
REMARK                            x       y       z     vdW  Elec       q    Type
REMARK                         _______ _______ _______ _____ _____    ______ ____
ROOT
ATOM      1  P   UNL     1     -35.869  23.328   4.703  0.00  0.00    +0.506 P 
ATOM      2  O   UNL     1     -34.597  23.975   4.195  0.00  0.00    -0.116 OA
ATOM      3  O   UNL     1     -35.911  22.706   6.083  0.00  0.00    -0.225 OA
ENDROOT
BRANCH   1   4
ATOM      4  O   UNL     1     -37.098  24.401   4.590  0.00  0.00    -0.274 OA
BRANCH   4   5
ATOM      5  C   UNL     1     -37.185  25.235   3.443  0.00  0.00    +0.132 C 
BRANCH   5   6
ATOM      6  C   UNL     1     -38.638  25.389   3.037  0.00  0.00    -0.040 C 
BRANCH   6   7
ATOM      7  N   UNL     1     -38.907  24.539   1.803  0.00  0.00    +0.387 N 
ATOM      8  C   UNL     1     -37.602  24.301   1.057  0.00  0.00    -0.096 C 
ATOM      9  C   UNL     1     -39.888  25.263   0.893  0.00  0.00    -0.096 C 
ATOM     10  C   UNL     1     -39.500  23.203   2.227  0.00  0.00    -0.096 C 
ENDBRANCH   6   7
ENDBRANCH   5   6
ENDBRANCH   4   5
ENDBRANCH   1   4
BRANCH   1  11
ATOM     11  O   UNL     1     -36.354  22.221   3.600  0.00  0.00    -0.269 OA
BRANCH  11  12
ATOM     12  C   UNL     1     -35.398  21.331   3.046  0.00  0.00    +0.187 C 
BRANCH  12  13
ATOM     13  C   UNL     1     -36.026  20.549   1.897  0.00  0.00    +0.184 C 
BRANCH  13  14
ATOM     14  O   UNL     1     -36.911  19.565   2.442  0.00  0.00    -0.378 OA
ATOM     15  H   UNL     1     -37.465  19.974   3.126  0.00  0.00    +0.211 HD
ENDBRANCH  13  14
BRANCH  13  16
ATOM     16  C   UNL     1     -34.969  19.823   1.075  0.00  0.00    +0.240 C 
BRANCH  16  17
ATOM     17  O   UNL     1     -33.932  19.378   1.943  0.00  0.00    -0.446 OA
BRANCH  17  19
ATOM     18  O   UNL     1     -32.445  17.676   1.466  0.00  0.00    -0.250 OA
ATOM     19  C   UNL     1     -32.843  18.825   1.330  0.00  0.00    +0.318 C 
ATOM     20  C   UNL     1     -32.187  19.842   0.447  0.00  0.00    +0.121 C 
ENDBRANCH  17  19
ENDBRANCH  16  17
ENDBRANCH  13  16
ENDBRANCH  12  13
ENDBRANCH  11  12
ENDBRANCH   1  11
TORSDOF 11
ENDMDL
MODEL 9
REMARK VINA RESULT:      -4.7      1.508      1.803
REMARK  Name = 5311264
REMARK  11 active torsions:
REMARK  status: ('A' for Active; 'I' for Inactive)
REMARK    1  A    between atoms: P_1  and  O_4
REMARK    2  A    between atoms: P_1  and  O_11
REMARK    3  A    between atoms: O_4  and  C_5
REMARK    4  A    between atoms: C_5  and  C_6
REMARK    5  A    between atoms: C_6  and  N_7
REMARK    6  A    between atoms: O_11  and  C_12
REMARK    7  A    between atoms: C_12  and  C_13
REMARK    8  A    between atoms: C_13  and  O_14
REMARK    9  A    between atoms: C_13  and  C_16
REMARK   10  A    between atoms: C_16  and  O_17
REMARK   11  A    between atoms: O_17  and  C_19
REMARK                            x       y       z     vdW  Elec       q    Type
REMARK                         _______ _______ _______ _____ _____    ______ ____
ROOT
ATOM      1  P   UNL     1     -34.098  26.180   4.813  0.00  0.00    +0.506 P 
ATOM      2  O   UNL     1     -33.304  25.124   4.073  0.00  0.00    -0.116 OA
ATOM      3  O   UNL     1     -34.759  25.850   6.135  0.00  0.00    -0.225 OA
ENDROOT
BRANCH   1   4
ATOM      4  O   UNL     1     -33.162  27.503   5.028  0.00  0.00    -0.274 OA
BRANCH   4   5
ATOM      5  C   UNL     1     -32.830  28.306   3.902  0.00  0.00    +0.132 C 
BRANCH   5   6
ATOM      6  C   UNL     1     -31.508  29.005   4.150  0.00  0.00    -0.040 C 
BRANCH   6   7
ATOM      7  N   UNL     1     -31.768  30.467   4.483  0.00  0.00    +0.387 N 
ATOM      8  C   UNL     1     -31.966  30.619   5.984  0.00  0.00    -0.096 C 
ATOM      9  C   UNL     1     -33.020  30.936   3.756  0.00  0.00    -0.096 C 
ATOM     10  C   UNL     1     -30.580  31.307   4.039  0.00  0.00    -0.096 C 
ENDBRANCH   6   7
ENDBRANCH   5   6
ENDBRANCH   4   5
ENDBRANCH   1   4
BRANCH   1  11
ATOM     11  O   UNL     1     -35.220  26.786   3.789  0.00  0.00    -0.269 OA
BRANCH  11  12
ATOM     12  C   UNL     1     -35.766  25.947   2.784  0.00  0.00    +0.187 C 
BRANCH  12  13
ATOM     13  C   UNL     1     -37.108  25.390   3.248  0.00  0.00    +0.184 C 
BRANCH  13  14
ATOM     14  O   UNL     1     -37.403  25.923   4.542  0.00  0.00    -0.378 OA
ATOM     15  H   UNL     1     -38.312  26.261   4.552  0.00  0.00    +0.211 HD
ENDBRANCH  13  14
BRANCH  13  16
ATOM     16  C   UNL     1     -37.070  23.871   3.365  0.00  0.00    +0.240 C 
BRANCH  16  17
ATOM     17  O   UNL     1     -36.654  23.518   4.680  0.00  0.00    -0.446 OA
BRANCH  17  19
ATOM     18  O   UNL     1     -35.396  21.774   3.837  0.00  0.00    -0.250 OA
ATOM     19  C   UNL     1     -35.770  22.481   4.764  0.00  0.00    +0.318 C 
ATOM     20  C   UNL     1     -35.306  22.322   6.180  0.00  0.00    +0.121 C 
ENDBRANCH  17  19
ENDBRANCH  16  17
ENDBRANCH  13  16
ENDBRANCH  12  13
ENDBRANCH  11  12
ENDBRANCH   1  11
TORSDOF 11
ENDMDL
