MODEL 1
REMARK VINA RESULT:      -5.3      0.000      0.000
REMARK  Name = 5355019
REMARK  10 active torsions:
REMARK  status: ('A' for Active; 'I' for Inactive)
REMARK    1  A    between atoms: N_2  and  C_4
REMARK    2  A    between atoms: N_2  and  C_16
REMARK    3  A    between atoms: C_5  and  S_7
REMARK    4  A    between atoms: C_5  and  C_12
REMARK    5  A    between atoms: S_7  and  S_8
REMARK    6  A    between atoms: S_8  and  C_9
REMARK    7  A    between atoms: C_9  and  C_10
REMARK    8  A    between atoms: C_12  and  C_13
REMARK    9  A    between atoms: C_13  and  O_14
REMARK   10  A    between atoms: C_16  and  C_20
REMARK                            x       y       z     vdW  Elec       q    Type
REMARK                         _______ _______ _______ _____ _____    ______ ____
ROOT
ATOM      1  O   UNL     1     -35.733  22.704   6.202  0.00  0.00    -0.265 OA
ATOM      2  N   UNL     1     -36.105  23.949   4.249  0.00  0.00    -0.250 N 
ATOM      3  C   UNL     1     -35.826  22.804   4.983  0.00  0.00    +0.307 C 
ENDROOT
BRANCH   2   4
ATOM      4  C   UNL     1     -36.177  23.911   2.878  0.00  0.00    +0.035 C 
ATOM      5  C   UNL     1     -37.364  23.957   2.225  0.00  0.00    +0.025 C 
ATOM      6  C   UNL     1     -34.831  23.799   2.214  0.00  0.00    +0.048 C 
BRANCH   5   7
ATOM      7  S   UNL     1     -37.423  23.830   0.469  0.00  0.00    -0.059 S 
BRANCH   7   8
ATOM      8  S   UNL     1     -38.097  21.900   0.316  0.00  0.00    -0.078 S 
BRANCH   8   9
ATOM      9  C   UNL     1     -36.552  20.961   0.395  0.00  0.00    +0.069 C 
BRANCH   9  10
ATOM     10  C   UNL     1     -36.393  20.309   1.764  0.00  0.00    +0.013 C 
ATOM     11  C   UNL     1     -34.923  20.147   2.126  0.00  0.00    +0.001 C 
ENDBRANCH   9  10
ENDBRANCH   8   9
ENDBRANCH   7   8
ENDBRANCH   5   7
BRANCH   5  12
ATOM     12  C   UNL     1     -38.706  24.070   2.929  0.00  0.00    +0.066 C 
BRANCH  12  13
ATOM     13  C   UNL     1     -39.469  25.341   2.557  0.00  0.00    +0.142 C 
BRANCH  13  14
ATOM     14  O   UNL     1     -38.951  26.468   3.248  0.00  0.00    -0.382 OA
ATOM     15  H   UNL     1     -37.986  26.492   3.150  0.00  0.00    +0.210 HD
ENDBRANCH  13  14
ENDBRANCH  12  13
ENDBRANCH   5  12
ENDBRANCH   2   4
BRANCH   2  16
ATOM     16  C   UNL     1     -36.328  25.224   4.913  0.00  0.00    +0.130 C 
BRANCH  16  20
ATOM     17  N   UNL     1     -33.880  27.925   3.864  0.00  0.00    -0.340 NA
ATOM     18  N   UNL     1     -32.963  26.712   5.733  0.00  0.00    -0.186 NA
ATOM     19  N   UNL     1     -36.004  27.339   2.987  0.00  0.00    -0.332 N 
ATOM     20  C   UNL     1     -35.119  26.111   4.848  0.00  0.00    +0.062 C 
ATOM     21  C   UNL     1     -34.965  27.125   3.925  0.00  0.00    +0.187 C 
ATOM     22  C   UNL     1     -34.075  25.950   5.737  0.00  0.00    +0.111 C 
ATOM     23  C   UNL     1     -32.931  27.667   4.784  0.00  0.00    +0.066 C 
ATOM     24  C   UNL     1     -31.716  28.531   4.749  0.00  0.00    +0.129 C 
ATOM     25  H   UNL     1     -35.921  28.056   2.316  0.00  0.00    +0.145 HD
ATOM     26  H   UNL     1     -36.808  26.773   3.004  0.00  0.00    +0.145 HD
ENDBRANCH  16  20
ENDBRANCH   2  16
TORSDOF 10
ENDMDL
MODEL 2
REMARK VINA RESULT:      -5.1      1.594      1.704
REMARK  Name = 5355019
REMARK  10 active torsions:
REMARK  status: ('A' for Active; 'I' for Inactive)
REMARK    1  A    between atoms: N_2  and  C_4
REMARK    2  A    between atoms: N_2  and  C_16
REMARK    3  A    between atoms: C_5  and  S_7
REMARK    4  A    between atoms: C_5  and  C_12
REMARK    5  A    between atoms: S_7  and  S_8
REMARK    6  A    between atoms: S_8  and  C_9
REMARK    7  A    between atoms: C_9  and  C_10
REMARK    8  A    between atoms: C_12  and  C_13
REMARK    9  A    between atoms: C_13  and  O_14
REMARK   10  A    between atoms: C_16  and  C_20
REMARK                            x       y       z     vdW  Elec       q    Type
REMARK                         _______ _______ _______ _____ _____    ______ ____
ROOT
ATOM      1  O   UNL     1     -35.836  22.519   6.201  0.00  0.00    -0.265 OA
ATOM      2  N   UNL     1     -36.144  23.454   4.072  0.00  0.00    -0.250 N 
ATOM      3  C   UNL     1     -35.826  22.450   4.976  0.00  0.00    +0.307 C 
ENDROOT
BRANCH   2   4
ATOM      4  C   UNL     1     -36.089  23.232   2.718  0.00  0.00    +0.035 C 
ATOM      5  C   UNL     1     -37.193  22.905   2.002  0.00  0.00    +0.025 C 
ATOM      6  C   UNL     1     -34.702  23.371   2.149  0.00  0.00    +0.048 C 
BRANCH   5   7
ATOM      7  S   UNL     1     -37.070  22.553   0.281  0.00  0.00    -0.059 S 
BRANCH   7   8
ATOM      8  S   UNL     1     -36.830  20.520   0.393  0.00  0.00    -0.078 S 
BRANCH   8   9
ATOM      9  C   UNL     1     -35.034  20.350   0.262  0.00  0.00    +0.069 C 
BRANCH   9  10
ATOM     10  C   UNL     1     -34.463  19.716   1.526  0.00  0.00    +0.013 C 
ATOM     11  C   UNL     1     -33.150  19.004   1.236  0.00  0.00    +0.001 C 
ENDBRANCH   9  10
ENDBRANCH   8   9
ENDBRANCH   7   8
ENDBRANCH   5   7
BRANCH   5  12
ATOM     12  C   UNL     1     -38.579  22.773   2.611  0.00  0.00    +0.066 C 
BRANCH  12  13
ATOM     13  C   UNL     1     -39.615  22.237   1.624  0.00  0.00    +0.142 C 
BRANCH  13  14
ATOM     14  O   UNL     1     -40.195  21.031   2.099  0.00  0.00    -0.382 OA
ATOM     15  H   UNL     1     -40.650  21.199   2.940  0.00  0.00    +0.210 HD
ENDBRANCH  13  14
ENDBRANCH  12  13
ENDBRANCH   5  12
ENDBRANCH   2   4
BRANCH   2  16
ATOM     16  C   UNL     1     -36.546  24.773   4.534  0.00  0.00    +0.130 C 
BRANCH  16  20
ATOM     17  N   UNL     1     -34.253  27.697   3.772  0.00  0.00    -0.340 NA
ATOM     18  N   UNL     1     -33.286  26.376   5.540  0.00  0.00    -0.186 NA
ATOM     19  N   UNL     1     -36.328  27.070   2.811  0.00  0.00    -0.332 N 
ATOM     20  C   UNL     1     -35.391  25.733   4.569  0.00  0.00    +0.062 C 
ATOM     21  C   UNL     1     -35.289  26.833   3.744  0.00  0.00    +0.187 C 
ATOM     22  C   UNL     1     -34.350  25.553   5.457  0.00  0.00    +0.111 C 
ATOM     23  C   UNL     1     -33.301  27.414   4.682  0.00  0.00    +0.066 C 
ATOM     24  C   UNL     1     -32.139  28.347   4.744  0.00  0.00    +0.129 C 
ATOM     25  H   UNL     1     -36.280  27.848   2.209  0.00  0.00    +0.145 HD
ATOM     26  H   UNL     1     -37.097  26.458   2.765  0.00  0.00    +0.145 HD
ENDBRANCH  16  20
ENDBRANCH   2  16
TORSDOF 10
ENDMDL
MODEL 3
REMARK VINA RESULT:      -4.9      2.801      3.922
REMARK  Name = 5355019
REMARK  10 active torsions:
REMARK  status: ('A' for Active; 'I' for Inactive)
REMARK    1  A    between atoms: N_2  and  C_4
REMARK    2  A    between atoms: N_2  and  C_16
REMARK    3  A    between atoms: C_5  and  S_7
REMARK    4  A    between atoms: C_5  and  C_12
REMARK    5  A    between atoms: S_7  and  S_8
REMARK    6  A    between atoms: S_8  and  C_9
REMARK    7  A    between atoms: C_9  and  C_10
REMARK    8  A    between atoms: C_12  and  C_13
REMARK    9  A    between atoms: C_13  and  O_14
REMARK   10  A    between atoms: C_16  and  C_20
REMARK                            x       y       z     vdW  Elec       q    Type
REMARK                         _______ _______ _______ _____ _____    ______ ____
ROOT
ATOM      1  O   UNL     1     -38.305  27.019   1.660  0.00  0.00    -0.265 OA
ATOM      2  N   UNL     1     -36.964  25.155   1.179  0.00  0.00    -0.250 N 
ATOM      3  C   UNL     1     -38.095  25.954   1.087  0.00  0.00    +0.307 C 
ENDROOT
BRANCH   2   4
ATOM      4  C   UNL     1     -36.867  23.980   0.475  0.00  0.00    +0.035 C 
ATOM      5  C   UNL     1     -37.545  22.867   0.849  0.00  0.00    +0.025 C 
ATOM      6  C   UNL     1     -35.938  24.069  -0.705  0.00  0.00    +0.048 C 
BRANCH   5   7
ATOM      7  S   UNL     1     -37.337  21.357  -0.033  0.00  0.00    -0.059 S 
BRANCH   7   8
ATOM      8  S   UNL     1     -36.385  20.271   1.423  0.00  0.00    -0.078 S 
BRANCH   8   9
ATOM      9  C   UNL     1     -34.645  20.581   1.039  0.00  0.00    +0.069 C 
BRANCH   9  10
ATOM     10  C   UNL     1     -33.811  19.330   1.293  0.00  0.00    +0.013 C 
ATOM     11  C   UNL     1     -32.420  19.467   0.689  0.00  0.00    +0.001 C 
ENDBRANCH   9  10
ENDBRANCH   8   9
ENDBRANCH   7   8
ENDBRANCH   5   7
BRANCH   5  12
ATOM     12  C   UNL     1     -38.475  22.813   2.049  0.00  0.00    +0.066 C 
BRANCH  12  13
ATOM     13  C   UNL     1     -39.900  22.403   1.680  0.00  0.00    +0.142 C 
BRANCH  13  14
ATOM     14  O   UNL     1     -40.164  21.065   2.079  0.00  0.00    -0.382 OA
ATOM     15  H   UNL     1     -40.633  20.602   1.367  0.00  0.00    +0.210 HD
ENDBRANCH  13  14
ENDBRANCH  12  13
ENDBRANCH   5  12
ENDBRANCH   2   4
BRANCH   2  16
ATOM     16  C   UNL     1     -35.847  25.541   2.027  0.00  0.00    +0.130 C 
BRANCH  16  20
ATOM     17  N   UNL     1     -36.265  24.165   5.538  0.00  0.00    -0.340 NA
ATOM     18  N   UNL     1     -34.848  22.682   4.274  0.00  0.00    -0.186 NA
ATOM     19  N   UNL     1     -37.145  26.123   4.531  0.00  0.00    -0.332 N 
ATOM     20  C   UNL     1     -35.737  24.667   3.244  0.00  0.00    +0.062 C 
ATOM     21  C   UNL     1     -36.360  24.947   4.443  0.00  0.00    +0.187 C 
ATOM     22  C   UNL     1     -34.987  23.509   3.218  0.00  0.00    +0.111 C 
ATOM     23  C   UNL     1     -35.504  23.064   5.386  0.00  0.00    +0.066 C 
ATOM     24  C   UNL     1     -35.374  22.174   6.575  0.00  0.00    +0.129 C 
ATOM     25  H   UNL     1     -37.601  26.348   5.374  0.00  0.00    +0.145 HD
ATOM     26  H   UNL     1     -37.235  26.715   3.750  0.00  0.00    +0.145 HD
ENDBRANCH  16  20
ENDBRANCH   2  16
TORSDOF 10
ENDMDL
MODEL 4
REMARK VINA RESULT:      -4.9      1.340      2.022
REMARK  Name = 5355019
REMARK  10 active torsions:
REMARK  status: ('A' for Active; 'I' for Inactive)
REMARK    1  A    between atoms: N_2  and  C_4
REMARK    2  A    between atoms: N_2  and  C_16
REMARK    3  A    between atoms: C_5  and  S_7
REMARK    4  A    between atoms: C_5  and  C_12
REMARK    5  A    between atoms: S_7  and  S_8
REMARK    6  A    between atoms: S_8  and  C_9
REMARK    7  A    between atoms: C_9  and  C_10
REMARK    8  A    between atoms: C_12  and  C_13
REMARK    9  A    between atoms: C_13  and  O_14
REMARK   10  A    between atoms: C_16  and  C_20
REMARK                            x       y       z     vdW  Elec       q    Type
REMARK                         _______ _______ _______ _____ _____    ______ ____
ROOT
ATOM      1  O   UNL     1     -35.793  22.640   6.257  0.00  0.00    -0.265 OA
ATOM      2  N   UNL     1     -36.177  23.812   4.261  0.00  0.00    -0.250 N 
ATOM      3  C   UNL     1     -35.885  22.697   5.034  0.00  0.00    +0.307 C 
ENDROOT
BRANCH   2   4
ATOM      4  C   UNL     1     -36.247  23.726   2.892  0.00  0.00    +0.035 C 
ATOM      5  C   UNL     1     -37.424  23.838   2.230  0.00  0.00    +0.025 C 
ATOM      6  C   UNL     1     -34.911  23.484   2.242  0.00  0.00    +0.048 C 
BRANCH   5   7
ATOM      7  S   UNL     1     -37.487  23.648   0.481  0.00  0.00    -0.059 S 
BRANCH   7   8
ATOM      8  S   UNL     1     -37.874  21.637   0.397  0.00  0.00    -0.078 S 
BRANCH   8   9
ATOM      9  C   UNL     1     -39.646  21.615   0.031  0.00  0.00    +0.069 C 
BRANCH   9  10
ATOM     10  C   UNL     1     -40.053  22.883  -0.712  0.00  0.00    +0.013 C 
ATOM     11  C   UNL     1     -41.322  23.481  -0.119  0.00  0.00    +0.001 C 
ENDBRANCH   9  10
ENDBRANCH   8   9
ENDBRANCH   7   8
ENDBRANCH   5   7
BRANCH   5  12
ATOM     12  C   UNL     1     -38.756  24.083   2.920  0.00  0.00    +0.066 C 
BRANCH  12  13
ATOM     13  C   UNL     1     -39.425  25.385   2.481  0.00  0.00    +0.142 C 
BRANCH  13  14
ATOM     14  O   UNL     1     -39.063  26.458   3.337  0.00  0.00    -0.382 OA
ATOM     15  H   UNL     1     -38.607  26.109   4.119  0.00  0.00    +0.210 HD
ENDBRANCH  13  14
ENDBRANCH  12  13
ENDBRANCH   5  12
ENDBRANCH   2   4
BRANCH   2  16
ATOM     16  C   UNL     1     -36.416  25.106   4.881  0.00  0.00    +0.130 C 
BRANCH  16  20
ATOM     17  N   UNL     1     -33.974  27.807   3.818  0.00  0.00    -0.340 NA
ATOM     18  N   UNL     1     -33.051  26.602   5.690  0.00  0.00    -0.186 NA
ATOM     19  N   UNL     1     -36.099  27.216   2.947  0.00  0.00    -0.332 N 
ATOM     20  C   UNL     1     -35.208  25.995   4.811  0.00  0.00    +0.062 C 
ATOM     21  C   UNL     1     -35.057  27.006   3.884  0.00  0.00    +0.187 C 
ATOM     22  C   UNL     1     -34.162  25.838   5.698  0.00  0.00    +0.111 C 
ATOM     23  C   UNL     1     -33.023  27.555   4.738  0.00  0.00    +0.066 C 
ATOM     24  C   UNL     1     -31.809  28.420   4.697  0.00  0.00    +0.129 C 
ATOM     25  H   UNL     1     -36.018  27.930   2.273  0.00  0.00    +0.145 HD
ATOM     26  H   UNL     1     -36.902  26.648   2.968  0.00  0.00    +0.145 HD
ENDBRANCH  16  20
ENDBRANCH   2  16
TORSDOF 10
ENDMDL
MODEL 5
REMARK VINA RESULT:      -4.7      2.500      3.781
REMARK  Name = 5355019
REMARK  10 active torsions:
REMARK  status: ('A' for Active; 'I' for Inactive)
REMARK    1  A    between atoms: N_2  and  C_4
REMARK    2  A    between atoms: N_2  and  C_16
REMARK    3  A    between atoms: C_5  and  S_7
REMARK    4  A    between atoms: C_5  and  C_12
REMARK    5  A    between atoms: S_7  and  S_8
REMARK    6  A    between atoms: S_8  and  C_9
REMARK    7  A    between atoms: C_9  and  C_10
REMARK    8  A    between atoms: C_12  and  C_13
REMARK    9  A    between atoms: C_13  and  O_14
REMARK   10  A    between atoms: C_16  and  C_20
REMARK                            x       y       z     vdW  Elec       q    Type
REMARK                         _______ _______ _______ _____ _____    ______ ____
ROOT
ATOM      1  O   UNL     1     -38.696  24.922   1.406  0.00  0.00    -0.265 OA
ATOM      2  N   UNL     1     -36.576  23.944   1.636  0.00  0.00    -0.250 N 
ATOM      3  C   UNL     1     -37.605  24.584   0.959  0.00  0.00    +0.307 C 
ENDROOT
BRANCH   2   4
ATOM      4  C   UNL     1     -35.401  23.624   1.002  0.00  0.00    +0.035 C 
ATOM      5  C   UNL     1     -35.106  22.349   0.649  0.00  0.00    +0.025 C 
ATOM      6  C   UNL     1     -34.507  24.812   0.770  0.00  0.00    +0.048 C 
BRANCH   5   7
ATOM      7  S   UNL     1     -33.556  21.964  -0.094  0.00  0.00    -0.059 S 
BRANCH   7   8
ATOM      8  S   UNL     1     -34.166  20.436  -1.317  0.00  0.00    -0.078 S 
BRANCH   8   9
ATOM      9  C   UNL     1     -33.085  19.084  -0.790  0.00  0.00    +0.069 C 
BRANCH   9  10
ATOM     10  C   UNL     1     -32.510  19.369   0.593  0.00  0.00    +0.013 C 
ATOM     11  C   UNL     1     -32.191  18.076   1.331  0.00  0.00    +0.001 C 
ENDBRANCH   9  10
ENDBRANCH   8   9
ENDBRANCH   7   8
ENDBRANCH   5   7
BRANCH   5  12
ATOM     12  C   UNL     1     -36.034  21.172   0.899  0.00  0.00    +0.066 C 
BRANCH  12  13
ATOM     13  C   UNL     1     -35.667  20.379   2.152  0.00  0.00    +0.142 C 
BRANCH  13  14
ATOM     14  O   UNL     1     -36.816  19.772   2.725  0.00  0.00    -0.382 OA
ATOM     15  H   UNL     1     -37.432  20.460   3.022  0.00  0.00    +0.210 HD
ENDBRANCH  13  14
ENDBRANCH  12  13
ENDBRANCH   5  12
ENDBRANCH   2   4
BRANCH   2  16
ATOM     16  C   UNL     1     -36.714  23.593   3.041  0.00  0.00    +0.130 C 
BRANCH  16  20
ATOM     17  N   UNL     1     -35.453  26.438   5.211  0.00  0.00    -0.340 NA
ATOM     18  N   UNL     1     -33.751  24.738   5.072  0.00  0.00    -0.186 NA
ATOM     19  N   UNL     1     -37.519  26.155   4.081  0.00  0.00    -0.332 N 
ATOM     20  C   UNL     1     -35.844  24.444   3.921  0.00  0.00    +0.062 C 
ATOM     21  C   UNL     1     -36.231  25.671   4.420  0.00  0.00    +0.187 C 
ATOM     22  C   UNL     1     -34.581  24.024   4.285  0.00  0.00    +0.111 C 
ATOM     23  C   UNL     1     -34.243  25.918   5.494  0.00  0.00    +0.066 C 
ATOM     24  C   UNL     1     -33.353  26.737   6.367  0.00  0.00    +0.129 C 
ATOM     25  H   UNL     1     -37.821  27.028   4.422  0.00  0.00    +0.145 HD
ATOM     26  H   UNL     1     -38.111  25.620   3.506  0.00  0.00    +0.145 HD
ENDBRANCH  16  20
ENDBRANCH   2  16
TORSDOF 10
ENDMDL
MODEL 6
REMARK VINA RESULT:      -4.7      3.263      6.235
REMARK  Name = 5355019
REMARK  10 active torsions:
REMARK  status: ('A' for Active; 'I' for Inactive)
REMARK    1  A    between atoms: N_2  and  C_4
REMARK    2  A    between atoms: N_2  and  C_16
REMARK    3  A    between atoms: C_5  and  S_7
REMARK    4  A    between atoms: C_5  and  C_12
REMARK    5  A    between atoms: S_7  and  S_8
REMARK    6  A    between atoms: S_8  and  C_9
REMARK    7  A    between atoms: C_9  and  C_10
REMARK    8  A    between atoms: C_12  and  C_13
REMARK    9  A    between atoms: C_13  and  O_14
REMARK   10  A    between atoms: C_16  and  C_20
REMARK                            x       y       z     vdW  Elec       q    Type
REMARK                         _______ _______ _______ _____ _____    ______ ____
ROOT
ATOM      1  O   UNL     1     -39.993  20.678   0.392  0.00  0.00    -0.265 OA
ATOM      2  N   UNL     1     -38.593  22.410   1.128  0.00  0.00    -0.250 N 
ATOM      3  C   UNL     1     -38.995  21.382   0.285  0.00  0.00    +0.307 C 
ENDROOT
BRANCH   2   4
ATOM      4  C   UNL     1     -37.442  23.118   0.883  0.00  0.00    +0.035 C 
ATOM      5  C   UNL     1     -36.336  22.968   1.652  0.00  0.00    +0.025 C 
ATOM      6  C   UNL     1     -37.559  24.058  -0.286  0.00  0.00    +0.048 C 
BRANCH   5   7
ATOM      7  S   UNL     1     -34.903  23.949   1.356  0.00  0.00    -0.059 S 
BRANCH   7   8
ATOM      8  S   UNL     1     -35.222  25.404   2.764  0.00  0.00    -0.078 S 
BRANCH   8   9
ATOM      9  C   UNL     1     -34.064  24.921   4.067  0.00  0.00    +0.069 C 
BRANCH   9  10
ATOM     10  C   UNL     1     -34.805  24.676   5.377  0.00  0.00    +0.013 C 
ATOM     11  C   UNL     1     -35.768  25.815   5.682  0.00  0.00    +0.001 C 
ENDBRANCH   9  10
ENDBRANCH   8   9
ENDBRANCH   7   8
ENDBRANCH   5   7
BRANCH   5  12
ATOM     12  C   UNL     1     -36.253  22.009   2.827  0.00  0.00    +0.066 C 
BRANCH  12  13
ATOM     13  C   UNL     1     -35.831  20.598   2.417  0.00  0.00    +0.142 C 
BRANCH  13  14
ATOM     14  O   UNL     1     -36.906  19.682   2.562  0.00  0.00    -0.382 OA
ATOM     15  H   UNL     1     -37.289  19.770   3.449  0.00  0.00    +0.210 HD
ENDBRANCH  13  14
ENDBRANCH  12  13
ENDBRANCH   5  12
ENDBRANCH   2   4
BRANCH   2  16
ATOM     16  C   UNL     1     -39.382  22.766   2.297  0.00  0.00    +0.130 C 
BRANCH  16  20
ATOM     17  N   UNL     1     -40.408  26.389   2.757  0.00  0.00    -0.340 NA
ATOM     18  N   UNL     1     -41.693  25.427   0.958  0.00  0.00    -0.186 NA
ATOM     19  N   UNL     1     -38.807  25.078   3.915  0.00  0.00    -0.332 N 
ATOM     20  C   UNL     1     -40.070  24.090   2.129  0.00  0.00    +0.062 C 
ATOM     21  C   UNL     1     -39.793  25.197   2.904  0.00  0.00    +0.187 C 
ATOM     22  C   UNL     1     -41.038  24.266   1.161  0.00  0.00    +0.111 C 
ATOM     23  C   UNL     1     -41.334  26.433   1.778  0.00  0.00    +0.066 C 
ATOM     24  C   UNL     1     -42.036  27.734   1.584  0.00  0.00    +0.129 C 
ATOM     25  H   UNL     1     -38.590  25.852   4.483  0.00  0.00    +0.145 HD
ATOM     26  H   UNL     1     -38.340  24.222   4.048  0.00  0.00    +0.145 HD
ENDBRANCH  16  20
ENDBRANCH   2  16
TORSDOF 10
ENDMDL
MODEL 7
REMARK VINA RESULT:      -4.7      3.491      6.082
REMARK  Name = 5355019
REMARK  10 active torsions:
REMARK  status: ('A' for Active; 'I' for Inactive)
REMARK    1  A    between atoms: N_2  and  C_4
REMARK    2  A    between atoms: N_2  and  C_16
REMARK    3  A    between atoms: C_5  and  S_7
REMARK    4  A    between atoms: C_5  and  C_12
REMARK    5  A    between atoms: S_7  and  S_8
REMARK    6  A    between atoms: S_8  and  C_9
REMARK    7  A    between atoms: C_9  and  C_10
REMARK    8  A    between atoms: C_12  and  C_13
REMARK    9  A    between atoms: C_13  and  O_14
REMARK   10  A    between atoms: C_16  and  C_20
REMARK                            x       y       z     vdW  Elec       q    Type
REMARK                         _______ _______ _______ _____ _____    ______ ____
ROOT
ATOM      1  O   UNL     1     -37.787  25.190  -0.184  0.00  0.00    -0.265 OA
ATOM      2  N   UNL     1     -36.266  25.970   1.422  0.00  0.00    -0.250 N 
ATOM      3  C   UNL     1     -36.683  25.607   0.149  0.00  0.00    +0.307 C 
ENDROOT
BRANCH   2   4
ATOM      4  C   UNL     1     -34.990  26.422   1.649  0.00  0.00    +0.035 C 
ATOM      5  C   UNL     1     -34.731  27.726   1.911  0.00  0.00    +0.025 C 
ATOM      6  C   UNL     1     -33.950  25.338   1.556  0.00  0.00    +0.048 C 
BRANCH   5   7
ATOM      7  S   UNL     1     -33.074  28.284   2.121  0.00  0.00    -0.059 S 
BRANCH   7   8
ATOM      8  S   UNL     1     -32.834  27.817   4.102  0.00  0.00    -0.078 S 
BRANCH   8   9
ATOM      9  C   UNL     1     -32.030  29.307   4.740  0.00  0.00    +0.069 C 
BRANCH   9  10
ATOM     10  C   UNL     1     -31.769  29.174   6.237  0.00  0.00    +0.013 C 
ATOM     11  C   UNL     1     -32.220  27.815   6.753  0.00  0.00    +0.001 C 
ENDBRANCH   9  10
ENDBRANCH   8   9
ENDBRANCH   7   8
ENDBRANCH   5   7
BRANCH   5  12
ATOM     12  C   UNL     1     -35.807  28.795   1.996  0.00  0.00    +0.066 C 
BRANCH  12  13
ATOM     13  C   UNL     1     -35.245  30.187   2.280  0.00  0.00    +0.142 C 
BRANCH  13  14
ATOM     14  O   UNL     1     -35.547  30.598   3.605  0.00  0.00    -0.382 OA
ATOM     15  H   UNL     1     -35.907  31.499   3.591  0.00  0.00    +0.210 HD
ENDBRANCH  13  14
ENDBRANCH  12  13
ENDBRANCH   5  12
ENDBRANCH   2   4
BRANCH   2  16
ATOM     16  C   UNL     1     -37.174  25.881   2.556  0.00  0.00    +0.130 C 
BRANCH  16  20
ATOM     17  N   UNL     1     -35.874  24.296   5.748  0.00  0.00    -0.340 NA
ATOM     18  N   UNL     1     -36.293  22.566   4.123  0.00  0.00    -0.186 NA
ATOM     19  N   UNL     1     -36.286  26.567   5.208  0.00  0.00    -0.332 N 
ATOM     20  C   UNL     1     -36.713  24.870   3.567  0.00  0.00    +0.062 C 
ATOM     21  C   UNL     1     -36.288  25.200   4.837  0.00  0.00    +0.187 C 
ATOM     22  C   UNL     1     -36.694  23.524   3.262  0.00  0.00    +0.111 C 
ATOM     23  C   UNL     1     -35.902  23.015   5.331  0.00  0.00    +0.066 C 
ATOM     24  C   UNL     1     -35.451  21.984   6.310  0.00  0.00    +0.129 C 
ATOM     25  H   UNL     1     -35.987  26.832   6.108  0.00  0.00    +0.145 HD
ATOM     26  H   UNL     1     -36.581  27.252   4.567  0.00  0.00    +0.145 HD
ENDBRANCH  16  20
ENDBRANCH   2  16
TORSDOF 10
ENDMDL
MODEL 8
REMARK VINA RESULT:      -4.7      1.746      2.862
REMARK  Name = 5355019
REMARK  10 active torsions:
REMARK  status: ('A' for Active; 'I' for Inactive)
REMARK    1  A    between atoms: N_2  and  C_4
REMARK    2  A    between atoms: N_2  and  C_16
REMARK    3  A    between atoms: C_5  and  S_7
REMARK    4  A    between atoms: C_5  and  C_12
REMARK    5  A    between atoms: S_7  and  S_8
REMARK    6  A    between atoms: S_8  and  C_9
REMARK    7  A    between atoms: C_9  and  C_10
REMARK    8  A    between atoms: C_12  and  C_13
REMARK    9  A    between atoms: C_13  and  O_14
REMARK   10  A    between atoms: C_16  and  C_20
REMARK                            x       y       z     vdW  Elec       q    Type
REMARK                         _______ _______ _______ _____ _____    ______ ____
ROOT
ATOM      1  O   UNL     1     -35.850  22.504   6.111  0.00  0.00    -0.265 OA
ATOM      2  N   UNL     1     -36.169  23.579   4.050  0.00  0.00    -0.250 N 
ATOM      3  C   UNL     1     -35.861  22.513   4.884  0.00  0.00    +0.307 C 
ENDROOT
BRANCH   2   4
ATOM      4  C   UNL     1     -36.138  23.443   2.684  0.00  0.00    +0.035 C 
ATOM      5  C   UNL     1     -37.259  23.175   1.970  0.00  0.00    +0.025 C 
ATOM      6  C   UNL     1     -34.761  23.603   2.101  0.00  0.00    +0.048 C 
BRANCH   5   7
ATOM      7  S   UNL     1     -37.169  22.931   0.228  0.00  0.00    -0.059 S 
BRANCH   7   8
ATOM      8  S   UNL     1     -37.382  24.879  -0.373  0.00  0.00    -0.078 S 
BRANCH   8   9
ATOM      9  C   UNL     1     -39.101  24.908  -0.938  0.00  0.00    +0.069 C 
BRANCH   9  10
ATOM     10  C   UNL     1     -39.851  26.075  -0.306  0.00  0.00    +0.013 C 
ATOM     11  C   UNL     1     -39.353  26.345   1.107  0.00  0.00    +0.001 C 
ENDBRANCH   9  10
ENDBRANCH   8   9
ENDBRANCH   7   8
ENDBRANCH   5   7
BRANCH   5  12
ATOM     12  C   UNL     1     -38.635  23.020   2.593  0.00  0.00    +0.066 C 
BRANCH  12  13
ATOM     13  C   UNL     1     -39.637  22.335   1.663  0.00  0.00    +0.142 C 
BRANCH  13  14
ATOM     14  O   UNL     1     -40.062  21.091   2.200  0.00  0.00    -0.382 OA
ATOM     15  H   UNL     1     -39.577  20.370   1.770  0.00  0.00    +0.210 HD
ENDBRANCH  13  14
ENDBRANCH  12  13
ENDBRANCH   5  12
ENDBRANCH   2   4
BRANCH   2  16
ATOM     16  C   UNL     1     -36.533  24.876   4.602  0.00  0.00    +0.130 C 
BRANCH  16  20
ATOM     17  N   UNL     1     -34.139  27.719   3.847  0.00  0.00    -0.340 NA
ATOM     18  N   UNL     1     -33.291  26.450   5.712  0.00  0.00    -0.186 NA
ATOM     19  N   UNL     1     -36.176  27.097   2.805  0.00  0.00    -0.332 N 
ATOM     20  C   UNL     1     -35.360  25.812   4.660  0.00  0.00    +0.062 C 
ATOM     21  C   UNL     1     -35.190  26.876   3.799  0.00  0.00    +0.187 C 
ATOM     22  C   UNL     1     -34.369  25.646   5.606  0.00  0.00    +0.111 C 
ATOM     23  C   UNL     1     -33.240  27.453   4.815  0.00  0.00    +0.066 C 
ATOM     24  C   UNL     1     -32.062  28.364   4.900  0.00  0.00    +0.129 C 
ATOM     25  H   UNL     1     -36.080  27.849   2.177  0.00  0.00    +0.145 HD
ATOM     26  H   UNL     1     -36.955  26.500   2.743  0.00  0.00    +0.145 HD
ENDBRANCH  16  20
ENDBRANCH   2  16
TORSDOF 10
ENDMDL
MODEL 9
REMARK VINA RESULT:      -4.7      2.416      3.493
REMARK  Name = 5355019
REMARK  10 active torsions:
REMARK  status: ('A' for Active; 'I' for Inactive)
REMARK    1  A    between atoms: N_2  and  C_4
REMARK    2  A    between atoms: N_2  and  C_16
REMARK    3  A    between atoms: C_5  and  S_7
REMARK    4  A    between atoms: C_5  and  C_12
REMARK    5  A    between atoms: S_7  and  S_8
REMARK    6  A    between atoms: S_8  and  C_9
REMARK    7  A    between atoms: C_9  and  C_10
REMARK    8  A    between atoms: C_12  and  C_13
REMARK    9  A    between atoms: C_13  and  O_14
REMARK   10  A    between atoms: C_16  and  C_20
REMARK                            x       y       z     vdW  Elec       q    Type
REMARK                         _______ _______ _______ _____ _____    ______ ____
ROOT
ATOM      1  O   UNL     1     -37.718  25.992   0.663  0.00  0.00    -0.265 OA
ATOM      2  N   UNL     1     -36.936  24.154   1.894  0.00  0.00    -0.250 N 
ATOM      3  C   UNL     1     -37.146  24.909   0.748  0.00  0.00    +0.307 C 
ENDROOT
BRANCH   2   4
ATOM      4  C   UNL     1     -36.276  22.951   1.839  0.00  0.00    +0.035 C 
ATOM      5  C   UNL     1     -36.937  21.771   1.922  0.00  0.00    +0.025 C 
ATOM      6  C   UNL     1     -34.785  23.097   1.700  0.00  0.00    +0.048 C 
BRANCH   5   7
ATOM      7  S   UNL     1     -36.051  20.249   1.925  0.00  0.00    -0.059 S 
BRANCH   7   8
ATOM      8  S   UNL     1     -35.942  19.946  -0.099  0.00  0.00    -0.078 S 
BRANCH   8   9
ATOM      9  C   UNL     1     -34.195  19.529  -0.318  0.00  0.00    +0.069 C 
BRANCH   9  10
ATOM     10  C   UNL     1     -33.456  19.608   1.013  0.00  0.00    +0.013 C 
ATOM     11  C   UNL     1     -32.843  18.264   1.380  0.00  0.00    +0.001 C 
ENDBRANCH   9  10
ENDBRANCH   8   9
ENDBRANCH   7   8
ENDBRANCH   5   7
BRANCH   5  12
ATOM     12  C   UNL     1     -38.446  21.662   2.063  0.00  0.00    +0.066 C 
BRANCH  12  13
ATOM     13  C   UNL     1     -39.172  21.661   0.719  0.00  0.00    +0.142 C 
BRANCH  13  14
ATOM     14  O   UNL     1     -39.850  20.432   0.506  0.00  0.00    -0.382 OA
ATOM     15  H   UNL     1     -40.088  20.041   1.361  0.00  0.00    +0.210 HD
ENDBRANCH  13  14
ENDBRANCH  12  13
ENDBRANCH   5  12
ENDBRANCH   2   4
BRANCH   2  16
ATOM     16  C   UNL     1     -37.411  24.618   3.189  0.00  0.00    +0.130 C 
BRANCH  16  20
ATOM     17  N   UNL     1     -34.725  24.965   5.845  0.00  0.00    -0.340 NA
ATOM     18  N   UNL     1     -34.775  26.969   4.508  0.00  0.00    -0.186 NA
ATOM     19  N   UNL     1     -36.220  23.184   5.384  0.00  0.00    -0.332 N 
ATOM     20  C   UNL     1     -36.296  25.166   4.033  0.00  0.00    +0.062 C 
ATOM     21  C   UNL     1     -35.726  24.477   5.084  0.00  0.00    +0.187 C 
ATOM     22  C   UNL     1     -35.774  26.420   3.788  0.00  0.00    +0.111 C 
ATOM     23  C   UNL     1     -34.302  26.199   5.506  0.00  0.00    +0.066 C 
ATOM     24  C   UNL     1     -33.196  26.773   6.324  0.00  0.00    +0.129 C 
ATOM     25  H   UNL     1     -35.832  22.669   6.129  0.00  0.00    +0.145 HD
ATOM     26  H   UNL     1     -36.950  22.799   4.848  0.00  0.00    +0.145 HD
ENDBRANCH  16  20
ENDBRANCH   2  16
TORSDOF 10
ENDMDL
