MODEL 1
REMARK VINA RESULT:      -6.4      0.000      0.000
REMARK  Name = 5377565
REMARK  8 active torsions:
REMARK  status: ('A' for Active; 'I' for Inactive)
REMARK    1  A    between atoms: C_3  and  O_29
REMARK    2  A    between atoms: C_8  and  C_20
REMARK    3  A    between atoms: C_15  and  C_17
REMARK    4  A    between atoms: C_17  and  O_18
REMARK    5  A    between atoms: C_21  and  C_22
REMARK    6  A    between atoms: C_23  and  C_26
REMARK    7  A    between atoms: C_26  and  O_27
REMARK    8  A    between atoms: O_29  and  C_31
REMARK                            x       y       z     vdW  Elec       q    Type
REMARK                         _______ _______ _______ _____ _____    ______ ____
ROOT
ATOM      1  O   UNL     1     -35.191  25.854   1.730  0.00  0.00    -0.451 OA
ATOM      2  O   UNL     1     -37.089  27.022   2.029  0.00  0.00    -0.250 OA
ATOM      3  C   UNL     1     -36.107  23.843   3.466  0.00  0.00    +0.149 C 
ATOM      4  C   UNL     1     -36.613  25.282   3.660  0.00  0.00    +0.127 C 
ATOM      5  C   UNL     1     -34.586  24.129   3.436  0.00  0.00    +0.078 C 
ATOM      6  C   UNL     1     -35.694  25.846   4.777  0.00  0.00    +0.015 C 
ATOM      7  C   UNL     1     -34.438  24.976   4.728  0.00  0.00    +0.008 C 
ATOM      8  C   UNL     1     -34.161  24.924   2.173  0.00  0.00    +0.158 C 
ATOM      9  C   UNL     1     -36.717  23.091   2.277  0.00  0.00    +0.046 C 
ATOM     10  C   UNL     1     -38.088  25.387   4.098  0.00  0.00    +0.040 C 
ATOM     11  C   UNL     1     -36.340  26.125   2.406  0.00  0.00    +0.320 C 
ATOM     12  C   UNL     1     -38.183  22.678   2.461  0.00  0.00    +0.036 C 
ATOM     13  C   UNL     1     -33.845  23.999   0.986  0.00  0.00    +0.048 C 
ATOM     14  C   UNL     1     -39.131  24.955   3.106  0.00  0.00    -0.023 C 
ATOM     15  C   UNL     1     -39.169  23.806   2.414  0.00  0.00    +0.049 C 
ENDROOT
BRANCH  15  17
ATOM     16  O   UNL     1     -40.652  22.586   1.026  0.00  0.00    -0.245 OA
ATOM     17  C   UNL     1     -40.327  23.649   1.521  0.00  0.00    +0.337 C 
BRANCH  17  18
ATOM     18  O   UNL     1     -40.922  24.858   1.374  0.00  0.00    -0.442 OA
ATOM     19  C   UNL     1     -42.241  24.823   0.822  0.00  0.00    +0.256 C 
ENDBRANCH  17  18
ENDBRANCH  15  17
BRANCH   8  20
ATOM     20  C   UNL     1     -32.910  25.738   2.383  0.00  0.00    +0.013 C 
ATOM     21  C   UNL     1     -32.843  27.065   2.193  0.00  0.00    -0.001 C 
BRANCH  21  22
ATOM     22  C   UNL     1     -31.630  27.832   2.400  0.00  0.00    +0.002 C 
ATOM     23  C   UNL     1     -31.261  28.466   3.529  0.00  0.00    +0.054 C 
ATOM     24  C   UNL     1     -29.991  29.244   3.738  0.00  0.00    +0.038 C 
BRANCH  23  26
ATOM     25  O   UNL     1     -32.104  27.525   5.567  0.00  0.00    -0.245 OA
ATOM     26  C   UNL     1     -32.147  28.417   4.732  0.00  0.00    +0.334 C 
BRANCH  26  27
ATOM     27  O   UNL     1     -32.978  29.481   4.821  0.00  0.00    -0.477 OA
ATOM     28  H   UNL     1     -33.534  29.578   5.569  0.00  0.00    +0.295 HD
ENDBRANCH  26  27
ENDBRANCH  23  26
ENDBRANCH  21  22
ENDBRANCH   8  20
BRANCH   3  29
ATOM     29  O   UNL     1     -36.387  23.064   4.642  0.00  0.00    -0.455 OA
BRANCH  29  31
ATOM     30  O   UNL     1     -35.368  21.111   3.945  0.00  0.00    -0.250 OA
ATOM     31  C   UNL     1     -35.616  21.955   4.796  0.00  0.00    +0.317 C 
ATOM     32  C   UNL     1     -35.096  21.908   6.201  0.00  0.00    +0.121 C 
ENDBRANCH  29  31
ENDBRANCH   3  29
TORSDOF 8
ENDMDL
MODEL 2
REMARK VINA RESULT:      -6.3      0.883      1.291
REMARK  Name = 5377565
REMARK  8 active torsions:
REMARK  status: ('A' for Active; 'I' for Inactive)
REMARK    1  A    between atoms: C_3  and  O_29
REMARK    2  A    between atoms: C_8  and  C_20
REMARK    3  A    between atoms: C_15  and  C_17
REMARK    4  A    between atoms: C_17  and  O_18
REMARK    5  A    between atoms: C_21  and  C_22
REMARK    6  A    between atoms: C_23  and  C_26
REMARK    7  A    between atoms: C_26  and  O_27
REMARK    8  A    between atoms: O_29  and  C_31
REMARK                            x       y       z     vdW  Elec       q    Type
REMARK                         _______ _______ _______ _____ _____    ______ ____
ROOT
ATOM      1  O   UNL     1     -35.434  25.581   1.438  0.00  0.00    -0.451 OA
ATOM      2  O   UNL     1     -37.431  26.600   1.612  0.00  0.00    -0.250 OA
ATOM      3  C   UNL     1     -36.210  23.648   3.325  0.00  0.00    +0.149 C 
ATOM      4  C   UNL     1     -36.842  25.049   3.390  0.00  0.00    +0.127 C 
ATOM      5  C   UNL     1     -34.719  24.063   3.291  0.00  0.00    +0.078 C 
ATOM      6  C   UNL     1     -35.999  25.781   4.468  0.00  0.00    +0.015 C 
ATOM      7  C   UNL     1     -34.672  25.023   4.510  0.00  0.00    +0.008 C 
ATOM      8  C   UNL     1     -34.337  24.785   1.972  0.00  0.00    +0.158 C 
ATOM      9  C   UNL     1     -36.727  22.751   2.194  0.00  0.00    +0.046 C 
ATOM     10  C   UNL     1     -38.329  25.060   3.797  0.00  0.00    +0.040 C 
ATOM     11  C   UNL     1     -36.616  25.806   2.073  0.00  0.00    +0.320 C 
ATOM     12  C   UNL     1     -38.156  22.227   2.393  0.00  0.00    +0.036 C 
ATOM     13  C   UNL     1     -33.918  23.796   0.871  0.00  0.00    +0.048 C 
ATOM     14  C   UNL     1     -39.310  24.457   2.831  0.00  0.00    -0.023 C 
ATOM     15  C   UNL     1     -39.234  23.257   2.237  0.00  0.00    +0.049 C 
ENDROOT
BRANCH  15  17
ATOM     16  O   UNL     1     -41.158  23.747   0.944  0.00  0.00    -0.245 OA
ATOM     17  C   UNL     1     -40.356  22.926   1.345  0.00  0.00    +0.337 C 
BRANCH  17  18
ATOM     18  O   UNL     1     -40.312  21.597   1.078  0.00  0.00    -0.442 OA
ATOM     19  C   UNL     1     -40.632  21.238  -0.270  0.00  0.00    +0.256 C 
ENDBRANCH  17  18
ENDBRANCH  15  17
BRANCH   8  20
ATOM     20  C   UNL     1     -33.165  25.721   2.131  0.00  0.00    +0.013 C 
ATOM     21  C   UNL     1     -33.160  26.988   1.691  0.00  0.00    -0.001 C 
BRANCH  21  22
ATOM     22  C   UNL     1     -32.022  27.873   1.852  0.00  0.00    +0.002 C 
ATOM     23  C   UNL     1     -31.868  28.823   2.794  0.00  0.00    +0.054 C 
ATOM     24  C   UNL     1     -30.675  29.724   2.963  0.00  0.00    +0.038 C 
BRANCH  23  26
ATOM     25  O   UNL     1     -33.867  29.828   3.659  0.00  0.00    -0.245 OA
ATOM     26  C   UNL     1     -32.941  29.043   3.811  0.00  0.00    +0.334 C 
BRANCH  26  27
ATOM     27  O   UNL     1     -32.805  28.257   4.904  0.00  0.00    -0.477 OA
ATOM     28  H   UNL     1     -33.417  28.327   5.609  0.00  0.00    +0.295 HD
ENDBRANCH  26  27
ENDBRANCH  23  26
ENDBRANCH  21  22
ENDBRANCH   8  20
BRANCH   3  29
ATOM     29  O   UNL     1     -36.447  22.947   4.558  0.00  0.00    -0.455 OA
BRANCH  29  31
ATOM     30  O   UNL     1     -35.276  21.032   4.008  0.00  0.00    -0.250 OA
ATOM     31  C   UNL     1     -35.607  21.905   4.799  0.00  0.00    +0.317 C 
ATOM     32  C   UNL     1     -35.127  21.977   6.217  0.00  0.00    +0.121 C 
ENDBRANCH  29  31
ENDBRANCH   3  29
TORSDOF 8
ENDMDL
MODEL 3
REMARK VINA RESULT:      -6.2      1.706      2.371
REMARK  Name = 5377565
REMARK  8 active torsions:
REMARK  status: ('A' for Active; 'I' for Inactive)
REMARK    1  A    between atoms: C_3  and  O_29
REMARK    2  A    between atoms: C_8  and  C_20
REMARK    3  A    between atoms: C_15  and  C_17
REMARK    4  A    between atoms: C_17  and  O_18
REMARK    5  A    between atoms: C_21  and  C_22
REMARK    6  A    between atoms: C_23  and  C_26
REMARK    7  A    between atoms: C_26  and  O_27
REMARK    8  A    between atoms: O_29  and  C_31
REMARK                            x       y       z     vdW  Elec       q    Type
REMARK                         _______ _______ _______ _____ _____    ______ ____
ROOT
ATOM      1  O   UNL     1     -35.864  25.632   1.611  0.00  0.00    -0.451 OA
ATOM      2  O   UNL     1     -38.027  25.636   0.997  0.00  0.00    -0.250 OA
ATOM      3  C   UNL     1     -36.311  23.448   3.322  0.00  0.00    +0.149 C 
ATOM      4  C   UNL     1     -37.473  24.410   3.023  0.00  0.00    +0.127 C 
ATOM      5  C   UNL     1     -35.246  24.488   3.747  0.00  0.00    +0.078 C 
ATOM      6  C   UNL     1     -37.469  25.377   4.237  0.00  0.00    +0.015 C 
ATOM      7  C   UNL     1     -36.051  25.293   4.802  0.00  0.00    +0.008 C 
ATOM      8  C   UNL     1     -34.790  25.382   2.563  0.00  0.00    +0.158 C 
ATOM      9  C   UNL     1     -35.954  22.483   2.186  0.00  0.00    +0.046 C 
ATOM     10  C   UNL     1     -38.851  23.730   2.904  0.00  0.00    +0.040 C 
ATOM     11  C   UNL     1     -37.162  25.265   1.786  0.00  0.00    +0.320 C 
ATOM     12  C   UNL     1     -36.977  21.364   1.948  0.00  0.00    +0.036 C 
ATOM     13  C   UNL     1     -33.626  24.752   1.778  0.00  0.00    +0.048 C 
ATOM     14  C   UNL     1     -39.065  22.811   1.735  0.00  0.00    -0.023 C 
ATOM     15  C   UNL     1     -38.269  21.809   1.332  0.00  0.00    +0.049 C 
ENDROOT
BRANCH  15  17
ATOM     16  O   UNL     1     -39.816  20.491   0.114  0.00  0.00    -0.245 OA
ATOM     17  C   UNL     1     -38.744  21.064   0.156  0.00  0.00    +0.337 C 
BRANCH  17  18
ATOM     18  O   UNL     1     -37.799  21.144  -0.813  0.00  0.00    -0.442 OA
ATOM     19  C   UNL     1     -37.681  19.986  -1.644  0.00  0.00    +0.256 C 
ENDBRANCH  17  18
ENDBRANCH  15  17
BRANCH   8  20
ATOM     20  C   UNL     1     -34.284  26.731   3.005  0.00  0.00    +0.013 C 
ATOM     21  C   UNL     1     -33.087  26.927   3.578  0.00  0.00    -0.001 C 
BRANCH  21  22
ATOM     22  C   UNL     1     -32.617  28.233   3.998  0.00  0.00    +0.002 C 
ATOM     23  C   UNL     1     -32.219  28.586   5.235  0.00  0.00    +0.054 C 
ATOM     24  C   UNL     1     -31.717  29.940   5.656  0.00  0.00    +0.038 C 
BRANCH  23  26
ATOM     25  O   UNL     1     -33.258  27.049   6.755  0.00  0.00    -0.245 OA
ATOM     26  C   UNL     1     -32.237  27.577   6.338  0.00  0.00    +0.334 C 
BRANCH  26  27
ATOM     27  O   UNL     1     -31.002  27.280   6.804  0.00  0.00    -0.477 OA
ATOM     28  H   UNL     1     -30.430  27.966   7.085  0.00  0.00    +0.295 HD
ENDBRANCH  26  27
ENDBRANCH  23  26
ENDBRANCH  21  22
ENDBRANCH   8  20
BRANCH   3  29
ATOM     29  O   UNL     1     -36.627  22.643   4.472  0.00  0.00    -0.455 OA
BRANCH  29  31
ATOM     30  O   UNL     1     -34.959  21.048   4.372  0.00  0.00    -0.250 OA
ATOM     31  C   UNL     1     -35.593  21.911   4.964  0.00  0.00    +0.317 C 
ATOM     32  C   UNL     1     -35.330  22.320   6.382  0.00  0.00    +0.121 C 
ENDBRANCH  29  31
ENDBRANCH   3  29
TORSDOF 8
ENDMDL
MODEL 4
REMARK VINA RESULT:      -6.2      2.755      4.503
REMARK  Name = 5377565
REMARK  8 active torsions:
REMARK  status: ('A' for Active; 'I' for Inactive)
REMARK    1  A    between atoms: C_3  and  O_29
REMARK    2  A    between atoms: C_8  and  C_20
REMARK    3  A    between atoms: C_15  and  C_17
REMARK    4  A    between atoms: C_17  and  O_18
REMARK    5  A    between atoms: C_21  and  C_22
REMARK    6  A    between atoms: C_23  and  C_26
REMARK    7  A    between atoms: C_26  and  O_27
REMARK    8  A    between atoms: O_29  and  C_31
REMARK                            x       y       z     vdW  Elec       q    Type
REMARK                         _______ _______ _______ _____ _____    ______ ____
ROOT
ATOM      1  O   UNL     1     -36.601  25.129   0.820  0.00  0.00    -0.451 OA
ATOM      2  O   UNL     1     -37.915  23.531  -0.062  0.00  0.00    -0.250 OA
ATOM      3  C   UNL     1     -36.404  23.695   3.228  0.00  0.00    +0.149 C 
ATOM      4  C   UNL     1     -37.658  23.518   2.356  0.00  0.00    +0.127 C 
ATOM      5  C   UNL     1     -36.388  25.241   3.308  0.00  0.00    +0.078 C 
ATOM      6  C   UNL     1     -38.691  24.481   2.999  0.00  0.00    +0.015 C 
ATOM      7  C   UNL     1     -37.849  25.509   3.756  0.00  0.00    +0.008 C 
ATOM      8  C   UNL     1     -36.074  25.899   1.938  0.00  0.00    +0.158 C 
ATOM      9  C   UNL     1     -35.143  22.994   2.709  0.00  0.00    +0.046 C 
ATOM     10  C   UNL     1     -38.226  22.084   2.338  0.00  0.00    +0.040 C 
ATOM     11  C   UNL     1     -37.405  24.038   0.934  0.00  0.00    +0.320 C 
ATOM     12  C   UNL     1     -35.160  21.464   2.836  0.00  0.00    +0.036 C 
ATOM     13  C   UNL     1     -34.562  26.059   1.706  0.00  0.00    +0.048 C 
ATOM     14  C   UNL     1     -37.389  21.023   1.680  0.00  0.00    -0.023 C 
ATOM     15  C   UNL     1     -36.091  20.762   1.893  0.00  0.00    +0.049 C 
ENDROOT
BRANCH  15  17
ATOM     16  O   UNL     1     -36.184  19.012   0.299  0.00  0.00    -0.245 OA
ATOM     17  C   UNL     1     -35.538  19.646   1.111  0.00  0.00    +0.337 C 
BRANCH  17  18
ATOM     18  O   UNL     1     -34.239  19.480   1.462  0.00  0.00    -0.442 OA
ATOM     19  C   UNL     1     -33.586  18.358   0.860  0.00  0.00    +0.256 C 
ENDBRANCH  17  18
ENDBRANCH  15  17
BRANCH   8  20
ATOM     20  C   UNL     1     -36.643  27.289   1.809  0.00  0.00    +0.013 C 
ATOM     21  C   UNL     1     -36.118  28.237   1.018  0.00  0.00    -0.001 C 
BRANCH  21  22
ATOM     22  C   UNL     1     -36.679  29.571   0.907  0.00  0.00    +0.002 C 
ATOM     23  C   UNL     1     -36.246  30.681   1.533  0.00  0.00    +0.054 C 
ATOM     24  C   UNL     1     -36.824  32.063   1.397  0.00  0.00    +0.038 C 
BRANCH  23  26
ATOM     25  O   UNL     1     -33.911  30.713   2.081  0.00  0.00    -0.245 OA
ATOM     26  C   UNL     1     -35.071  30.604   2.454  0.00  0.00    +0.334 C 
BRANCH  26  27
ATOM     27  O   UNL     1     -35.422  30.436   3.749  0.00  0.00    -0.477 OA
ATOM     28  H   UNL     1     -34.843  30.713   4.431  0.00  0.00    +0.295 HD
ENDBRANCH  26  27
ENDBRANCH  23  26
ENDBRANCH  21  22
ENDBRANCH   8  20
BRANCH   3  29
ATOM     29  O   UNL     1     -36.652  23.186   4.550  0.00  0.00    -0.455 OA
BRANCH  29  31
ATOM     30  O   UNL     1     -34.976  24.411   5.564  0.00  0.00    -0.250 OA
ATOM     31  C   UNL     1     -35.652  23.398   5.447  0.00  0.00    +0.317 C 
ATOM     32  C   UNL     1     -35.488  22.177   6.300  0.00  0.00    +0.121 C 
ENDBRANCH  29  31
ENDBRANCH   3  29
TORSDOF 8
ENDMDL
MODEL 5
REMARK VINA RESULT:      -5.9      1.515      1.877
REMARK  Name = 5377565
REMARK  8 active torsions:
REMARK  status: ('A' for Active; 'I' for Inactive)
REMARK    1  A    between atoms: C_3  and  O_29
REMARK    2  A    between atoms: C_8  and  C_20
REMARK    3  A    between atoms: C_15  and  C_17
REMARK    4  A    between atoms: C_17  and  O_18
REMARK    5  A    between atoms: C_21  and  C_22
REMARK    6  A    between atoms: C_23  and  C_26
REMARK    7  A    between atoms: C_26  and  O_27
REMARK    8  A    between atoms: O_29  and  C_31
REMARK                            x       y       z     vdW  Elec       q    Type
REMARK                         _______ _______ _______ _____ _____    ______ ____
ROOT
ATOM      1  O   UNL     1     -35.322  26.099   2.087  0.00  0.00    -0.451 OA
ATOM      2  O   UNL     1     -37.399  26.958   2.134  0.00  0.00    -0.250 OA
ATOM      3  C   UNL     1     -36.161  23.880   3.594  0.00  0.00    +0.149 C 
ATOM      4  C   UNL     1     -36.905  25.216   3.758  0.00  0.00    +0.127 C 
ATOM      5  C   UNL     1     -34.714  24.387   3.805  0.00  0.00    +0.078 C 
ATOM      6  C   UNL     1     -36.255  25.844   5.020  0.00  0.00    +0.015 C 
ATOM      7  C   UNL     1     -34.887  25.171   5.133  0.00  0.00    +0.008 C 
ATOM      8  C   UNL     1     -34.237  25.307   2.649  0.00  0.00    +0.158 C 
ATOM      9  C   UNL     1     -36.469  23.116   2.300  0.00  0.00    +0.046 C 
ATOM     10  C   UNL     1     -38.426  25.079   3.969  0.00  0.00    +0.040 C 
ATOM     11  C   UNL     1     -36.584  26.160   2.589  0.00  0.00    +0.320 C 
ATOM     12  C   UNL     1     -37.866  22.483   2.245  0.00  0.00    +0.036 C 
ATOM     13  C   UNL     1     -33.614  24.506   1.493  0.00  0.00    +0.048 C 
ATOM     14  C   UNL     1     -39.235  24.556   2.816  0.00  0.00    -0.023 C 
ATOM     15  C   UNL     1     -38.995  23.455   2.087  0.00  0.00    +0.049 C 
ENDROOT
BRANCH  15  17
ATOM     16  O   UNL     1     -41.150  23.483   1.101  0.00  0.00    -0.245 OA
ATOM     17  C   UNL     1     -39.974  23.181   1.024  0.00  0.00    +0.337 C 
BRANCH  17  18
ATOM     18  O   UNL     1     -39.334  22.562   0.002  0.00  0.00    -0.442 OA
ATOM     19  C   UNL     1     -40.073  21.514  -0.632  0.00  0.00    +0.256 C 
ENDBRANCH  17  18
ENDBRANCH  15  17
BRANCH   8  20
ATOM     20  C   UNL     1     -33.169  26.282   3.075  0.00  0.00    +0.013 C 
ATOM     21  C   UNL     1     -32.829  27.369   2.367  0.00  0.00    -0.001 C 
BRANCH  21  22
ATOM     22  C   UNL     1     -31.797  28.296   2.793  0.00  0.00    +0.002 C 
ATOM     23  C   UNL     1     -30.470  28.166   2.607  0.00  0.00    +0.054 C 
ATOM     24  C   UNL     1     -29.410  29.142   3.037  0.00  0.00    +0.038 C 
BRANCH  23  26
ATOM     25  O   UNL     1     -29.791  26.905   0.683  0.00  0.00    -0.245 OA
ATOM     26  C   UNL     1     -29.935  26.965   1.896  0.00  0.00    +0.334 C 
BRANCH  26  27
ATOM     27  O   UNL     1     -29.592  25.961   2.735  0.00  0.00    -0.477 OA
ATOM     28  H   UNL     1     -29.720  26.058   3.658  0.00  0.00    +0.295 HD
ENDBRANCH  26  27
ENDBRANCH  23  26
ENDBRANCH  21  22
ENDBRANCH   8  20
BRANCH   3  29
ATOM     29  O   UNL     1     -36.486  23.003   4.686  0.00  0.00    -0.455 OA
BRANCH  29  31
ATOM     30  O   UNL     1     -35.276  21.143   4.041  0.00  0.00    -0.250 OA
ATOM     31  C   UNL     1     -35.621  21.971   4.874  0.00  0.00    +0.317 C 
ATOM     32  C   UNL     1     -35.133  21.989   6.291  0.00  0.00    +0.121 C 
ENDBRANCH  29  31
ENDBRANCH   3  29
TORSDOF 8
ENDMDL
MODEL 6
REMARK VINA RESULT:      -5.9      1.554      7.388
REMARK  Name = 5377565
REMARK  8 active torsions:
REMARK  status: ('A' for Active; 'I' for Inactive)
REMARK    1  A    between atoms: C_3  and  O_29
REMARK    2  A    between atoms: C_8  and  C_20
REMARK    3  A    between atoms: C_15  and  C_17
REMARK    4  A    between atoms: C_17  and  O_18
REMARK    5  A    between atoms: C_21  and  C_22
REMARK    6  A    between atoms: C_23  and  C_26
REMARK    7  A    between atoms: C_26  and  O_27
REMARK    8  A    between atoms: O_29  and  C_31
REMARK                            x       y       z     vdW  Elec       q    Type
REMARK                         _______ _______ _______ _____ _____    ______ ____
ROOT
ATOM      1  O   UNL     1     -36.775  26.147   1.471  0.00  0.00    -0.451 OA
ATOM      2  O   UNL     1     -34.842  26.938   0.641  0.00  0.00    -0.250 OA
ATOM      3  C   UNL     1     -35.385  24.693   3.434  0.00  0.00    +0.149 C 
ATOM      4  C   UNL     1     -34.687  24.997   2.097  0.00  0.00    +0.127 C 
ATOM      5  C   UNL     1     -36.697  24.084   2.882  0.00  0.00    +0.078 C 
ATOM      6  C   UNL     1     -34.900  23.701   1.270  0.00  0.00    +0.015 C 
ATOM      7  C   UNL     1     -36.121  23.030   1.900  0.00  0.00    +0.008 C 
ATOM      8  C   UNL     1     -37.574  25.136   2.151  0.00  0.00    +0.158 C 
ATOM      9  C   UNL     1     -35.498  25.881   4.396  0.00  0.00    +0.046 C 
ATOM     10  C   UNL     1     -33.179  25.295   2.217  0.00  0.00    +0.040 C 
ATOM     11  C   UNL     1     -35.422  26.117   1.347  0.00  0.00    +0.320 C 
ATOM     12  C   UNL     1     -34.176  26.308   5.047  0.00  0.00    +0.036 C 
ATOM     13  C   UNL     1     -38.515  25.876   3.117  0.00  0.00    +0.048 C 
ATOM     14  C   UNL     1     -32.783  26.559   2.926  0.00  0.00    -0.023 C 
ATOM     15  C   UNL     1     -33.207  26.987   4.125  0.00  0.00    +0.049 C 
ENDROOT
BRANCH  15  17
ATOM     16  O   UNL     1     -32.988  29.346   4.149  0.00  0.00    -0.245 OA
ATOM     17  C   UNL     1     -32.633  28.263   4.576  0.00  0.00    +0.337 C 
BRANCH  17  18
ATOM     18  O   UNL     1     -31.685  28.000   5.509  0.00  0.00    -0.442 OA
ATOM     19  C   UNL     1     -31.623  28.934   6.591  0.00  0.00    +0.256 C 
ENDBRANCH  17  18
ENDBRANCH  15  17
BRANCH   8  20
ATOM     20  C   UNL     1     -38.476  24.527   1.108  0.00  0.00    +0.013 C 
ATOM     21  C   UNL     1     -39.742  24.152   1.347  0.00  0.00    -0.001 C 
BRANCH  21  22
ATOM     22  C   UNL     1     -40.596  23.567   0.330  0.00  0.00    +0.002 C 
ATOM     23  C   UNL     1     -40.700  22.261   0.021  0.00  0.00    +0.054 C 
ATOM     24  C   UNL     1     -41.602  21.662  -1.024  0.00  0.00    +0.038 C 
BRANCH  23  26
ATOM     25  O   UNL     1     -38.830  20.792   0.336  0.00  0.00    -0.245 OA
ATOM     26  C   UNL     1     -39.880  21.254   0.761  0.00  0.00    +0.334 C 
BRANCH  26  27
ATOM     27  O   UNL     1     -40.399  20.931   1.968  0.00  0.00    -0.477 OA
ATOM     28  H   UNL     1     -41.321  21.005   2.115  0.00  0.00    +0.295 HD
ENDBRANCH  26  27
ENDBRANCH  23  26
ENDBRANCH  21  22
ENDBRANCH   8  20
BRANCH   3  29
ATOM     29  O   UNL     1     -34.674  23.655   4.131  0.00  0.00    -0.455 OA
BRANCH  29  31
ATOM     30  O   UNL     1     -36.152  23.519   5.902  0.00  0.00    -0.250 OA
ATOM     31  C   UNL     1     -35.391  23.010   5.090  0.00  0.00    +0.317 C 
ATOM     32  C   UNL     1     -35.108  21.540   5.012  0.00  0.00    +0.121 C 
ENDBRANCH  29  31
ENDBRANCH   3  29
TORSDOF 8
ENDMDL
MODEL 7
REMARK VINA RESULT:      -5.8      2.958      5.391
REMARK  Name = 5377565
REMARK  8 active torsions:
REMARK  status: ('A' for Active; 'I' for Inactive)
REMARK    1  A    between atoms: C_3  and  O_29
REMARK    2  A    between atoms: C_8  and  C_20
REMARK    3  A    between atoms: C_15  and  C_17
REMARK    4  A    between atoms: C_17  and  O_18
REMARK    5  A    between atoms: C_21  and  C_22
REMARK    6  A    between atoms: C_23  and  C_26
REMARK    7  A    between atoms: C_26  and  O_27
REMARK    8  A    between atoms: O_29  and  C_31
REMARK                            x       y       z     vdW  Elec       q    Type
REMARK                         _______ _______ _______ _____ _____    ______ ____
ROOT
ATOM      1  O   UNL     1     -36.423  23.015   0.067  0.00  0.00    -0.451 OA
ATOM      2  O   UNL     1     -37.416  24.765  -0.938  0.00  0.00    -0.250 OA
ATOM      3  C   UNL     1     -36.685  24.255   2.575  0.00  0.00    +0.149 C 
ATOM      4  C   UNL     1     -36.583  25.133   1.317  0.00  0.00    +0.127 C 
ATOM      5  C   UNL     1     -35.443  23.361   2.340  0.00  0.00    +0.078 C 
ATOM      6  C   UNL     1     -35.083  25.526   1.265  0.00  0.00    +0.015 C 
ATOM      7  C   UNL     1     -34.367  24.447   2.079  0.00  0.00    +0.008 C 
ATOM      8  C   UNL     1     -35.619  22.415   1.122  0.00  0.00    +0.158 C 
ATOM      9  C   UNL     1     -38.037  23.560   2.779  0.00  0.00    +0.046 C 
ATOM     10  C   UNL     1     -37.453  26.406   1.355  0.00  0.00    +0.040 C 
ATOM     11  C   UNL     1     -36.859  24.304   0.055  0.00  0.00    +0.320 C 
ATOM     12  C   UNL     1     -39.183  24.493   3.193  0.00  0.00    +0.036 C 
ATOM     13  C   UNL     1     -36.296  21.090   1.511  0.00  0.00    +0.048 C 
ATOM     14  C   UNL     1     -38.944  26.220   1.332  0.00  0.00    -0.023 C 
ATOM     15  C   UNL     1     -39.674  25.408   2.112  0.00  0.00    +0.049 C 
ENDROOT
BRANCH  15  17
ATOM     16  O   UNL     1     -41.755  24.509   1.422  0.00  0.00    -0.245 OA
ATOM     17  C   UNL     1     -41.125  25.447   1.873  0.00  0.00    +0.337 C 
BRANCH  17  18
ATOM     18  O   UNL     1     -41.587  26.668   2.238  0.00  0.00    -0.442 OA
ATOM     19  C   UNL     1     -42.085  26.754   3.577  0.00  0.00    +0.256 C 
ENDBRANCH  17  18
ENDBRANCH  15  17
BRANCH   8  20
ATOM     20  C   UNL     1     -34.308  22.019   0.491  0.00  0.00    +0.013 C 
ATOM     21  C   UNL     1     -33.661  20.878   0.773  0.00  0.00    -0.001 C 
BRANCH  21  22
ATOM     22  C   UNL     1     -32.400  20.514   0.156  0.00  0.00    +0.002 C 
ATOM     23  C   UNL     1     -31.823  19.297   0.160  0.00  0.00    +0.054 C 
ATOM     24  C   UNL     1     -30.523  18.926  -0.498  0.00  0.00    +0.038 C 
BRANCH  23  26
ATOM     25  O   UNL     1     -33.560  17.675   0.485  0.00  0.00    -0.245 OA
ATOM     26  C   UNL     1     -32.498  18.158   0.853  0.00  0.00    +0.334 C 
BRANCH  26  27
ATOM     27  O   UNL     1     -31.796  17.691   1.912  0.00  0.00    -0.477 OA
ATOM     28  H   UNL     1     -31.660  18.237   2.660  0.00  0.00    +0.295 HD
ENDBRANCH  26  27
ENDBRANCH  23  26
ENDBRANCH  21  22
ENDBRANCH   8  20
BRANCH   3  29
ATOM     29  O   UNL     1     -36.442  25.050   3.748  0.00  0.00    -0.455 OA
BRANCH  29  31
ATOM     30  O   UNL     1     -36.426  23.259   5.208  0.00  0.00    -0.250 OA
ATOM     31  C   UNL     1     -36.025  24.356   4.840  0.00  0.00    +0.317 C 
ATOM     32  C   UNL     1     -34.972  25.147   5.555  0.00  0.00    +0.121 C 
ENDBRANCH  29  31
ENDBRANCH   3  29
TORSDOF 8
ENDMDL
MODEL 8
REMARK VINA RESULT:      -5.7      3.101      7.834
REMARK  Name = 5377565
REMARK  8 active torsions:
REMARK  status: ('A' for Active; 'I' for Inactive)
REMARK    1  A    between atoms: C_3  and  O_29
REMARK    2  A    between atoms: C_8  and  C_20
REMARK    3  A    between atoms: C_15  and  C_17
REMARK    4  A    between atoms: C_17  and  O_18
REMARK    5  A    between atoms: C_21  and  C_22
REMARK    6  A    between atoms: C_23  and  C_26
REMARK    7  A    between atoms: C_26  and  O_27
REMARK    8  A    between atoms: O_29  and  C_31
REMARK                            x       y       z     vdW  Elec       q    Type
REMARK                         _______ _______ _______ _____ _____    ______ ____
ROOT
ATOM      1  O   UNL     1     -35.739  21.836   3.303  0.00  0.00    -0.451 OA
ATOM      2  O   UNL     1     -36.195  22.733   5.313  0.00  0.00    -0.250 OA
ATOM      3  C   UNL     1     -36.102  24.331   2.061  0.00  0.00    +0.149 C 
ATOM      4  C   UNL     1     -36.858  24.030   3.366  0.00  0.00    +0.127 C 
ATOM      5  C   UNL     1     -36.498  23.065   1.262  0.00  0.00    +0.078 C 
ATOM      6  C   UNL     1     -38.259  23.570   2.880  0.00  0.00    +0.015 C 
ATOM      7  C   UNL     1     -38.038  23.094   1.444  0.00  0.00    +0.008 C 
ATOM      8  C   UNL     1     -35.870  21.774   1.854  0.00  0.00    +0.158 C 
ATOM      9  C   UNL     1     -34.608  24.632   2.227  0.00  0.00    +0.046 C 
ATOM     10  C   UNL     1     -37.008  25.240   4.310  0.00  0.00    +0.040 C 
ATOM     11  C   UNL     1     -36.233  22.829   4.090  0.00  0.00    +0.320 C 
ATOM     12  C   UNL     1     -34.294  25.994   2.862  0.00  0.00    +0.036 C 
ATOM     13  C   UNL     1     -34.469  21.498   1.282  0.00  0.00    +0.048 C 
ATOM     14  C   UNL     1     -35.754  25.778   4.941  0.00  0.00    -0.023 C 
ATOM     15  C   UNL     1     -34.605  26.096   4.325  0.00  0.00    +0.049 C 
ENDROOT
BRANCH  15  17
ATOM     16  O   UNL     1     -33.642  26.664   6.414  0.00  0.00    -0.245 OA
ATOM     17  C   UNL     1     -33.546  26.618   5.202  0.00  0.00    +0.337 C 
BRANCH  17  18
ATOM     18  O   UNL     1     -32.504  27.010   4.428  0.00  0.00    -0.442 OA
ATOM     19  C   UNL     1     -32.003  28.322   4.704  0.00  0.00    +0.256 C 
ENDBRANCH  17  18
ENDBRANCH  15  17
BRANCH   8  20
ATOM     20  C   UNL     1     -36.674  20.536   1.547  0.00  0.00    +0.013 C 
ATOM     21  C   UNL     1     -36.666  19.919   0.356  0.00  0.00    -0.001 C 
BRANCH  21  22
ATOM     22  C   UNL     1     -37.446  18.728   0.079  0.00  0.00    +0.002 C 
ATOM     23  C   UNL     1     -36.980  17.543  -0.358  0.00  0.00    +0.054 C 
ATOM     24  C   UNL     1     -37.796  16.308  -0.626  0.00  0.00    +0.038 C 
BRANCH  23  26
ATOM     25  O   UNL     1     -34.970  17.647  -1.664  0.00  0.00    -0.245 OA
ATOM     26  C   UNL     1     -35.516  17.367  -0.606  0.00  0.00    +0.334 C 
BRANCH  26  27
ATOM     27  O   UNL     1     -34.849  16.898   0.474  0.00  0.00    -0.477 OA
ATOM     28  H   UNL     1     -35.323  16.630   1.236  0.00  0.00    +0.295 HD
ENDBRANCH  26  27
ENDBRANCH  23  26
ENDBRANCH  21  22
ENDBRANCH   8  20
BRANCH   3  29
ATOM     29  O   UNL     1     -36.689  25.468   1.407  0.00  0.00    -0.455 OA
BRANCH  29  31
ATOM     30  O   UNL     1     -35.851  24.944  -0.682  0.00  0.00    -0.250 OA
ATOM     31  C   UNL     1     -36.183  25.750   0.176  0.00  0.00    +0.317 C 
ATOM     32  C   UNL     1     -36.086  27.237   0.013  0.00  0.00    +0.121 C 
ENDBRANCH  29  31
ENDBRANCH   3  29
TORSDOF 8
ENDMDL
MODEL 9
REMARK VINA RESULT:      -5.7      2.275      4.427
REMARK  Name = 5377565
REMARK  8 active torsions:
REMARK  status: ('A' for Active; 'I' for Inactive)
REMARK    1  A    between atoms: C_3  and  O_29
REMARK    2  A    between atoms: C_8  and  C_20
REMARK    3  A    between atoms: C_15  and  C_17
REMARK    4  A    between atoms: C_17  and  O_18
REMARK    5  A    between atoms: C_21  and  C_22
REMARK    6  A    between atoms: C_23  and  C_26
REMARK    7  A    between atoms: C_26  and  O_27
REMARK    8  A    between atoms: O_29  and  C_31
REMARK                            x       y       z     vdW  Elec       q    Type
REMARK                         _______ _______ _______ _____ _____    ______ ____
ROOT
ATOM      1  O   UNL     1     -33.539  25.129   2.756  0.00  0.00    -0.451 OA
ATOM      2  O   UNL     1     -32.848  24.485   0.716  0.00  0.00    -0.250 OA
ATOM      3  C   UNL     1     -36.141  24.218   2.207  0.00  0.00    +0.149 C 
ATOM      4  C   UNL     1     -35.250  24.678   1.040  0.00  0.00    +0.127 C 
ATOM      5  C   UNL     1     -35.991  25.459   3.121  0.00  0.00    +0.078 C 
ATOM      6  C   UNL     1     -35.697  26.144   0.793  0.00  0.00    +0.015 C 
ATOM      7  C   UNL     1     -36.330  26.588   2.112  0.00  0.00    +0.008 C 
ATOM      8  C   UNL     1     -34.553  25.603   3.688  0.00  0.00    +0.158 C 
ATOM      9  C   UNL     1     -35.787  22.848   2.798  0.00  0.00    +0.046 C 
ATOM     10  C   UNL     1     -35.420  23.858  -0.254  0.00  0.00    +0.040 C 
ATOM     11  C   UNL     1     -33.779  24.740   1.475  0.00  0.00    +0.320 C 
ATOM     12  C   UNL     1     -36.138  21.653   1.902  0.00  0.00    +0.036 C 
ATOM     13  C   UNL     1     -34.367  24.818   4.998  0.00  0.00    +0.048 C 
ATOM     14  C   UNL     1     -34.964  22.426  -0.225  0.00  0.00    -0.023 C 
ATOM     15  C   UNL     1     -35.270  21.494   0.690  0.00  0.00    +0.049 C 
ENDROOT
BRANCH  15  17
ATOM     16  O   UNL     1     -34.682  19.621  -0.637  0.00  0.00    -0.245 OA
ATOM     17  C   UNL     1     -34.688  20.164   0.451  0.00  0.00    +0.337 C 
BRANCH  17  18
ATOM     18  O   UNL     1     -34.188  19.699   1.623  0.00  0.00    -0.442 OA
ATOM     19  C   UNL     1     -33.211  18.661   1.496  0.00  0.00    +0.256 C 
ENDBRANCH  17  18
ENDBRANCH  15  17
BRANCH   8  20
ATOM     20  C   UNL     1     -34.194  27.027   4.027  0.00  0.00    +0.013 C 
ATOM     21  C   UNL     1     -32.947  27.517   3.959  0.00  0.00    -0.001 C 
BRANCH  21  22
ATOM     22  C   UNL     1     -32.620  28.891   4.290  0.00  0.00    +0.002 C 
ATOM     23  C   UNL     1     -31.893  29.315   5.340  0.00  0.00    +0.054 C 
ATOM     24  C   UNL     1     -31.545  30.742   5.664  0.00  0.00    +0.038 C 
BRANCH  23  26
ATOM     25  O   UNL     1     -30.214  27.837   6.207  0.00  0.00    -0.245 OA
ATOM     26  C   UNL     1     -31.333  28.321   6.306  0.00  0.00    +0.334 C 
BRANCH  26  27
ATOM     27  O   UNL     1     -32.179  28.036   7.323  0.00  0.00    -0.477 OA
ATOM     28  H   UNL     1     -33.058  28.360   7.305  0.00  0.00    +0.295 HD
ENDBRANCH  26  27
ENDBRANCH  23  26
ENDBRANCH  21  22
ENDBRANCH   8  20
BRANCH   3  29
ATOM     29  O   UNL     1     -37.511  24.148   1.777  0.00  0.00    -0.455 OA
BRANCH  29  31
ATOM     30  O   UNL     1     -38.404  24.429   3.890  0.00  0.00    -0.250 OA
ATOM     31  C   UNL     1     -38.416  23.937   2.769  0.00  0.00    +0.317 C 
ATOM     32  C   UNL     1     -39.465  22.983   2.284  0.00  0.00    +0.121 C 
ENDBRANCH  29  31
ENDBRANCH   3  29
TORSDOF 8
ENDMDL
