MODEL 1
REMARK VINA RESULT:      -6.9      0.000      0.000
REMARK  Name = 216235
REMARK  6 active torsions:
REMARK  status: ('A' for Active; 'I' for Inactive)
REMARK    1  A    between atoms: C_2  and  S_6
REMARK    2  A    between atoms: C_3  and  C_19
REMARK    3  A    between atoms: S_6  and  N_9
REMARK    4  A    between atoms: N_9  and  C_14
REMARK    5  A    between atoms: C_19  and  C_20
REMARK    6  A    between atoms: C_20  and  C_23
REMARK                            x       y       z     vdW  Elec       q    Type
REMARK                         _______ _______ _______ _____ _____    ______ ____
ROOT
ATOM      1  S   UNL     1     -40.827  23.928   0.254  0.00  0.00    -0.082 S 
ATOM      2  C   UNL     1     -38.731  25.236   0.959  0.00  0.00    +0.134 C 
ATOM      3  C   UNL     1     -40.043  25.070   1.225  0.00  0.00    +0.083 C 
ATOM      4  C   UNL     1     -38.323  24.381  -0.105  0.00  0.00    +0.028 C 
ATOM      5  C   UNL     1     -39.365  23.615  -0.581  0.00  0.00    +0.037 C 
ENDROOT
BRANCH   2   6
ATOM      6  S   UNL     1     -37.663  26.314   1.764  0.00  0.00    +0.076 S 
ATOM      7  O   UNL     1     -38.167  27.632   1.401  0.00  0.00    -0.150 OA
ATOM      8  O   UNL     1     -36.327  25.886   1.367  0.00  0.00    -0.150 OA
BRANCH   6   9
ATOM      9  N   UNL     1     -37.824  26.081   3.474  0.00  0.00    -0.182 N 
ATOM     10  H   UNL     1     -38.303  26.710   4.060  0.00  0.00    +0.177 HD
BRANCH   9  14
ATOM     11 CL   UNL     1     -35.398  26.068   5.711  0.00  0.00    -0.076 Cl
ATOM     12  O   UNL     1     -37.511  23.618   3.560  0.00  0.00    -0.336 OA
ATOM     13  N   UNL     1     -36.710  22.699   4.225  0.00  0.00    -0.079 NA
ATOM     14  C   UNL     1     -37.171  24.847   3.975  0.00  0.00    +0.255 A 
ATOM     15  C   UNL     1     -36.177  24.811   4.889  0.00  0.00    +0.127 A 
ATOM     16  C   UNL     1     -35.920  23.434   5.013  0.00  0.00    +0.113 A 
ATOM     17  C   UNL     1     -34.929  22.763   5.872  0.00  0.00    +0.057 C 
ENDBRANCH   9  14
ENDBRANCH   6   9
ENDBRANCH   2   6
BRANCH   3  19
ATOM     18  O   UNL     1     -40.719  25.526   3.451  0.00  0.00    -0.290 OA
ATOM     19  C   UNL     1     -40.854  25.755   2.247  0.00  0.00    +0.185 C 
BRANCH  19  20
ATOM     20  C   UNL     1     -41.894  26.782   1.784  0.00  0.00    +0.096 C 
BRANCH  20  23
ATOM     21  O   UNL     1     -42.931  29.777   5.556  0.00  0.00    -0.435 OA
ATOM     22  O   UNL     1     -45.088  28.770   5.928  0.00  0.00    -0.435 OA
ATOM     23  C   UNL     1     -42.786  27.274   2.877  0.00  0.00    -0.015 C 
ATOM     24  C   UNL     1     -44.044  26.687   3.094  0.00  0.00    -0.022 C 
ATOM     25  C   UNL     1     -42.346  28.331   3.679  0.00  0.00    +0.036 C 
ATOM     26  C   UNL     1     -43.188  28.768   4.680  0.00  0.00    +0.176 C 
ATOM     27  C   UNL     1     -44.420  28.192   4.894  0.00  0.00    +0.176 C 
ATOM     28  C   UNL     1     -44.878  27.149   4.116  0.00  0.00    +0.036 C 
ATOM     29  C   UNL     1     -44.515  25.558   2.235  0.00  0.00    +0.031 C 
ATOM     30  C   UNL     1     -44.139  29.775   6.343  0.00  0.00    +0.429 C 
ENDBRANCH  20  23
ENDBRANCH  19  20
ENDBRANCH   3  19
TORSDOF 6
ENDMDL
MODEL 2
REMARK VINA RESULT:      -6.7      5.252      9.617
REMARK  Name = 216235
REMARK  6 active torsions:
REMARK  status: ('A' for Active; 'I' for Inactive)
REMARK    1  A    between atoms: C_2  and  S_6
REMARK    2  A    between atoms: C_3  and  C_19
REMARK    3  A    between atoms: S_6  and  N_9
REMARK    4  A    between atoms: N_9  and  C_14
REMARK    5  A    between atoms: C_19  and  C_20
REMARK    6  A    between atoms: C_20  and  C_23
REMARK                            x       y       z     vdW  Elec       q    Type
REMARK                         _______ _______ _______ _____ _____    ______ ____
ROOT
ATOM      1  S   UNL     1     -38.325  22.775   2.222  0.00  0.00    -0.082 S 
ATOM      2  C   UNL     1     -36.628  23.796   3.858  0.00  0.00    +0.134 C 
ATOM      3  C   UNL     1     -36.879  22.711   3.097  0.00  0.00    +0.083 C 
ATOM      4  C   UNL     1     -37.676  24.752   3.730  0.00  0.00    +0.028 C 
ATOM      5  C   UNL     1     -38.664  24.324   2.870  0.00  0.00    +0.037 C 
ENDROOT
BRANCH   2   6
ATOM      6  S   UNL     1     -35.252  24.035   4.857  0.00  0.00    +0.076 S 
ATOM      7  O   UNL     1     -34.133  23.945   3.928  0.00  0.00    -0.150 OA
ATOM      8  O   UNL     1     -35.404  23.074   5.943  0.00  0.00    -0.150 OA
BRANCH   6   9
ATOM      9  N   UNL     1     -35.323  25.631   5.529  0.00  0.00    -0.182 N 
ATOM     10  H   UNL     1     -36.076  25.951   6.077  0.00  0.00    +0.177 HD
BRANCH   9  14
ATOM     11 CL   UNL     1     -34.992  27.298   2.700  0.00  0.00    -0.076 Cl
ATOM     12  O   UNL     1     -33.105  26.632   6.031  0.00  0.00    -0.336 OA
ATOM     13  N   UNL     1     -32.188  27.475   5.418  0.00  0.00    -0.079 NA
ATOM     14  C   UNL     1     -34.147  26.473   5.201  0.00  0.00    +0.255 A 
ATOM     15  C   UNL     1     -33.984  27.165   4.052  0.00  0.00    +0.127 A 
ATOM     16  C   UNL     1     -32.733  27.781   4.237  0.00  0.00    +0.113 A 
ATOM     17  C   UNL     1     -32.009  28.674   3.316  0.00  0.00    +0.057 C 
ENDBRANCH   9  14
ENDBRANCH   6   9
ENDBRANCH   2   6
BRANCH   3  19
ATOM     18  O   UNL     1     -35.450  20.994   3.891  0.00  0.00    -0.290 OA
ATOM     19  C   UNL     1     -36.052  21.501   2.942  0.00  0.00    +0.185 C 
BRANCH  19  20
ATOM     20  C   UNL     1     -35.945  20.865   1.552  0.00  0.00    +0.096 C 
BRANCH  20  23
ATOM     21  O   UNL     1     -32.137  17.739   1.496  0.00  0.00    -0.435 OA
ATOM     22  O   UNL     1     -30.759  19.241   0.211  0.00  0.00    -0.435 OA
ATOM     23  C   UNL     1     -34.553  20.481   1.168  0.00  0.00    -0.015 C 
ATOM     24  C   UNL     1     -33.749  21.357   0.419  0.00  0.00    -0.022 C 
ATOM     25  C   UNL     1     -34.066  19.233   1.566  0.00  0.00    +0.036 C 
ATOM     26  C   UNL     1     -32.778  18.902   1.199  0.00  0.00    +0.176 C 
ATOM     27  C   UNL     1     -31.990  19.760   0.465  0.00  0.00    +0.176 C 
ATOM     28  C   UNL     1     -32.448  20.997   0.059  0.00  0.00    +0.036 C 
ATOM     29  C   UNL     1     -34.271  22.691  -0.010  0.00  0.00    +0.031 C 
ATOM     30  C   UNL     1     -30.858  17.960   0.866  0.00  0.00    +0.429 C 
ENDBRANCH  20  23
ENDBRANCH  19  20
ENDBRANCH   3  19
TORSDOF 6
ENDMDL
MODEL 3
REMARK VINA RESULT:      -6.7      5.785      9.861
REMARK  Name = 216235
REMARK  6 active torsions:
REMARK  status: ('A' for Active; 'I' for Inactive)
REMARK    1  A    between atoms: C_2  and  S_6
REMARK    2  A    between atoms: C_3  and  C_19
REMARK    3  A    between atoms: S_6  and  N_9
REMARK    4  A    between atoms: N_9  and  C_14
REMARK    5  A    between atoms: C_19  and  C_20
REMARK    6  A    between atoms: C_20  and  C_23
REMARK                            x       y       z     vdW  Elec       q    Type
REMARK                         _______ _______ _______ _____ _____    ______ ____
ROOT
ATOM      1  S   UNL     1     -32.519  27.842   0.946  0.00  0.00    -0.082 S 
ATOM      2  C   UNL     1     -33.268  26.541   3.031  0.00  0.00    +0.134 C 
ATOM      3  C   UNL     1     -33.036  27.782   2.555  0.00  0.00    +0.083 C 
ATOM      4  C   UNL     1     -33.011  25.564   2.027  0.00  0.00    +0.028 C 
ATOM      5  C   UNL     1     -32.597  26.135   0.844  0.00  0.00    +0.037 C 
ENDROOT
BRANCH   2   6
ATOM      6  S   UNL     1     -33.799  26.147   4.615  0.00  0.00    +0.076 S 
ATOM      7  O   UNL     1     -32.906  26.910   5.478  0.00  0.00    -0.150 OA
ATOM      8  O   UNL     1     -33.817  24.690   4.655  0.00  0.00    -0.150 OA
BRANCH   6   9
ATOM      9  N   UNL     1     -35.424  26.716   4.814  0.00  0.00    -0.182 N 
ATOM     10  H   UNL     1     -35.652  27.525   5.327  0.00  0.00    +0.177 HD
BRANCH   9  14
ATOM     11 CL   UNL     1     -36.571  27.301   1.775  0.00  0.00    -0.076 Cl
ATOM     12  O   UNL     1     -36.991  24.790   4.712  0.00  0.00    -0.336 OA
ATOM     13  N   UNL     1     -37.897  24.240   3.814  0.00  0.00    -0.079 NA
ATOM     14  C   UNL     1     -36.442  25.873   4.141  0.00  0.00    +0.255 A 
ATOM     15  C   UNL     1     -36.930  26.088   2.899  0.00  0.00    +0.127 A 
ATOM     16  C   UNL     1     -37.844  25.031   2.739  0.00  0.00    +0.113 A 
ATOM     17  C   UNL     1     -38.697  24.729   1.577  0.00  0.00    +0.057 C 
ENDBRANCH   9  14
ENDBRANCH   6   9
ENDBRANCH   2   6
BRANCH   3  19
ATOM     18  O   UNL     1     -34.269  29.452   3.700  0.00  0.00    -0.290 OA
ATOM     19  C   UNL     1     -33.182  29.066   3.264  0.00  0.00    +0.185 C 
BRANCH  19  20
ATOM     20  C   UNL     1     -31.937  29.937   3.457  0.00  0.00    +0.096 C 
BRANCH  20  23
ATOM     21  O   UNL     1     -28.174  27.069   4.832  0.00  0.00    -0.435 OA
ATOM     22  O   UNL     1     -28.261  27.831   7.116  0.00  0.00    -0.435 OA
ATOM     23  C   UNL     1     -30.979  29.407   4.474  0.00  0.00    -0.015 C 
ATOM     24  C   UNL     1     -31.030  29.851   5.807  0.00  0.00    -0.022 C 
ATOM     25  C   UNL     1     -30.030  28.462   4.076  0.00  0.00    +0.036 C 
ATOM     26  C   UNL     1     -29.158  27.988   5.033  0.00  0.00    +0.176 C 
ATOM     27  C   UNL     1     -29.208  28.422   6.338  0.00  0.00    +0.176 C 
ATOM     28  C   UNL     1     -30.134  29.356   6.757  0.00  0.00    +0.036 C 
ATOM     29  C   UNL     1     -32.043  30.865   6.233  0.00  0.00    +0.031 C 
ATOM     30  C   UNL     1     -27.609  26.975   6.156  0.00  0.00    +0.429 C 
ENDBRANCH  20  23
ENDBRANCH  19  20
ENDBRANCH   3  19
TORSDOF 6
ENDMDL
MODEL 4
REMARK VINA RESULT:      -6.7      5.315      9.284
REMARK  Name = 216235
REMARK  6 active torsions:
REMARK  status: ('A' for Active; 'I' for Inactive)
REMARK    1  A    between atoms: C_2  and  S_6
REMARK    2  A    between atoms: C_3  and  C_19
REMARK    3  A    between atoms: S_6  and  N_9
REMARK    4  A    between atoms: N_9  and  C_14
REMARK    5  A    between atoms: C_19  and  C_20
REMARK    6  A    between atoms: C_20  and  C_23
REMARK                            x       y       z     vdW  Elec       q    Type
REMARK                         _______ _______ _______ _____ _____    ______ ____
ROOT
ATOM      1  S   UNL     1     -37.928  22.526   1.691  0.00  0.00    -0.082 S 
ATOM      2  C   UNL     1     -36.698  23.530   3.711  0.00  0.00    +0.134 C 
ATOM      3  C   UNL     1     -36.683  22.503   2.836  0.00  0.00    +0.083 C 
ATOM      4  C   UNL     1     -37.794  24.401   3.443  0.00  0.00    +0.028 C 
ATOM      5  C   UNL     1     -38.544  23.972   2.370  0.00  0.00    +0.037 C 
ENDROOT
BRANCH   2   6
ATOM      6  S   UNL     1     -35.577  23.792   4.984  0.00  0.00    +0.076 S 
ATOM      7  O   UNL     1     -34.280  23.660   4.333  0.00  0.00    -0.150 OA
ATOM      8  O   UNL     1     -35.983  22.871   6.039  0.00  0.00    -0.150 OA
BRANCH   6   9
ATOM      9  N   UNL     1     -35.770  25.411   5.572  0.00  0.00    -0.182 N 
ATOM     10  H   UNL     1     -36.584  25.724   6.028  0.00  0.00    +0.177 HD
BRANCH   9  14
ATOM     11 CL   UNL     1     -35.090  26.782   2.648  0.00  0.00    -0.076 Cl
ATOM     12  O   UNL     1     -33.700  26.594   6.272  0.00  0.00    -0.336 OA
ATOM     13  N   UNL     1     -32.739  27.421   5.705  0.00  0.00    -0.079 NA
ATOM     14  C   UNL     1     -34.596  26.283   5.323  0.00  0.00    +0.255 A 
ATOM     15  C   UNL     1     -34.293  26.857   4.138  0.00  0.00    +0.127 A 
ATOM     16  C   UNL     1     -33.113  27.565   4.430  0.00  0.00    +0.113 A 
ATOM     17  C   UNL     1     -32.299  28.396   3.528  0.00  0.00    +0.057 C 
ENDBRANCH   9  14
ENDBRANCH   6   9
ENDBRANCH   2   6
BRANCH   3  19
ATOM     18  O   UNL     1     -35.552  20.609   3.703  0.00  0.00    -0.290 OA
ATOM     19  C   UNL     1     -35.722  21.389   2.763  0.00  0.00    +0.185 C 
BRANCH  19  20
ATOM     20  C   UNL     1     -34.915  21.206   1.473  0.00  0.00    +0.096 C 
BRANCH  20  23
ATOM     21  O   UNL     1     -37.763  17.672  -0.443  0.00  0.00    -0.435 OA
ATOM     22  O   UNL     1     -35.879  16.272  -0.987  0.00  0.00    -0.435 OA
ATOM     23  C   UNL     1     -35.117  19.879   0.816  0.00  0.00    -0.015 C 
ATOM     24  C   UNL     1     -34.018  19.062   0.499  0.00  0.00    -0.022 C 
ATOM     25  C   UNL     1     -36.419  19.466   0.521  0.00  0.00    +0.036 C 
ATOM     26  C   UNL     1     -36.578  18.238  -0.085  0.00  0.00    +0.176 C 
ATOM     27  C   UNL     1     -35.502  17.437  -0.395  0.00  0.00    +0.176 C 
ATOM     28  C   UNL     1     -34.207  17.822  -0.116  0.00  0.00    +0.036 C 
ATOM     29  C   UNL     1     -32.625  19.506   0.812  0.00  0.00    +0.031 C 
ATOM     30  C   UNL     1     -37.313  16.426  -1.015  0.00  0.00    +0.429 C 
ENDBRANCH  20  23
ENDBRANCH  19  20
ENDBRANCH   3  19
TORSDOF 6
ENDMDL
MODEL 5
REMARK VINA RESULT:      -6.6      5.141      9.273
REMARK  Name = 216235
REMARK  6 active torsions:
REMARK  status: ('A' for Active; 'I' for Inactive)
REMARK    1  A    between atoms: C_2  and  S_6
REMARK    2  A    between atoms: C_3  and  C_19
REMARK    3  A    between atoms: S_6  and  N_9
REMARK    4  A    between atoms: N_9  and  C_14
REMARK    5  A    between atoms: C_19  and  C_20
REMARK    6  A    between atoms: C_20  and  C_23
REMARK                            x       y       z     vdW  Elec       q    Type
REMARK                         _______ _______ _______ _____ _____    ______ ____
ROOT
ATOM      1  S   UNL     1     -38.127  21.127   1.321  0.00  0.00    -0.082 S 
ATOM      2  C   UNL     1     -37.272  22.885   2.988  0.00  0.00    +0.134 C 
ATOM      3  C   UNL     1     -36.978  21.694   2.426  0.00  0.00    +0.083 C 
ATOM      4  C   UNL     1     -38.514  23.379   2.496  0.00  0.00    +0.028 C 
ATOM      5  C   UNL     1     -39.086  22.521   1.582  0.00  0.00    +0.037 C 
ENDROOT
BRANCH   2   6
ATOM      6  S   UNL     1     -36.314  23.723   4.140  0.00  0.00    +0.076 S 
ATOM      7  O   UNL     1     -36.320  22.842   5.301  0.00  0.00    -0.150 OA
ATOM      8  O   UNL     1     -36.893  25.059   4.211  0.00  0.00    -0.150 OA
BRANCH   6   9
ATOM      9  N   UNL     1     -34.699  23.862   3.525  0.00  0.00    -0.182 N 
ATOM     10  H   UNL     1     -34.274  23.169   2.970  0.00  0.00    +0.177 HD
BRANCH   9  14
ATOM     11 CL   UNL     1     -33.897  26.246   1.389  0.00  0.00    -0.076 Cl
ATOM     12  O   UNL     1     -33.659  25.401   5.175  0.00  0.00    -0.336 OA
ATOM     13  N   UNL     1     -33.046  26.647   5.183  0.00  0.00    -0.079 NA
ATOM     14  C   UNL     1     -34.015  25.120   3.913  0.00  0.00    +0.255 A 
ATOM     15  C   UNL     1     -33.675  26.112   3.061  0.00  0.00    +0.127 A 
ATOM     16  C   UNL     1     -33.066  27.053   3.910  0.00  0.00    +0.113 A 
ATOM     17  C   UNL     1     -32.484  28.359   3.559  0.00  0.00    +0.057 C 
ENDBRANCH   9  14
ENDBRANCH   6   9
ENDBRANCH   2   6
BRANCH   3  19
ATOM     18  O   UNL     1     -35.206  20.829   3.741  0.00  0.00    -0.290 OA
ATOM     19  C   UNL     1     -35.792  20.850   2.657  0.00  0.00    +0.185 C 
BRANCH  19  20
ATOM     20  C   UNL     1     -35.284  19.978   1.505  0.00  0.00    +0.096 C 
BRANCH  20  23
ATOM     21  O   UNL     1     -32.711  23.519  -0.757  0.00  0.00    -0.435 OA
ATOM     22  O   UNL     1     -30.756  22.128  -0.987  0.00  0.00    -0.435 OA
ATOM     23  C   UNL     1     -34.049  20.503   0.847  0.00  0.00    -0.015 C 
ATOM     24  C   UNL     1     -32.909  19.691   0.713  0.00  0.00    -0.022 C 
ATOM     25  C   UNL     1     -34.048  21.816   0.369  0.00  0.00    +0.036 C 
ATOM     26  C   UNL     1     -32.896  22.276  -0.233  0.00  0.00    +0.176 C 
ATOM     27  C   UNL     1     -31.780  21.482  -0.365  0.00  0.00    +0.176 C 
ATOM     28  C   UNL     1     -31.754  20.183   0.099  0.00  0.00    +0.036 C 
ATOM     29  C   UNL     1     -32.909  18.288   1.227  0.00  0.00    +0.031 C 
ATOM     30  C   UNL     1     -31.352  23.419  -1.233  0.00  0.00    +0.429 C 
ENDBRANCH  20  23
ENDBRANCH  19  20
ENDBRANCH   3  19
TORSDOF 6
ENDMDL
MODEL 6
REMARK VINA RESULT:      -6.6      5.243      9.604
REMARK  Name = 216235
REMARK  6 active torsions:
REMARK  status: ('A' for Active; 'I' for Inactive)
REMARK    1  A    between atoms: C_2  and  S_6
REMARK    2  A    between atoms: C_3  and  C_19
REMARK    3  A    between atoms: S_6  and  N_9
REMARK    4  A    between atoms: N_9  and  C_14
REMARK    5  A    between atoms: C_19  and  C_20
REMARK    6  A    between atoms: C_20  and  C_23
REMARK                            x       y       z     vdW  Elec       q    Type
REMARK                         _______ _______ _______ _____ _____    ______ ____
ROOT
ATOM      1  S   UNL     1     -38.198  22.411   1.635  0.00  0.00    -0.082 S 
ATOM      2  C   UNL     1     -36.889  23.432   3.595  0.00  0.00    +0.134 C 
ATOM      3  C   UNL     1     -36.895  22.412   2.712  0.00  0.00    +0.083 C 
ATOM      4  C   UNL     1     -38.019  24.277   3.392  0.00  0.00    +0.028 C 
ATOM      5  C   UNL     1     -38.813  23.837   2.357  0.00  0.00    +0.037 C 
ENDROOT
BRANCH   2   6
ATOM      6  S   UNL     1     -35.709  23.713   4.810  0.00  0.00    +0.076 S 
ATOM      7  O   UNL     1     -34.446  23.626   4.090  0.00  0.00    -0.150 OA
ATOM      8  O   UNL     1     -36.032  22.769   5.874  0.00  0.00    -0.150 OA
BRANCH   6   9
ATOM      9  N   UNL     1     -35.917  25.320   5.427  0.00  0.00    -0.182 N 
ATOM     10  H   UNL     1     -36.737  25.619   5.883  0.00  0.00    +0.177 HD
BRANCH   9  14
ATOM     11 CL   UNL     1     -35.261  26.802   2.552  0.00  0.00    -0.076 Cl
ATOM     12  O   UNL     1     -33.846  26.481   6.157  0.00  0.00    -0.336 OA
ATOM     13  N   UNL     1     -32.891  27.332   5.616  0.00  0.00    -0.079 NA
ATOM     14  C   UNL     1     -34.748  26.204   5.204  0.00  0.00    +0.255 A 
ATOM     15  C   UNL     1     -34.454  26.823   4.039  0.00  0.00    +0.127 A 
ATOM     16  C   UNL     1     -33.274  27.522   4.350  0.00  0.00    +0.113 A 
ATOM     17  C   UNL     1     -32.468  28.389   3.474  0.00  0.00    +0.057 C 
ENDBRANCH   9  14
ENDBRANCH   6   9
ENDBRANCH   2   6
BRANCH   3  19
ATOM     18  O   UNL     1     -35.806  20.430   3.424  0.00  0.00    -0.290 OA
ATOM     19  C   UNL     1     -35.911  21.323   2.580  0.00  0.00    +0.185 C 
BRANCH  19  20
ATOM     20  C   UNL     1     -34.997  21.312   1.351  0.00  0.00    +0.096 C 
BRANCH  20  23
ATOM     21  O   UNL     1     -32.113  17.329   1.048  0.00  0.00    -0.435 OA
ATOM     22  O   UNL     1     -33.629  16.187  -0.437  0.00  0.00    -0.435 OA
ATOM     23  C   UNL     1     -34.680  19.942   0.844  0.00  0.00    -0.015 C 
ATOM     24  C   UNL     1     -35.564  19.277  -0.022  0.00  0.00    -0.022 C 
ATOM     25  C   UNL     1     -33.488  19.335   1.248  0.00  0.00    +0.036 C 
ATOM     26  C   UNL     1     -33.218  18.071   0.767  0.00  0.00    +0.176 C 
ATOM     27  C   UNL     1     -34.084  17.419  -0.082  0.00  0.00    +0.176 C 
ATOM     28  C   UNL     1     -35.268  17.996  -0.495  0.00  0.00    +0.036 C 
ATOM     29  C   UNL     1     -36.841  19.925  -0.451  0.00  0.00    +0.031 C 
ATOM     30  C   UNL     1     -32.380  16.135   0.283  0.00  0.00    +0.429 C 
ENDBRANCH  20  23
ENDBRANCH  19  20
ENDBRANCH   3  19
TORSDOF 6
ENDMDL
MODEL 7
REMARK VINA RESULT:      -6.6      4.618      7.615
REMARK  Name = 216235
REMARK  6 active torsions:
REMARK  status: ('A' for Active; 'I' for Inactive)
REMARK    1  A    between atoms: C_2  and  S_6
REMARK    2  A    between atoms: C_3  and  C_19
REMARK    3  A    between atoms: S_6  and  N_9
REMARK    4  A    between atoms: N_9  and  C_14
REMARK    5  A    between atoms: C_19  and  C_20
REMARK    6  A    between atoms: C_20  and  C_23
REMARK                            x       y       z     vdW  Elec       q    Type
REMARK                         _______ _______ _______ _____ _____    ______ ____
ROOT
ATOM      1  S   UNL     1     -37.952  25.595   2.853  0.00  0.00    -0.082 S 
ATOM      2  C   UNL     1     -38.815  23.310   2.056  0.00  0.00    +0.134 C 
ATOM      3  C   UNL     1     -37.716  24.090   2.119  0.00  0.00    +0.083 C 
ATOM      4  C   UNL     1     -39.933  23.972   2.641  0.00  0.00    +0.028 C 
ATOM      5  C   UNL     1     -39.603  25.223   3.114  0.00  0.00    +0.037 C 
ENDROOT
BRANCH   2   6
ATOM      6  S   UNL     1     -38.902  21.736   1.375  0.00  0.00    +0.076 S 
ATOM      7  O   UNL     1     -38.679  21.963  -0.047  0.00  0.00    -0.150 OA
ATOM      8  O   UNL     1     -40.163  21.187   1.858  0.00  0.00    -0.150 OA
BRANCH   6   9
ATOM      9  N   UNL     1     -37.609  20.780   2.021  0.00  0.00    -0.182 N 
ATOM     10  H   UNL     1     -37.306  20.845   2.955  0.00  0.00    +0.177 HD
BRANCH   9  14
ATOM     11 CL   UNL     1     -34.401  20.003   1.978  0.00  0.00    -0.076 Cl
ATOM     12  O   UNL     1     -37.699  19.247   0.067  0.00  0.00    -0.336 OA
ATOM     13  N   UNL     1     -36.826  18.458  -0.670  0.00  0.00    -0.079 NA
ATOM     14  C   UNL     1     -36.998  19.854   1.035  0.00  0.00    +0.255 A 
ATOM     15  C   UNL     1     -35.690  19.519   0.994  0.00  0.00    +0.127 A 
ATOM     16  C   UNL     1     -35.631  18.636  -0.099  0.00  0.00    +0.113 A 
ATOM     17  C   UNL     1     -34.458  17.932  -0.644  0.00  0.00    +0.057 C 
ENDBRANCH   9  14
ENDBRANCH   6   9
ENDBRANCH   2   6
BRANCH   3  19
ATOM     18  O   UNL     1     -36.056  23.867   0.441  0.00  0.00    -0.290 OA
ATOM     19  C   UNL     1     -36.359  23.783   1.633  0.00  0.00    +0.185 C 
BRANCH  19  20
ATOM     20  C   UNL     1     -35.301  23.349   2.653  0.00  0.00    +0.096 C 
BRANCH  20  23
ATOM     21  O   UNL     1     -32.828  27.590   3.068  0.00  0.00    -0.435 OA
ATOM     22  O   UNL     1     -33.091  27.657   5.462  0.00  0.00    -0.435 OA
ATOM     23  C   UNL     1     -34.731  24.477   3.451  0.00  0.00    -0.015 C 
ATOM     24  C   UNL     1     -34.884  24.516   4.848  0.00  0.00    -0.022 C 
ATOM     25  C   UNL     1     -34.042  25.492   2.783  0.00  0.00    +0.036 C 
ATOM     26  C   UNL     1     -33.525  26.522   3.541  0.00  0.00    +0.176 C 
ATOM     27  C   UNL     1     -33.675  26.560   4.909  0.00  0.00    +0.176 C 
ATOM     28  C   UNL     1     -34.351  25.570   5.593  0.00  0.00    +0.036 C 
ATOM     29  C   UNL     1     -35.623  23.431   5.562  0.00  0.00    +0.031 C 
ATOM     30  C   UNL     1     -32.556  28.306   4.291  0.00  0.00    +0.429 C 
ENDBRANCH  20  23
ENDBRANCH  19  20
ENDBRANCH   3  19
TORSDOF 6
ENDMDL
MODEL 8
REMARK VINA RESULT:      -6.5      6.683      8.202
REMARK  Name = 216235
REMARK  6 active torsions:
REMARK  status: ('A' for Active; 'I' for Inactive)
REMARK    1  A    between atoms: C_2  and  S_6
REMARK    2  A    between atoms: C_3  and  C_19
REMARK    3  A    between atoms: S_6  and  N_9
REMARK    4  A    between atoms: N_9  and  C_14
REMARK    5  A    between atoms: C_19  and  C_20
REMARK    6  A    between atoms: C_20  and  C_23
REMARK                            x       y       z     vdW  Elec       q    Type
REMARK                         _______ _______ _______ _____ _____    ______ ____
ROOT
ATOM      1  S   UNL     1     -36.423  23.416  -0.241  0.00  0.00    -0.082 S 
ATOM      2  C   UNL     1     -35.773  20.931  -0.206  0.00  0.00    +0.134 C 
ATOM      3  C   UNL     1     -36.243  21.938   0.560  0.00  0.00    +0.083 C 
ATOM      4  C   UNL     1     -35.538  21.381  -1.537  0.00  0.00    +0.028 C 
ATOM      5  C   UNL     1     -35.850  22.714  -1.694  0.00  0.00    +0.037 C 
ENDROOT
BRANCH   2   6
ATOM      6  S   UNL     1     -35.483  19.319   0.308  0.00  0.00    +0.076 S 
ATOM      7  O   UNL     1     -34.875  18.690  -0.858  0.00  0.00    -0.150 OA
ATOM      8  O   UNL     1     -36.762  18.853   0.830  0.00  0.00    -0.150 OA
BRANCH   6   9
ATOM      9  N   UNL     1     -34.342  19.348   1.613  0.00  0.00    -0.182 N 
ATOM     10  H   UNL     1     -34.573  19.644   2.523  0.00  0.00    +0.177 HD
BRANCH   9  14
ATOM     11 CL   UNL     1     -32.205  21.174  -0.117  0.00  0.00    -0.076 Cl
ATOM     12  O   UNL     1     -32.500  17.681   1.559  0.00  0.00    -0.336 OA
ATOM     13  N   UNL     1     -31.212  17.578   1.051  0.00  0.00    -0.079 NA
ATOM     14  C   UNL     1     -32.983  18.889   1.233  0.00  0.00    +0.255 A 
ATOM     15  C   UNL     1     -32.089  19.613   0.526  0.00  0.00    +0.127 A 
ATOM     16  C   UNL     1     -30.987  18.743   0.437  0.00  0.00    +0.113 A 
ATOM     17  C   UNL     1     -29.691  18.974  -0.224  0.00  0.00    +0.057 C 
ENDBRANCH   9  14
ENDBRANCH   6   9
ENDBRANCH   2   6
BRANCH   3  19
ATOM     18  O   UNL     1     -37.790  21.911   2.356  0.00  0.00    -0.290 OA
ATOM     19  C   UNL     1     -36.614  21.894   1.985  0.00  0.00    +0.185 C 
BRANCH  19  20
ATOM     20  C   UNL     1     -35.493  21.828   3.028  0.00  0.00    +0.096 C 
BRANCH  20  23
ATOM     21  O   UNL     1     -34.161  26.558   2.683  0.00  0.00    -0.435 OA
ATOM     22  O   UNL     1     -34.153  26.863   5.073  0.00  0.00    -0.435 OA
ATOM     23  C   UNL     1     -35.143  23.151   3.626  0.00  0.00    -0.015 C 
ATOM     24  C   UNL     1     -35.138  23.329   5.020  0.00  0.00    -0.022 C 
ATOM     25  C   UNL     1     -34.820  24.210   2.773  0.00  0.00    +0.036 C 
ATOM     26  C   UNL     1     -34.500  25.422   3.349  0.00  0.00    +0.176 C 
ATOM     27  C   UNL     1     -34.496  25.596   4.715  0.00  0.00    +0.176 C 
ATOM     28  C   UNL     1     -34.811  24.567   5.579  0.00  0.00    +0.036 C 
ATOM     29  C   UNL     1     -35.486  22.197   5.932  0.00  0.00    +0.031 C 
ATOM     30  C   UNL     1     -33.943  27.468   3.781  0.00  0.00    +0.429 C 
ENDBRANCH  20  23
ENDBRANCH  19  20
ENDBRANCH   3  19
TORSDOF 6
ENDMDL
MODEL 9
REMARK VINA RESULT:      -6.4      1.465      2.402
REMARK  Name = 216235
REMARK  6 active torsions:
REMARK  status: ('A' for Active; 'I' for Inactive)
REMARK    1  A    between atoms: C_2  and  S_6
REMARK    2  A    between atoms: C_3  and  C_19
REMARK    3  A    between atoms: S_6  and  N_9
REMARK    4  A    between atoms: N_9  and  C_14
REMARK    5  A    between atoms: C_19  and  C_20
REMARK    6  A    between atoms: C_20  and  C_23
REMARK                            x       y       z     vdW  Elec       q    Type
REMARK                         _______ _______ _______ _____ _____    ______ ____
ROOT
ATOM      1  S   UNL     1     -40.814  23.990   0.292  0.00  0.00    -0.082 S 
ATOM      2  C   UNL     1     -38.699  25.280   0.973  0.00  0.00    +0.134 C 
ATOM      3  C   UNL     1     -40.005  25.112   1.266  0.00  0.00    +0.083 C 
ATOM      4  C   UNL     1     -38.319  24.445  -0.117  0.00  0.00    +0.028 C 
ATOM      5  C   UNL     1     -39.373  23.691  -0.583  0.00  0.00    +0.037 C 
ENDROOT
BRANCH   2   6
ATOM      6  S   UNL     1     -37.610  26.340   1.773  0.00  0.00    +0.076 S 
ATOM      7  O   UNL     1     -38.095  27.666   1.415  0.00  0.00    -0.150 OA
ATOM      8  O   UNL     1     -36.283  25.892   1.368  0.00  0.00    -0.150 OA
BRANCH   6   9
ATOM      9  N   UNL     1     -37.765  26.107   3.484  0.00  0.00    -0.182 N 
ATOM     10  H   UNL     1     -38.230  26.743   4.073  0.00  0.00    +0.177 HD
BRANCH   9  14
ATOM     11 CL   UNL     1     -35.356  26.046   5.739  0.00  0.00    -0.076 Cl
ATOM     12  O   UNL     1     -37.482  23.639   3.551  0.00  0.00    -0.336 OA
ATOM     13  N   UNL     1     -36.696  22.706   4.214  0.00  0.00    -0.079 NA
ATOM     14  C   UNL     1     -37.131  24.861   3.979  0.00  0.00    +0.255 A 
ATOM     15  C   UNL     1     -36.144  24.806   4.901  0.00  0.00    +0.127 A 
ATOM     16  C   UNL     1     -35.904  23.425   5.015  0.00  0.00    +0.113 A 
ATOM     17  C   UNL     1     -34.927  22.735   5.874  0.00  0.00    +0.057 C 
ENDBRANCH   9  14
ENDBRANCH   6   9
ENDBRANCH   2   6
BRANCH   3  19
ATOM     18  O   UNL     1     -40.577  25.582   3.518  0.00  0.00    -0.290 OA
ATOM     19  C   UNL     1     -40.791  25.779   2.320  0.00  0.00    +0.185 C 
BRANCH  19  20
ATOM     20  C   UNL     1     -41.903  26.744   1.898  0.00  0.00    +0.096 C 
BRANCH  20  23
ATOM     21  O   UNL     1     -46.178  24.350   2.422  0.00  0.00    -0.435 OA
ATOM     22  O   UNL     1     -46.831  25.672   4.327  0.00  0.00    -0.435 OA
ATOM     23  C   UNL     1     -43.209  26.499   2.584  0.00  0.00    -0.015 C 
ATOM     24  C   UNL     1     -43.590  27.271   3.695  0.00  0.00    -0.022 C 
ATOM     25  C   UNL     1     -44.043  25.488   2.100  0.00  0.00    +0.036 C 
ATOM     26  C   UNL     1     -45.242  25.282   2.750  0.00  0.00    +0.176 C 
ATOM     27  C   UNL     1     -45.616  26.038   3.838  0.00  0.00    +0.176 C 
ATOM     28  C   UNL     1     -44.810  27.041   4.336  0.00  0.00    +0.036 C 
ATOM     29  C   UNL     1     -42.696  28.351   4.214  0.00  0.00    +0.031 C 
ATOM     30  C   UNL     1     -47.182  24.602   3.427  0.00  0.00    +0.429 C 
ENDBRANCH  20  23
ENDBRANCH  19  20
ENDBRANCH   3  19
TORSDOF 6
ENDMDL
