MODEL 1
REMARK VINA RESULT:      -5.8      0.000      0.000
REMARK  Name = 53477781
REMARK  15 active torsions:
REMARK  status: ('A' for Active; 'I' for Inactive)
REMARK    1  A    between atoms: C_3  and  C_20
REMARK    2  A    between atoms: C_4  and  O_8
REMARK    3  A    between atoms: C_5  and  C_10
REMARK    4  A    between atoms: C_11  and  C_12
REMARK    5  A    between atoms: C_12  and  O_13
REMARK    6  A    between atoms: C_12  and  C_15
REMARK    7  A    between atoms: C_15  and  C_16
REMARK    8  A    between atoms: C_16  and  C_17
REMARK    9  A    between atoms: C_17  and  C_18
REMARK   10  A    between atoms: C_20  and  C_21
REMARK   11  A    between atoms: C_22  and  C_23
REMARK   12  A    between atoms: C_23  and  C_24
REMARK   13  A    between atoms: C_24  and  C_25
REMARK   14  A    between atoms: C_25  and  C_27
REMARK   15  A    between atoms: C_27  and  O_28
REMARK                            x       y       z     vdW  Elec       q    Type
REMARK                         _______ _______ _______ _____ _____    ______ ____
ROOT
ATOM      1  O   UNL     1     -38.876  21.913   2.024  0.00  0.00    -0.448 OA
ATOM      2  O   UNL     1     -40.580  21.072   0.821  0.00  0.00    -0.250 OA
ATOM      3  C   UNL     1     -36.511  21.549   1.361  0.00  0.00    +0.076 C 
ATOM      4  C   UNL     1     -37.009  20.332   0.579  0.00  0.00    +0.126 C 
ATOM      5  C   UNL     1     -37.505  21.848   2.492  0.00  0.00    +0.193 C 
ATOM      6  C   UNL     1     -38.384  20.616   0.010  0.00  0.00    +0.139 C 
ATOM      7  C   UNL     1     -39.368  21.183   0.998  0.00  0.00    +0.320 C 
ENDROOT
BRANCH   4   8
ATOM      8  O   UNL     1     -37.094  19.172   1.404  0.00  0.00    -0.384 OA
ATOM      9  H   UNL     1     -36.546  18.466   1.027  0.00  0.00    +0.210 HD
ENDBRANCH   4   8
BRANCH   5  10
ATOM     10  C   UNL     1     -37.237  23.146   3.190  0.00  0.00    +0.015 C 
ATOM     11  C   UNL     1     -36.812  24.255   2.566  0.00  0.00    +0.001 C 
BRANCH  11  12
ATOM     12  C   UNL     1     -36.543  25.555   3.271  0.00  0.00    +0.132 C 
BRANCH  12  13
ATOM     13  O   UNL     1     -37.580  26.476   2.928  0.00  0.00    -0.380 OA
ATOM     14  H   UNL     1     -38.034  26.766   3.734  0.00  0.00    +0.211 HD
ENDBRANCH  12  13
BRANCH  12  15
ATOM     15  C   UNL     1     -36.538  25.416   4.800  0.00  0.00    +0.034 C 
BRANCH  15  16
ATOM     16  C   UNL     1     -35.131  25.277   5.389  0.00  0.00    +0.003 C 
BRANCH  16  17
ATOM     17  C   UNL     1     -34.568  23.856   5.285  0.00  0.00    +0.000 C 
BRANCH  17  18
ATOM     18  C   UNL     1     -35.314  22.839   6.149  0.00  0.00    +0.000 C 
ATOM     19  C   UNL     1     -35.026  21.414   5.703  0.00  0.00    +0.000 C 
ENDBRANCH  17  18
ENDBRANCH  16  17
ENDBRANCH  15  16
ENDBRANCH  12  15
ENDBRANCH  11  12
ENDBRANCH   5  10
BRANCH   3  20
ATOM     20  C   UNL     1     -35.085  21.328   1.879  0.00  0.00    +0.032 C 
BRANCH  20  21
ATOM     21  C   UNL     1     -34.220  20.396   1.083  0.00  0.00    -0.030 C 
ATOM     22  C   UNL     1     -33.683  19.235   1.488  0.00  0.00    -0.031 C 
BRANCH  22  23
ATOM     23  C   UNL     1     -32.835  18.361   0.611  0.00  0.00    +0.026 C 
BRANCH  23  24
ATOM     24  C   UNL     1     -33.474  17.002   0.291  0.00  0.00    +0.016 C 
BRANCH  24  25
ATOM     25  C   UNL     1     -34.799  17.103  -0.473  0.00  0.00    +0.110 C 
BRANCH  25  27
ATOM     26  O   UNL     1     -35.580  14.800  -0.346  0.00  0.00    -0.250 OA
ATOM     27  C   UNL     1     -35.774  15.991  -0.150  0.00  0.00    +0.314 C 
BRANCH  27  28
ATOM     28  O   UNL     1     -36.937  16.475   0.359  0.00  0.00    -0.480 OA
ATOM     29  H   UNL     1     -36.978  16.751   1.254  0.00  0.00    +0.295 HD
ENDBRANCH  27  28
ENDBRANCH  25  27
ENDBRANCH  24  25
ENDBRANCH  23  24
ENDBRANCH  22  23
ENDBRANCH  20  21
ENDBRANCH   3  20
TORSDOF 15
ENDMDL
MODEL 2
REMARK VINA RESULT:      -5.7      2.831      6.743
REMARK  Name = 53477781
REMARK  15 active torsions:
REMARK  status: ('A' for Active; 'I' for Inactive)
REMARK    1  A    between atoms: C_3  and  C_20
REMARK    2  A    between atoms: C_4  and  O_8
REMARK    3  A    between atoms: C_5  and  C_10
REMARK    4  A    between atoms: C_11  and  C_12
REMARK    5  A    between atoms: C_12  and  O_13
REMARK    6  A    between atoms: C_12  and  C_15
REMARK    7  A    between atoms: C_15  and  C_16
REMARK    8  A    between atoms: C_16  and  C_17
REMARK    9  A    between atoms: C_17  and  C_18
REMARK   10  A    between atoms: C_20  and  C_21
REMARK   11  A    between atoms: C_22  and  C_23
REMARK   12  A    between atoms: C_23  and  C_24
REMARK   13  A    between atoms: C_24  and  C_25
REMARK   14  A    between atoms: C_25  and  C_27
REMARK   15  A    between atoms: C_27  and  O_28
REMARK                            x       y       z     vdW  Elec       q    Type
REMARK                         _______ _______ _______ _____ _____    ______ ____
ROOT
ATOM      1  O   UNL     1     -33.778  26.330   5.774  0.00  0.00    -0.448 OA
ATOM      2  O   UNL     1     -32.039  27.736   6.016  0.00  0.00    -0.250 OA
ATOM      3  C   UNL     1     -34.886  25.996   3.577  0.00  0.00    +0.076 C 
ATOM      4  C   UNL     1     -34.315  27.359   3.181  0.00  0.00    +0.126 C 
ATOM      5  C   UNL     1     -35.004  25.938   5.107  0.00  0.00    +0.193 C 
ATOM      6  C   UNL     1     -32.955  27.552   3.822  0.00  0.00    +0.139 C 
ATOM      7  C   UNL     1     -32.907  27.246   5.295  0.00  0.00    +0.320 C 
ENDROOT
BRANCH   4   8
ATOM      8  O   UNL     1     -35.163  28.428   3.594  0.00  0.00    -0.384 OA
ATOM      9  H   UNL     1     -35.196  28.459   4.562  0.00  0.00    +0.210 HD
ENDBRANCH   4   8
BRANCH   5  10
ATOM     10  C   UNL     1     -35.347  24.575   5.624  0.00  0.00    +0.015 C 
ATOM     11  C   UNL     1     -34.648  23.468   5.331  0.00  0.00    +0.001 C 
BRANCH  11  12
ATOM     12  C   UNL     1     -34.997  22.101   5.851  0.00  0.00    +0.132 C 
BRANCH  12  13
ATOM     13  O   UNL     1     -36.288  22.169   6.462  0.00  0.00    -0.380 OA
ATOM     14  H   UNL     1     -36.293  21.629   7.267  0.00  0.00    +0.211 HD
ENDBRANCH  12  13
BRANCH  12  15
ATOM     15  C   UNL     1     -35.067  21.040   4.744  0.00  0.00    +0.034 C 
BRANCH  15  16
ATOM     16  C   UNL     1     -35.561  21.596   3.405  0.00  0.00    +0.003 C 
BRANCH  16  17
ATOM     17  C   UNL     1     -35.771  20.514   2.340  0.00  0.00    +0.000 C 
BRANCH  17  18
ATOM     18  C   UNL     1     -34.522  20.229   1.507  0.00  0.00    +0.000 C 
ATOM     19  C   UNL     1     -34.098  21.452   0.706  0.00  0.00    +0.000 C 
ENDBRANCH  17  18
ENDBRANCH  16  17
ENDBRANCH  15  16
ENDBRANCH  12  15
ENDBRANCH  11  12
ENDBRANCH   5  10
BRANCH   3  20
ATOM     20  C   UNL     1     -36.224  25.731   2.877  0.00  0.00    +0.032 C 
BRANCH  20  21
ATOM     21  C   UNL     1     -36.232  24.652   1.835  0.00  0.00    -0.030 C 
ATOM     22  C   UNL     1     -37.126  24.477   0.850  0.00  0.00    -0.031 C 
BRANCH  22  23
ATOM     23  C   UNL     1     -37.046  23.368  -0.158  0.00  0.00    +0.026 C 
BRANCH  23  24
ATOM     24  C   UNL     1     -38.397  22.701  -0.451  0.00  0.00    +0.016 C 
BRANCH  24  25
ATOM     25  C   UNL     1     -38.658  21.435   0.370  0.00  0.00    +0.110 C 
BRANCH  25  27
ATOM     26  O   UNL     1     -39.026  22.504   2.527  0.00  0.00    -0.250 OA
ATOM     27  C   UNL     1     -39.372  21.694   1.679  0.00  0.00    +0.314 C 
BRANCH  27  28
ATOM     28  O   UNL     1     -40.448  20.879   1.834  0.00  0.00    -0.480 OA
ATOM     29  H   UNL     1     -40.463  20.039   1.417  0.00  0.00    +0.295 HD
ENDBRANCH  27  28
ENDBRANCH  25  27
ENDBRANCH  24  25
ENDBRANCH  23  24
ENDBRANCH  22  23
ENDBRANCH  20  21
ENDBRANCH   3  20
TORSDOF 15
ENDMDL
MODEL 3
REMARK VINA RESULT:      -5.6      4.226      8.807
REMARK  Name = 53477781
REMARK  15 active torsions:
REMARK  status: ('A' for Active; 'I' for Inactive)
REMARK    1  A    between atoms: C_3  and  C_20
REMARK    2  A    between atoms: C_4  and  O_8
REMARK    3  A    between atoms: C_5  and  C_10
REMARK    4  A    between atoms: C_11  and  C_12
REMARK    5  A    between atoms: C_12  and  O_13
REMARK    6  A    between atoms: C_12  and  C_15
REMARK    7  A    between atoms: C_15  and  C_16
REMARK    8  A    between atoms: C_16  and  C_17
REMARK    9  A    between atoms: C_17  and  C_18
REMARK   10  A    between atoms: C_20  and  C_21
REMARK   11  A    between atoms: C_22  and  C_23
REMARK   12  A    between atoms: C_23  and  C_24
REMARK   13  A    between atoms: C_24  and  C_25
REMARK   14  A    between atoms: C_25  and  C_27
REMARK   15  A    between atoms: C_27  and  O_28
REMARK                            x       y       z     vdW  Elec       q    Type
REMARK                         _______ _______ _______ _____ _____    ______ ____
ROOT
ATOM      1  O   UNL     1     -34.141  26.461   5.660  0.00  0.00    -0.448 OA
ATOM      2  O   UNL     1     -32.512  27.883   6.278  0.00  0.00    -0.250 OA
ATOM      3  C   UNL     1     -34.932  26.331   3.310  0.00  0.00    +0.076 C 
ATOM      4  C   UNL     1     -34.373  27.744   3.135  0.00  0.00    +0.126 C 
ATOM      5  C   UNL     1     -35.249  26.107   4.795  0.00  0.00    +0.193 C 
ATOM      6  C   UNL     1     -33.120  27.907   3.973  0.00  0.00    +0.139 C 
ATOM      7  C   UNL     1     -33.255  27.447   5.400  0.00  0.00    +0.320 C 
ENDROOT
BRANCH   4   8
ATOM      8  O   UNL     1     -35.314  28.738   3.535  0.00  0.00    -0.384 OA
ATOM      9  H   UNL     1     -34.908  29.616   3.463  0.00  0.00    +0.210 HD
ENDBRANCH   4   8
BRANCH   5  10
ATOM     10  C   UNL     1     -35.600  24.687   5.119  0.00  0.00    +0.015 C 
ATOM     11  C   UNL     1     -34.809  23.641   4.837  0.00  0.00    +0.001 C 
BRANCH  11  12
ATOM     12  C   UNL     1     -35.165  22.217   5.163  0.00  0.00    +0.132 C 
BRANCH  12  13
ATOM     13  O   UNL     1     -36.258  22.227   6.084  0.00  0.00    -0.380 OA
ATOM     14  H   UNL     1     -35.969  22.615   6.924  0.00  0.00    +0.211 HD
ENDBRANCH  12  13
BRANCH  12  15
ATOM     15  C   UNL     1     -35.608  21.415   3.931  0.00  0.00    +0.034 C 
BRANCH  15  16
ATOM     16  C   UNL     1     -35.343  22.142   2.610  0.00  0.00    +0.003 C 
BRANCH  16  17
ATOM     17  C   UNL     1     -36.615  22.400   1.794  0.00  0.00    +0.000 C 
BRANCH  17  18
ATOM     18  C   UNL     1     -37.894  22.364   2.631  0.00  0.00    +0.000 C 
ATOM     19  C   UNL     1     -39.132  22.287   1.750  0.00  0.00    +0.000 C 
ENDBRANCH  17  18
ENDBRANCH  16  17
ENDBRANCH  15  16
ENDBRANCH  12  15
ENDBRANCH  11  12
ENDBRANCH   5  10
BRANCH   3  20
ATOM     20  C   UNL     1     -36.152  26.104   2.410  0.00  0.00    +0.032 C 
BRANCH  20  21
ATOM     21  C   UNL     1     -37.474  25.946   3.101  0.00  0.00    -0.030 C 
ATOM     22  C   UNL     1     -38.693  25.955   2.541  0.00  0.00    -0.031 C 
BRANCH  22  23
ATOM     23  C   UNL     1     -39.966  25.777   3.317  0.00  0.00    +0.026 C 
BRANCH  23  24
ATOM     24  C   UNL     1     -41.224  26.197   2.544  0.00  0.00    +0.016 C 
BRANCH  24  25
ATOM     25  C   UNL     1     -42.330  26.783   3.428  0.00  0.00    +0.110 C 
BRANCH  25  27
ATOM     26  O   UNL     1     -42.058  28.818   4.737  0.00  0.00    -0.250 OA
ATOM     27  C   UNL     1     -42.206  28.274   3.652  0.00  0.00    +0.314 C 
BRANCH  27  28
ATOM     28  O   UNL     1     -42.320  28.967   2.489  0.00  0.00    -0.480 OA
ATOM     29  H   UNL     1     -41.621  29.523   2.205  0.00  0.00    +0.295 HD
ENDBRANCH  27  28
ENDBRANCH  25  27
ENDBRANCH  24  25
ENDBRANCH  23  24
ENDBRANCH  22  23
ENDBRANCH  20  21
ENDBRANCH   3  20
TORSDOF 15
ENDMDL
MODEL 4
REMARK VINA RESULT:      -5.6      2.139      6.536
REMARK  Name = 53477781
REMARK  15 active torsions:
REMARK  status: ('A' for Active; 'I' for Inactive)
REMARK    1  A    between atoms: C_3  and  C_20
REMARK    2  A    between atoms: C_4  and  O_8
REMARK    3  A    between atoms: C_5  and  C_10
REMARK    4  A    between atoms: C_11  and  C_12
REMARK    5  A    between atoms: C_12  and  O_13
REMARK    6  A    between atoms: C_12  and  C_15
REMARK    7  A    between atoms: C_15  and  C_16
REMARK    8  A    between atoms: C_16  and  C_17
REMARK    9  A    between atoms: C_17  and  C_18
REMARK   10  A    between atoms: C_20  and  C_21
REMARK   11  A    between atoms: C_22  and  C_23
REMARK   12  A    between atoms: C_23  and  C_24
REMARK   13  A    between atoms: C_24  and  C_25
REMARK   14  A    between atoms: C_25  and  C_27
REMARK   15  A    between atoms: C_27  and  O_28
REMARK                            x       y       z     vdW  Elec       q    Type
REMARK                         _______ _______ _______ _____ _____    ______ ____
ROOT
ATOM      1  O   UNL     1     -35.305  20.228  -1.028  0.00  0.00    -0.448 OA
ATOM      2  O   UNL     1     -33.562  19.866  -2.401  0.00  0.00    -0.250 OA
ATOM      3  C   UNL     1     -34.984  20.680   1.393  0.00  0.00    +0.076 C 
ATOM      4  C   UNL     1     -33.626  19.991   1.252  0.00  0.00    +0.126 C 
ATOM      5  C   UNL     1     -35.915  20.164   0.286  0.00  0.00    +0.193 C 
ATOM      6  C   UNL     1     -33.038  20.290  -0.114  0.00  0.00    +0.139 C 
ATOM      7  C   UNL     1     -33.984  20.074  -1.265  0.00  0.00    +0.320 C 
ENDROOT
BRANCH   4   8
ATOM      8  O   UNL     1     -33.733  18.576   1.396  0.00  0.00    -0.384 OA
ATOM      9  H   UNL     1     -34.655  18.338   1.573  0.00  0.00    +0.210 HD
ENDBRANCH   4   8
BRANCH   5  10
ATOM     10  C   UNL     1     -37.201  20.925   0.191  0.00  0.00    +0.015 C 
ATOM     11  C   UNL     1     -38.203  20.811   1.075  0.00  0.00    +0.001 C 
BRANCH  11  12
ATOM     12  C   UNL     1     -39.494  21.576   0.975  0.00  0.00    +0.132 C 
BRANCH  12  13
ATOM     13  O   UNL     1     -40.429  21.001   1.890  0.00  0.00    -0.380 OA
ATOM     14  H   UNL     1     -39.989  20.833   2.738  0.00  0.00    +0.211 HD
ENDBRANCH  12  13
BRANCH  12  15
ATOM     15  C   UNL     1     -39.340  23.058   1.344  0.00  0.00    +0.034 C 
BRANCH  15  16
ATOM     16  C   UNL     1     -38.462  23.285   2.578  0.00  0.00    +0.003 C 
BRANCH  16  17
ATOM     17  C   UNL     1     -37.482  24.452   2.419  0.00  0.00    +0.000 C 
BRANCH  17  18
ATOM     18  C   UNL     1     -36.360  24.172   1.418  0.00  0.00    +0.000 C 
ATOM     19  C   UNL     1     -35.258  25.217   1.514  0.00  0.00    +0.000 C 
ENDBRANCH  17  18
ENDBRANCH  16  17
ENDBRANCH  15  16
ENDBRANCH  12  15
ENDBRANCH  11  12
ENDBRANCH   5  10
BRANCH   3  20
ATOM     20  C   UNL     1     -35.568  20.469   2.794  0.00  0.00    +0.032 C 
BRANCH  20  21
ATOM     21  C   UNL     1     -35.335  21.568   3.789  0.00  0.00    -0.030 C 
ATOM     22  C   UNL     1     -35.300  21.463   5.126  0.00  0.00    -0.031 C 
BRANCH  22  23
ATOM     23  C   UNL     1     -35.048  22.623   6.044  0.00  0.00    +0.026 C 
BRANCH  23  24
ATOM     24  C   UNL     1     -35.640  23.948   5.541  0.00  0.00    +0.016 C 
BRANCH  24  25
ATOM     25  C   UNL     1     -34.591  25.025   5.246  0.00  0.00    +0.110 C 
BRANCH  25  27
ATOM     26  O   UNL     1     -34.591  27.322   4.437  0.00  0.00    -0.250 OA
ATOM     27  C   UNL     1     -35.182  26.389   4.963  0.00  0.00    +0.314 C 
BRANCH  27  28
ATOM     28  O   UNL     1     -36.464  26.482   5.403  0.00  0.00    -0.480 OA
ATOM     29  H   UNL     1     -36.657  26.970   6.180  0.00  0.00    +0.295 HD
ENDBRANCH  27  28
ENDBRANCH  25  27
ENDBRANCH  24  25
ENDBRANCH  23  24
ENDBRANCH  22  23
ENDBRANCH  20  21
ENDBRANCH   3  20
TORSDOF 15
ENDMDL
MODEL 5
REMARK VINA RESULT:      -5.5      3.517      8.972
REMARK  Name = 53477781
REMARK  15 active torsions:
REMARK  status: ('A' for Active; 'I' for Inactive)
REMARK    1  A    between atoms: C_3  and  C_20
REMARK    2  A    between atoms: C_4  and  O_8
REMARK    3  A    between atoms: C_5  and  C_10
REMARK    4  A    between atoms: C_11  and  C_12
REMARK    5  A    between atoms: C_12  and  O_13
REMARK    6  A    between atoms: C_12  and  C_15
REMARK    7  A    between atoms: C_15  and  C_16
REMARK    8  A    between atoms: C_16  and  C_17
REMARK    9  A    between atoms: C_17  and  C_18
REMARK   10  A    between atoms: C_20  and  C_21
REMARK   11  A    between atoms: C_22  and  C_23
REMARK   12  A    between atoms: C_23  and  C_24
REMARK   13  A    between atoms: C_24  and  C_25
REMARK   14  A    between atoms: C_25  and  C_27
REMARK   15  A    between atoms: C_27  and  O_28
REMARK                            x       y       z     vdW  Elec       q    Type
REMARK                         _______ _______ _______ _____ _____    ______ ____
ROOT
ATOM      1  O   UNL     1     -34.026  24.821   3.822  0.00  0.00    -0.448 OA
ATOM      2  O   UNL     1     -32.639  26.506   4.365  0.00  0.00    -0.250 OA
ATOM      3  C   UNL     1     -36.363  25.241   3.096  0.00  0.00    +0.076 C 
ATOM      4  C   UNL     1     -36.252  26.587   3.816  0.00  0.00    +0.126 C 
ATOM      5  C   UNL     1     -35.360  24.263   3.725  0.00  0.00    +0.193 C 
ATOM      6  C   UNL     1     -34.840  27.123   3.686  0.00  0.00    +0.139 C 
ATOM      7  C   UNL     1     -33.758  26.130   4.021  0.00  0.00    +0.320 C 
ENDROOT
BRANCH   4   8
ATOM      8  O   UNL     1     -36.564  26.473   5.202  0.00  0.00    -0.384 OA
ATOM      9  H   UNL     1     -36.722  27.355   5.572  0.00  0.00    +0.210 HD
ENDBRANCH   4   8
BRANCH   5  10
ATOM     10  C   UNL     1     -35.226  22.981   2.962  0.00  0.00    +0.015 C 
ATOM     11  C   UNL     1     -35.568  21.781   3.454  0.00  0.00    +0.001 C 
BRANCH  11  12
ATOM     12  C   UNL     1     -35.430  20.496   2.686  0.00  0.00    +0.132 C 
BRANCH  12  13
ATOM     13  O   UNL     1     -36.697  19.834   2.687  0.00  0.00    -0.380 OA
ATOM     14  H   UNL     1     -36.601  18.954   2.292  0.00  0.00    +0.211 HD
ENDBRANCH  12  13
BRANCH  12  15
ATOM     15  C   UNL     1     -35.027  20.716   1.222  0.00  0.00    +0.034 C 
BRANCH  15  16
ATOM     16  C   UNL     1     -34.358  19.492   0.589  0.00  0.00    +0.003 C 
BRANCH  16  17
ATOM     17  C   UNL     1     -33.321  18.829   1.502  0.00  0.00    +0.000 C 
BRANCH  17  18
ATOM     18  C   UNL     1     -31.964  18.618   0.829  0.00  0.00    +0.000 C 
ATOM     19  C   UNL     1     -31.521  19.861   0.072  0.00  0.00    +0.000 C 
ENDBRANCH  17  18
ENDBRANCH  16  17
ENDBRANCH  15  16
ENDBRANCH  12  15
ENDBRANCH  11  12
ENDBRANCH   5  10
BRANCH   3  20
ATOM     20  C   UNL     1     -37.801  24.711   3.135  0.00  0.00    +0.032 C 
BRANCH  20  21
ATOM     21  C   UNL     1     -38.842  25.548   2.452  0.00  0.00    -0.030 C 
ATOM     22  C   UNL     1     -40.106  25.760   2.848  0.00  0.00    -0.031 C 
BRANCH  22  23
ATOM     23  C   UNL     1     -41.077  26.627   2.100  0.00  0.00    +0.026 C 
BRANCH  23  24
ATOM     24  C   UNL     1     -42.547  26.328   2.424  0.00  0.00    +0.016 C 
BRANCH  24  25
ATOM     25  C   UNL     1     -43.051  26.997   3.706  0.00  0.00    +0.110 C 
BRANCH  25  27
ATOM     26  O   UNL     1     -43.214  29.322   2.998  0.00  0.00    -0.250 OA
ATOM     27  C   UNL     1     -42.769  28.483   3.769  0.00  0.00    +0.314 C 
BRANCH  27  28
ATOM     28  O   UNL     1     -41.912  28.789   4.778  0.00  0.00    -0.480 OA
ATOM     29  H   UNL     1     -41.030  28.474   4.755  0.00  0.00    +0.295 HD
ENDBRANCH  27  28
ENDBRANCH  25  27
ENDBRANCH  24  25
ENDBRANCH  23  24
ENDBRANCH  22  23
ENDBRANCH  20  21
ENDBRANCH   3  20
TORSDOF 15
ENDMDL
MODEL 6
REMARK VINA RESULT:      -5.5      1.591      1.977
REMARK  Name = 53477781
REMARK  15 active torsions:
REMARK  status: ('A' for Active; 'I' for Inactive)
REMARK    1  A    between atoms: C_3  and  C_20
REMARK    2  A    between atoms: C_4  and  O_8
REMARK    3  A    between atoms: C_5  and  C_10
REMARK    4  A    between atoms: C_11  and  C_12
REMARK    5  A    between atoms: C_12  and  O_13
REMARK    6  A    between atoms: C_12  and  C_15
REMARK    7  A    between atoms: C_15  and  C_16
REMARK    8  A    between atoms: C_16  and  C_17
REMARK    9  A    between atoms: C_17  and  C_18
REMARK   10  A    between atoms: C_20  and  C_21
REMARK   11  A    between atoms: C_22  and  C_23
REMARK   12  A    between atoms: C_23  and  C_24
REMARK   13  A    between atoms: C_24  and  C_25
REMARK   14  A    between atoms: C_25  and  C_27
REMARK   15  A    between atoms: C_27  and  O_28
REMARK                            x       y       z     vdW  Elec       q    Type
REMARK                         _______ _______ _______ _____ _____    ______ ____
ROOT
ATOM      1  O   UNL     1     -38.547  21.162   1.055  0.00  0.00    -0.448 OA
ATOM      2  O   UNL     1     -40.084  20.397  -0.398  0.00  0.00    -0.250 OA
ATOM      3  C   UNL     1     -36.149  20.548   0.856  0.00  0.00    +0.076 C 
ATOM      4  C   UNL     1     -36.618  19.331   0.056  0.00  0.00    +0.126 C 
ATOM      5  C   UNL     1     -37.295  21.008   1.769  0.00  0.00    +0.193 C 
ATOM      6  C   UNL     1     -37.835  19.697  -0.769  0.00  0.00    +0.139 C 
ATOM      7  C   UNL     1     -38.918  20.413  -0.007  0.00  0.00    +0.320 C 
ENDROOT
BRANCH   4   8
ATOM      8  O   UNL     1     -36.962  18.240   0.907  0.00  0.00    -0.384 OA
ATOM      9  H   UNL     1     -36.296  17.541   0.823  0.00  0.00    +0.210 HD
ENDBRANCH   4   8
BRANCH   5  10
ATOM     10  C   UNL     1     -37.028  22.320   2.440  0.00  0.00    +0.015 C 
ATOM     11  C   UNL     1     -37.836  23.386   2.342  0.00  0.00    +0.001 C 
BRANCH  11  12
ATOM     12  C   UNL     1     -37.564  24.702   3.016  0.00  0.00    +0.132 C 
BRANCH  12  13
ATOM     13  O   UNL     1     -38.475  24.845   4.107  0.00  0.00    -0.380 OA
ATOM     14  H   UNL     1     -38.741  25.774   4.187  0.00  0.00    +0.211 HD
ENDBRANCH  12  13
BRANCH  12  15
ATOM     15  C   UNL     1     -36.142  24.797   3.587  0.00  0.00    +0.034 C 
BRANCH  15  16
ATOM     16  C   UNL     1     -36.094  24.660   5.112  0.00  0.00    +0.003 C 
BRANCH  16  17
ATOM     17  C   UNL     1     -34.889  23.854   5.610  0.00  0.00    +0.000 C 
BRANCH  17  18
ATOM     18  C   UNL     1     -35.276  22.555   6.318  0.00  0.00    +0.000 C 
ATOM     19  C   UNL     1     -35.139  21.356   5.392  0.00  0.00    +0.000 C 
ENDBRANCH  17  18
ENDBRANCH  16  17
ENDBRANCH  15  16
ENDBRANCH  12  15
ENDBRANCH  11  12
ENDBRANCH   5  10
BRANCH   3  20
ATOM     20  C   UNL     1     -34.868  20.237   1.637  0.00  0.00    +0.032 C 
BRANCH  20  21
ATOM     21  C   UNL     1     -33.619  20.047   0.827  0.00  0.00    -0.030 C 
ATOM     22  C   UNL     1     -32.624  19.176   1.054  0.00  0.00    -0.031 C 
BRANCH  22  23
ATOM     23  C   UNL     1     -31.413  19.051   0.176  0.00  0.00    +0.026 C 
BRANCH  23  24
ATOM     24  C   UNL     1     -30.822  17.635   0.139  0.00  0.00    +0.016 C 
BRANCH  24  25
ATOM     25  C   UNL     1     -31.578  16.668  -0.778  0.00  0.00    +0.110 C 
BRANCH  25  27
ATOM     26  O   UNL     1     -31.113  14.563   0.353  0.00  0.00    -0.250 OA
ATOM     27  C   UNL     1     -31.921  15.348  -0.123  0.00  0.00    +0.314 C 
BRANCH  27  28
ATOM     28  O   UNL     1     -33.256  15.103  -0.156  0.00  0.00    -0.480 OA
ATOM     29  H   UNL     1     -33.737  15.235  -0.949  0.00  0.00    +0.295 HD
ENDBRANCH  27  28
ENDBRANCH  25  27
ENDBRANCH  24  25
ENDBRANCH  23  24
ENDBRANCH  22  23
ENDBRANCH  20  21
ENDBRANCH   3  20
TORSDOF 15
ENDMDL
MODEL 7
REMARK VINA RESULT:      -5.5      2.665      6.421
REMARK  Name = 53477781
REMARK  15 active torsions:
REMARK  status: ('A' for Active; 'I' for Inactive)
REMARK    1  A    between atoms: C_3  and  C_20
REMARK    2  A    between atoms: C_4  and  O_8
REMARK    3  A    between atoms: C_5  and  C_10
REMARK    4  A    between atoms: C_11  and  C_12
REMARK    5  A    between atoms: C_12  and  O_13
REMARK    6  A    between atoms: C_12  and  C_15
REMARK    7  A    between atoms: C_15  and  C_16
REMARK    8  A    between atoms: C_16  and  C_17
REMARK    9  A    between atoms: C_17  and  C_18
REMARK   10  A    between atoms: C_20  and  C_21
REMARK   11  A    between atoms: C_22  and  C_23
REMARK   12  A    between atoms: C_23  and  C_24
REMARK   13  A    between atoms: C_24  and  C_25
REMARK   14  A    between atoms: C_25  and  C_27
REMARK   15  A    between atoms: C_27  and  O_28
REMARK                            x       y       z     vdW  Elec       q    Type
REMARK                         _______ _______ _______ _____ _____    ______ ____
ROOT
ATOM      1  O   UNL     1     -33.772  21.471  -0.485  0.00  0.00    -0.448 OA
ATOM      2  O   UNL     1     -32.018  20.492  -1.496  0.00  0.00    -0.250 OA
ATOM      3  C   UNL     1     -34.537  20.764   1.769  0.00  0.00    +0.076 C 
ATOM      4  C   UNL     1     -33.836  19.432   1.492  0.00  0.00    +0.126 C 
ATOM      5  C   UNL     1     -34.897  21.418   0.428  0.00  0.00    +0.193 C 
ATOM      6  C   UNL     1     -32.586  19.671   0.669  0.00  0.00    +0.139 C 
ATOM      7  C   UNL     1     -32.788  20.548  -0.538  0.00  0.00    +0.320 C 
ENDROOT
BRANCH   4   8
ATOM      8  O   UNL     1     -34.678  18.529   0.779  0.00  0.00    -0.384 OA
ATOM      9  H   UNL     1     -35.584  18.874   0.765  0.00  0.00    +0.210 HD
ENDBRANCH   4   8
BRANCH   5  10
ATOM     10  C   UNL     1     -35.393  22.824   0.568  0.00  0.00    +0.015 C 
ATOM     11  C   UNL     1     -34.773  23.765   1.296  0.00  0.00    +0.001 C 
BRANCH  11  12
ATOM     12  C   UNL     1     -35.274  25.175   1.435  0.00  0.00    +0.132 C 
BRANCH  12  13
ATOM     13  O   UNL     1     -34.579  25.994   0.493  0.00  0.00    -0.380 OA
ATOM     14  H   UNL     1     -35.052  26.834   0.385  0.00  0.00    +0.211 HD
ENDBRANCH  12  13
BRANCH  12  15
ATOM     15  C   UNL     1     -36.775  25.307   1.141  0.00  0.00    +0.034 C 
BRANCH  15  16
ATOM     16  C   UNL     1     -37.607  25.636   2.384  0.00  0.00    +0.003 C 
BRANCH  16  17
ATOM     17  C   UNL     1     -38.174  24.394   3.080  0.00  0.00    +0.000 C 
BRANCH  17  18
ATOM     18  C   UNL     1     -39.301  23.718   2.298  0.00  0.00    +0.000 C 
ATOM     19  C   UNL     1     -38.963  22.269   1.980  0.00  0.00    +0.000 C 
ENDBRANCH  17  18
ENDBRANCH  16  17
ENDBRANCH  15  16
ENDBRANCH  12  15
ENDBRANCH  11  12
ENDBRANCH   5  10
BRANCH   3  20
ATOM     20  C   UNL     1     -35.760  20.567   2.672  0.00  0.00    +0.032 C 
BRANCH  20  21
ATOM     21  C   UNL     1     -35.881  21.492   3.846  0.00  0.00    -0.030 C 
ATOM     22  C   UNL     1     -35.085  21.550   4.925  0.00  0.00    -0.031 C 
BRANCH  22  23
ATOM     23  C   UNL     1     -35.279  22.522   6.051  0.00  0.00    +0.026 C 
BRANCH  23  24
ATOM     24  C   UNL     1     -35.628  23.943   5.586  0.00  0.00    +0.016 C 
BRANCH  24  25
ATOM     25  C   UNL     1     -34.428  24.740   5.065  0.00  0.00    +0.110 C 
BRANCH  25  27
ATOM     26  O   UNL     1     -33.726  27.072   5.080  0.00  0.00    -0.250 OA
ATOM     27  C   UNL     1     -34.622  26.240   5.120  0.00  0.00    +0.314 C 
BRANCH  27  28
ATOM     28  O   UNL     1     -35.931  26.572   5.262  0.00  0.00    -0.480 OA
ATOM     29  H   UNL     1     -36.544  26.360   4.586  0.00  0.00    +0.295 HD
ENDBRANCH  27  28
ENDBRANCH  25  27
ENDBRANCH  24  25
ENDBRANCH  23  24
ENDBRANCH  22  23
ENDBRANCH  20  21
ENDBRANCH   3  20
TORSDOF 15
ENDMDL
MODEL 8
REMARK VINA RESULT:      -5.4      3.079      6.273
REMARK  Name = 53477781
REMARK  15 active torsions:
REMARK  status: ('A' for Active; 'I' for Inactive)
REMARK    1  A    between atoms: C_3  and  C_20
REMARK    2  A    between atoms: C_4  and  O_8
REMARK    3  A    between atoms: C_5  and  C_10
REMARK    4  A    between atoms: C_11  and  C_12
REMARK    5  A    between atoms: C_12  and  O_13
REMARK    6  A    between atoms: C_12  and  C_15
REMARK    7  A    between atoms: C_15  and  C_16
REMARK    8  A    between atoms: C_16  and  C_17
REMARK    9  A    between atoms: C_17  and  C_18
REMARK   10  A    between atoms: C_20  and  C_21
REMARK   11  A    between atoms: C_22  and  C_23
REMARK   12  A    between atoms: C_23  and  C_24
REMARK   13  A    between atoms: C_24  and  C_25
REMARK   14  A    between atoms: C_25  and  C_27
REMARK   15  A    between atoms: C_27  and  O_28
REMARK                            x       y       z     vdW  Elec       q    Type
REMARK                         _______ _______ _______ _____ _____    ______ ____
ROOT
ATOM      1  O   UNL     1     -34.043  26.359   5.961  0.00  0.00    -0.448 OA
ATOM      2  O   UNL     1     -32.437  27.866   6.419  0.00  0.00    -0.250 OA
ATOM      3  C   UNL     1     -34.825  25.956   3.639  0.00  0.00    +0.076 C 
ATOM      4  C   UNL     1     -34.287  27.349   3.309  0.00  0.00    +0.126 C 
ATOM      5  C   UNL     1     -35.143  25.893   5.139  0.00  0.00    +0.193 C 
ATOM      6  C   UNL     1     -33.039  27.624   4.124  0.00  0.00    +0.139 C 
ATOM      7  C   UNL     1     -33.171  27.324   5.594  0.00  0.00    +0.320 C 
ENDROOT
BRANCH   4   8
ATOM      8  O   UNL     1     -35.245  28.367   3.595  0.00  0.00    -0.384 OA
ATOM      9  H   UNL     1     -34.900  29.226   3.306  0.00  0.00    +0.210 HD
ENDBRANCH   4   8
BRANCH   5  10
ATOM     10  C   UNL     1     -35.472  24.513   5.619  0.00  0.00    +0.015 C 
ATOM     11  C   UNL     1     -34.640  23.467   5.509  0.00  0.00    +0.001 C 
BRANCH  11  12
ATOM     12  C   UNL     1     -34.975  22.083   5.991  0.00  0.00    +0.132 C 
BRANCH  12  13
ATOM     13  O   UNL     1     -36.303  22.099   6.515  0.00  0.00    -0.380 OA
ATOM     14  H   UNL     1     -36.927  22.330   5.810  0.00  0.00    +0.211 HD
ENDBRANCH  12  13
BRANCH  12  15
ATOM     15  C   UNL     1     -34.935  21.034   4.870  0.00  0.00    +0.034 C 
BRANCH  15  16
ATOM     16  C   UNL     1     -35.614  21.503   3.580  0.00  0.00    +0.003 C 
BRANCH  16  17
ATOM     17  C   UNL     1     -35.474  20.506   2.424  0.00  0.00    +0.000 C 
BRANCH  17  18
ATOM     18  C   UNL     1     -36.690  20.473   1.497  0.00  0.00    +0.000 C 
ATOM     19  C   UNL     1     -37.620  21.647   1.762  0.00  0.00    +0.000 C 
ENDBRANCH  17  18
ENDBRANCH  16  17
ENDBRANCH  15  16
ENDBRANCH  12  15
ENDBRANCH  11  12
ENDBRANCH   5  10
BRANCH   3  20
ATOM     20  C   UNL     1     -36.039  25.611   2.769  0.00  0.00    +0.032 C 
BRANCH  20  21
ATOM     21  C   UNL     1     -35.765  24.838   1.513  0.00  0.00    -0.030 C 
ATOM     22  C   UNL     1     -34.705  24.059   1.250  0.00  0.00    -0.031 C 
BRANCH  22  23
ATOM     23  C   UNL     1     -34.522  23.311  -0.039  0.00  0.00    +0.026 C 
BRANCH  23  24
ATOM     24  C   UNL     1     -33.406  22.259   0.011  0.00  0.00    +0.016 C 
BRANCH  24  25
ATOM     25  C   UNL     1     -33.671  21.028  -0.862  0.00  0.00    +0.110 C 
BRANCH  25  27
ATOM     26  O   UNL     1     -32.644  18.851  -1.230  0.00  0.00    -0.250 OA
ATOM     27  C   UNL     1     -32.787  19.845  -0.532  0.00  0.00    +0.314 C 
BRANCH  27  28
ATOM     28  O   UNL     1     -32.183  19.991   0.676  0.00  0.00    -0.480 OA
ATOM     29  H   UNL     1     -32.533  20.591   1.305  0.00  0.00    +0.295 HD
ENDBRANCH  27  28
ENDBRANCH  25  27
ENDBRANCH  24  25
ENDBRANCH  23  24
ENDBRANCH  22  23
ENDBRANCH  20  21
ENDBRANCH   3  20
TORSDOF 15
ENDMDL
MODEL 9
REMARK VINA RESULT:      -5.4      1.593      2.165
REMARK  Name = 53477781
REMARK  15 active torsions:
REMARK  status: ('A' for Active; 'I' for Inactive)
REMARK    1  A    between atoms: C_3  and  C_20
REMARK    2  A    between atoms: C_4  and  O_8
REMARK    3  A    between atoms: C_5  and  C_10
REMARK    4  A    between atoms: C_11  and  C_12
REMARK    5  A    between atoms: C_12  and  O_13
REMARK    6  A    between atoms: C_12  and  C_15
REMARK    7  A    between atoms: C_15  and  C_16
REMARK    8  A    between atoms: C_16  and  C_17
REMARK    9  A    between atoms: C_17  and  C_18
REMARK   10  A    between atoms: C_20  and  C_21
REMARK   11  A    between atoms: C_22  and  C_23
REMARK   12  A    between atoms: C_23  and  C_24
REMARK   13  A    between atoms: C_24  and  C_25
REMARK   14  A    between atoms: C_25  and  C_27
REMARK   15  A    between atoms: C_27  and  O_28
REMARK                            x       y       z     vdW  Elec       q    Type
REMARK                         _______ _______ _______ _____ _____    ______ ____
ROOT
ATOM      1  O   UNL     1     -39.829  24.343   2.138  0.00  0.00    -0.448 OA
ATOM      2  O   UNL     1     -41.686  24.537   0.884  0.00  0.00    -0.250 OA
ATOM      3  C   UNL     1     -38.189  22.516   1.763  0.00  0.00    +0.076 C 
ATOM      4  C   UNL     1     -39.330  21.749   1.091  0.00  0.00    +0.126 C 
ATOM      5  C   UNL     1     -38.790  23.532   2.743  0.00  0.00    +0.193 C 
ATOM      6  C   UNL     1     -40.237  22.718   0.357  0.00  0.00    +0.139 C 
ATOM      7  C   UNL     1     -40.663  23.913   1.166  0.00  0.00    +0.320 C 
ENDROOT
BRANCH   4   8
ATOM      8  O   UNL     1     -40.114  21.029   2.039  0.00  0.00    -0.384 OA
ATOM      9  H   UNL     1     -41.053  21.232   1.904  0.00  0.00    +0.210 HD
ENDBRANCH   4   8
BRANCH   5  10
ATOM     10  C   UNL     1     -37.780  24.488   3.300  0.00  0.00    +0.015 C 
ATOM     11  C   UNL     1     -36.946  25.217   2.543  0.00  0.00    +0.001 C 
BRANCH  11  12
ATOM     12  C   UNL     1     -35.933  26.174   3.106  0.00  0.00    +0.132 C 
BRANCH  12  13
ATOM     13  O   UNL     1     -36.230  27.483   2.615  0.00  0.00    -0.380 OA
ATOM     14  H   UNL     1     -36.800  27.413   1.834  0.00  0.00    +0.211 HD
ENDBRANCH  12  13
BRANCH  12  15
ATOM     15  C   UNL     1     -35.961  26.240   4.639  0.00  0.00    +0.034 C 
BRANCH  15  16
ATOM     16  C   UNL     1     -34.786  25.511   5.296  0.00  0.00    +0.003 C 
BRANCH  16  17
ATOM     17  C   UNL     1     -35.181  24.170   5.926  0.00  0.00    +0.000 C 
BRANCH  17  18
ATOM     18  C   UNL     1     -34.924  22.970   5.014  0.00  0.00    +0.000 C 
ATOM     19  C   UNL     1     -35.166  21.657   5.744  0.00  0.00    +0.000 C 
ENDBRANCH  17  18
ENDBRANCH  16  17
ENDBRANCH  15  16
ENDBRANCH  12  15
ENDBRANCH  11  12
ENDBRANCH   5  10
BRANCH   3  20
ATOM     20  C   UNL     1     -37.205  21.558   2.442  0.00  0.00    +0.032 C 
BRANCH  20  21
ATOM     21  C   UNL     1     -36.039  21.099   1.617  0.00  0.00    -0.030 C 
ATOM     22  C   UNL     1     -34.992  20.365   2.023  0.00  0.00    -0.031 C 
BRANCH  22  23
ATOM     23  C   UNL     1     -33.872  19.943   1.116  0.00  0.00    +0.026 C 
BRANCH  23  24
ATOM     24  C   UNL     1     -33.226  18.608   1.513  0.00  0.00    +0.016 C 
BRANCH  24  25
ATOM     25  C   UNL     1     -32.766  17.761   0.323  0.00  0.00    +0.110 C 
BRANCH  25  27
ATOM     26  O   UNL     1     -34.080  17.265  -1.667  0.00  0.00    -0.250 OA
ATOM     27  C   UNL     1     -33.903  17.145  -0.462  0.00  0.00    +0.314 C 
BRANCH  27  28
ATOM     28  O   UNL     1     -34.754  16.457   0.342  0.00  0.00    -0.480 OA
ATOM     29  H   UNL     1     -34.931  16.766   1.209  0.00  0.00    +0.295 HD
ENDBRANCH  27  28
ENDBRANCH  25  27
ENDBRANCH  24  25
ENDBRANCH  23  24
ENDBRANCH  22  23
ENDBRANCH  20  21
ENDBRANCH   3  20
TORSDOF 15
ENDMDL
