MODEL 1
REMARK VINA RESULT:      -6.8      0.000      0.000
REMARK  Name = 53477716
REMARK  8 active torsions:
REMARK  status: ('A' for Active; 'I' for Inactive)
REMARK    1  A    between atoms: C_6  and  C_22
REMARK    2  A    between atoms: C_19  and  O_20
REMARK    3  A    between atoms: C_22  and  C_24
REMARK    4  A    between atoms: C_24  and  C_25
REMARK    5  A    between atoms: C_25  and  C_28
REMARK    6  A    between atoms: N_27  and  C_30
REMARK    7  A    between atoms: C_30  and  C_31
REMARK    8  A    between atoms: C_31  and  S_32
REMARK                            x       y       z     vdW  Elec       q    Type
REMARK                         _______ _______ _______ _____ _____    ______ ____
ROOT
ATOM      1  C   UNL     1     -34.710  20.014   0.765  0.00  0.00    +0.000 C 
ATOM      2  C   UNL     1     -34.505  21.426   0.168  0.00  0.00    +0.000 C 
ATOM      3  C   UNL     1     -35.297  22.541   0.889  0.00  0.00    +0.000 C 
ATOM      4  C   UNL     1     -35.112  22.519   2.431  0.00  0.00    +0.000 C 
ATOM      5  C   UNL     1     -35.917  23.672   3.146  0.00  0.00    +0.000 C 
ATOM      6  C   UNL     1     -33.570  19.231   0.061  0.00  0.00    +0.000 C 
ATOM      7  C   UNL     1     -34.563  20.037   2.303  0.00  0.00    +0.000 C 
ATOM      8  C   UNL     1     -35.481  25.024   2.497  0.00  0.00    +0.002 C 
ATOM      9  C   UNL     1     -35.418  21.111   2.977  0.00  0.00    +0.000 C 
ATOM     10  C   UNL     1     -32.977  21.606   0.141  0.00  0.00    +0.000 C 
ATOM     11  C   UNL     1     -34.979  23.921   0.292  0.00  0.00    +0.000 C 
ATOM     12  C   UNL     1     -32.380  20.198   0.064  0.00  0.00    +0.000 C 
ATOM     13  C   UNL     1     -35.738  25.049   0.986  0.00  0.00    +0.000 C 
ATOM     14  C   UNL     1     -35.548  23.737   4.657  0.00  0.00    +0.002 C 
ATOM     15  C   UNL     1     -36.079  19.433   0.374  0.00  0.00    +0.000 C 
ATOM     16  C   UNL     1     -36.099  26.253   3.187  0.00  0.00    +0.029 C 
ATOM     17  C   UNL     1     -37.445  23.437   3.028  0.00  0.00    +0.000 C 
ATOM     18  C   UNL     1     -36.128  24.957   5.382  0.00  0.00    +0.029 C 
ATOM     19  C   UNL     1     -35.811  26.280   4.689  0.00  0.00    +0.111 C 
ENDROOT
BRANCH  19  20
ATOM     20  O   UNL     1     -34.445  26.628   4.915  0.00  0.00    -0.384 OA
ATOM     21  H   UNL     1     -34.394  27.288   5.624  0.00  0.00    +0.210 HD
ENDBRANCH  19  20
BRANCH   6  22
ATOM     22  C   UNL     1     -33.218  17.873   0.655  0.00  0.00    +0.000 C 
ATOM     23  C   UNL     1     -31.817  17.919   1.272  0.00  0.00    +0.000 C 
BRANCH  22  24
ATOM     24  C   UNL     1     -33.343  16.776  -0.422  0.00  0.00    +0.010 C 
BRANCH  24  25
ATOM     25  C   UNL     1     -34.464  15.772  -0.150  0.00  0.00    +0.085 C 
BRANCH  25  28
ATOM     26  O   UNL     1     -35.030  15.934  -2.499  0.00  0.00    -0.275 OA
ATOM     27  N   UNL     1     -36.386  14.677  -1.091  0.00  0.00    -0.303 N 
ATOM     28  C   UNL     1     -35.301  15.491  -1.386  0.00  0.00    +0.223 C 
ATOM     29  H   UNL     1     -36.508  14.378  -0.162  0.00  0.00    +0.149 HD
BRANCH  27  30
ATOM     30  C   UNL     1     -37.342  14.246  -2.085  0.00  0.00    +0.115 C 
BRANCH  30  31
ATOM     31  C   UNL     1     -38.449  15.262  -2.292  0.00  0.00    +0.179 C 
BRANCH  31  32
ATOM     32  S   UNL     1     -39.158  15.804  -0.768  0.00  0.00    +0.024 S 
ATOM     33  O   UNL     1     -39.266  14.341  -0.054  0.00  0.00    -0.069 OA
ATOM     34  O   UNL     1     -40.499  16.298  -1.024  0.00  0.00    -0.069 OA
ATOM     35  O   UNL     1     -38.177  16.600  -0.055  0.00  0.00    -0.069 OA
ENDBRANCH  31  32
ENDBRANCH  30  31
ENDBRANCH  27  30
ENDBRANCH  25  28
ENDBRANCH  24  25
ENDBRANCH  22  24
ENDBRANCH   6  22
TORSDOF 8
ENDMDL
MODEL 2
REMARK VINA RESULT:      -6.5      2.519      3.556
REMARK  Name = 53477716
REMARK  8 active torsions:
REMARK  status: ('A' for Active; 'I' for Inactive)
REMARK    1  A    between atoms: C_6  and  C_22
REMARK    2  A    between atoms: C_19  and  O_20
REMARK    3  A    between atoms: C_22  and  C_24
REMARK    4  A    between atoms: C_24  and  C_25
REMARK    5  A    between atoms: C_25  and  C_28
REMARK    6  A    between atoms: N_27  and  C_30
REMARK    7  A    between atoms: C_30  and  C_31
REMARK    8  A    between atoms: C_31  and  S_32
REMARK                            x       y       z     vdW  Elec       q    Type
REMARK                         _______ _______ _______ _____ _____    ______ ____
ROOT
ATOM      1  C   UNL     1     -34.935  20.201   0.765  0.00  0.00    +0.000 C 
ATOM      2  C   UNL     1     -34.609  21.607   0.208  0.00  0.00    +0.000 C 
ATOM      3  C   UNL     1     -35.311  22.764   0.955  0.00  0.00    +0.000 C 
ATOM      4  C   UNL     1     -35.140  22.685   2.497  0.00  0.00    +0.000 C 
ATOM      5  C   UNL     1     -35.851  23.882   3.239  0.00  0.00    +0.000 C 
ATOM      6  C   UNL     1     -33.860  19.345   0.046  0.00  0.00    +0.000 C 
ATOM      7  C   UNL     1     -34.798  20.170   2.304  0.00  0.00    +0.000 C 
ATOM      8  C   UNL     1     -35.299  25.210   2.629  0.00  0.00    +0.002 C 
ATOM      9  C   UNL     1     -35.566  21.293   3.003  0.00  0.00    +0.000 C 
ATOM     10  C   UNL     1     -33.071  21.658   0.194  0.00  0.00    +0.000 C 
ATOM     11  C   UNL     1     -34.874  24.128   0.398  0.00  0.00    +0.000 C 
ATOM     12  C   UNL     1     -32.593  20.208   0.082  0.00  0.00    +0.000 C 
ATOM     13  C   UNL     1     -35.542  25.297   1.117  0.00  0.00    +0.000 C 
ATOM     14  C   UNL     1     -35.489  23.876   4.752  0.00  0.00    +0.002 C 
ATOM     15  C   UNL     1     -36.346  19.747   0.352  0.00  0.00    +0.000 C 
ATOM     16  C   UNL     1     -35.818  26.467   3.348  0.00  0.00    +0.029 C 
ATOM     17  C   UNL     1     -37.393  23.779   3.106  0.00  0.00    +0.000 C 
ATOM     18  C   UNL     1     -35.971  25.120   5.508  0.00  0.00    +0.029 C 
ATOM     19  C   UNL     1     -35.540  26.430   4.852  0.00  0.00    +0.111 C 
ENDROOT
BRANCH  19  20
ATOM     20  O   UNL     1     -34.151  26.657   5.094  0.00  0.00    -0.384 OA
ATOM     21  H   UNL     1     -33.743  25.839   5.420  0.00  0.00    +0.210 HD
ENDBRANCH  19  20
BRANCH   6  22
ATOM     22  C   UNL     1     -33.626  17.947   0.605  0.00  0.00    +0.000 C 
ATOM     23  C   UNL     1     -32.217  17.847   1.195  0.00  0.00    +0.000 C 
BRANCH  22  24
ATOM     24  C   UNL     1     -33.873  16.891  -0.492  0.00  0.00    +0.010 C 
BRANCH  24  25
ATOM     25  C   UNL     1     -35.085  15.998  -0.224  0.00  0.00    +0.085 C 
BRANCH  25  28
ATOM     26  O   UNL     1     -35.929  13.934  -1.169  0.00  0.00    -0.275 OA
ATOM     27  N   UNL     1     -33.637  14.317  -1.151  0.00  0.00    -0.303 N 
ATOM     28  C   UNL     1     -34.962  14.639  -0.894  0.00  0.00    +0.223 C 
ATOM     29  H   UNL     1     -32.939  14.958  -0.887  0.00  0.00    +0.149 HD
BRANCH  27  30
ATOM     30  C   UNL     1     -33.235  13.085  -1.790  0.00  0.00    +0.115 C 
BRANCH  30  31
ATOM     31  C   UNL     1     -31.896  12.587  -1.279  0.00  0.00    +0.179 C 
BRANCH  31  32
ATOM     32  S   UNL     1     -30.788  13.908  -0.898  0.00  0.00    +0.024 S 
ATOM     33  O   UNL     1     -29.429  13.014  -0.774  0.00  0.00    -0.069 OA
ATOM     34  O   UNL     1     -31.121  14.437   0.412  0.00  0.00    -0.069 OA
ATOM     35  O   UNL     1     -30.674  14.770  -2.060  0.00  0.00    -0.069 OA
ENDBRANCH  31  32
ENDBRANCH  30  31
ENDBRANCH  27  30
ENDBRANCH  25  28
ENDBRANCH  24  25
ENDBRANCH  22  24
ENDBRANCH   6  22
TORSDOF 8
ENDMDL
MODEL 3
REMARK VINA RESULT:      -6.2      3.253      4.132
REMARK  Name = 53477716
REMARK  8 active torsions:
REMARK  status: ('A' for Active; 'I' for Inactive)
REMARK    1  A    between atoms: C_6  and  C_22
REMARK    2  A    between atoms: C_19  and  O_20
REMARK    3  A    between atoms: C_22  and  C_24
REMARK    4  A    between atoms: C_24  and  C_25
REMARK    5  A    between atoms: C_25  and  C_28
REMARK    6  A    between atoms: N_27  and  C_30
REMARK    7  A    between atoms: C_30  and  C_31
REMARK    8  A    between atoms: C_31  and  S_32
REMARK                            x       y       z     vdW  Elec       q    Type
REMARK                         _______ _______ _______ _____ _____    ______ ____
ROOT
ATOM      1  C   UNL     1     -35.005  20.240   0.917  0.00  0.00    +0.000 C 
ATOM      2  C   UNL     1     -34.732  21.637   0.312  0.00  0.00    +0.000 C 
ATOM      3  C   UNL     1     -35.425  22.799   1.061  0.00  0.00    +0.000 C 
ATOM      4  C   UNL     1     -35.188  22.761   2.596  0.00  0.00    +0.000 C 
ATOM      5  C   UNL     1     -35.892  23.962   3.339  0.00  0.00    +0.000 C 
ATOM      6  C   UNL     1     -33.943  19.388   0.173  0.00  0.00    +0.000 C 
ATOM      7  C   UNL     1     -34.802  20.250   2.449  0.00  0.00    +0.000 C 
ATOM      8  C   UNL     1     -35.394  25.285   2.674  0.00  0.00    +0.002 C 
ATOM      9  C   UNL     1     -35.563  21.374   3.153  0.00  0.00    +0.000 C 
ATOM     10  C   UNL     1     -33.198  21.719   0.231  0.00  0.00    +0.000 C 
ATOM     11  C   UNL     1     -35.042  24.157   0.453  0.00  0.00    +0.000 C 
ATOM     12  C   UNL     1     -32.695  20.277   0.133  0.00  0.00    +0.000 C 
ATOM     13  C   UNL     1     -35.703  25.329   1.173  0.00  0.00    +0.000 C 
ATOM     14  C   UNL     1     -35.465  24.000   4.835  0.00  0.00    +0.002 C 
ATOM     15  C   UNL     1     -36.422  19.747   0.576  0.00  0.00    +0.000 C 
ATOM     16  C   UNL     1     -35.908  26.549   3.385  0.00  0.00    +0.029 C 
ATOM     17  C   UNL     1     -37.435  23.824   3.275  0.00  0.00    +0.000 C 
ATOM     18  C   UNL     1     -35.940  25.253   5.581  0.00  0.00    +0.029 C 
ATOM     19  C   UNL     1     -35.565  26.555   4.876  0.00  0.00    +0.111 C 
ENDROOT
BRANCH  19  20
ATOM     20  O   UNL     1     -34.173  26.815   5.053  0.00  0.00    -0.384 OA
ATOM     21  H   UNL     1     -34.011  27.096   5.967  0.00  0.00    +0.210 HD
ENDBRANCH  19  20
BRANCH   6  22
ATOM     22  C   UNL     1     -33.657  18.009   0.754  0.00  0.00    +0.000 C 
ATOM     23  C   UNL     1     -32.254  17.980   1.368  0.00  0.00    +0.000 C 
BRANCH  22  24
ATOM     24  C   UNL     1     -33.838  16.928  -0.332  0.00  0.00    +0.010 C 
BRANCH  24  25
ATOM     25  C   UNL     1     -33.835  17.482  -1.757  0.00  0.00    +0.085 C 
BRANCH  25  28
ATOM     26  O   UNL     1     -32.876  16.561  -3.781  0.00  0.00    -0.275 OA
ATOM     27  N   UNL     1     -31.541  16.774  -1.891  0.00  0.00    -0.303 N 
ATOM     28  C   UNL     1     -32.725  16.887  -2.607  0.00  0.00    +0.223 C 
ATOM     29  H   UNL     1     -31.532  17.068  -0.951  0.00  0.00    +0.149 HD
BRANCH  27  30
ATOM     30  C   UNL     1     -30.322  16.247  -2.459  0.00  0.00    +0.115 C 
BRANCH  30  31
ATOM     31  C   UNL     1     -29.989  14.869  -1.921  0.00  0.00    +0.179 C 
BRANCH  31  32
ATOM     32  S   UNL     1     -29.901  14.840  -0.157  0.00  0.00    +0.024 S 
ATOM     33  O   UNL     1     -29.355  16.363   0.052  0.00  0.00    -0.069 OA
ATOM     34  O   UNL     1     -28.861  13.911   0.246  0.00  0.00    -0.069 OA
ATOM     35  O   UNL     1     -31.249  14.751   0.375  0.00  0.00    -0.069 OA
ENDBRANCH  31  32
ENDBRANCH  30  31
ENDBRANCH  27  30
ENDBRANCH  25  28
ENDBRANCH  24  25
ENDBRANCH  22  24
ENDBRANCH   6  22
TORSDOF 8
ENDMDL
MODEL 4
REMARK VINA RESULT:      -6.1      4.539      9.789
REMARK  Name = 53477716
REMARK  8 active torsions:
REMARK  status: ('A' for Active; 'I' for Inactive)
REMARK    1  A    between atoms: C_6  and  C_22
REMARK    2  A    between atoms: C_19  and  O_20
REMARK    3  A    between atoms: C_22  and  C_24
REMARK    4  A    between atoms: C_24  and  C_25
REMARK    5  A    between atoms: C_25  and  C_28
REMARK    6  A    between atoms: N_27  and  C_30
REMARK    7  A    between atoms: C_30  and  C_31
REMARK    8  A    between atoms: C_31  and  S_32
REMARK                            x       y       z     vdW  Elec       q    Type
REMARK                         _______ _______ _______ _____ _____    ______ ____
ROOT
ATOM      1  C   UNL     1     -33.573  19.992   0.294  0.00  0.00    +0.000 C 
ATOM      2  C   UNL     1     -32.051  19.824   0.513  0.00  0.00    +0.000 C 
ATOM      3  C   UNL     1     -31.535  18.381   0.305  0.00  0.00    +0.000 C 
ATOM      4  C   UNL     1     -32.014  17.751  -1.033  0.00  0.00    +0.000 C 
ATOM      5  C   UNL     1     -31.466  16.285  -1.232  0.00  0.00    +0.000 C 
ATOM      6  C   UNL     1     -33.693  21.538   0.250  0.00  0.00    +0.000 C 
ATOM      7  C   UNL     1     -34.021  19.316  -1.022  0.00  0.00    +0.000 C 
ATOM      8  C   UNL     1     -29.910  16.342  -1.104  0.00  0.00    +0.002 C 
ATOM      9  C   UNL     1     -33.546  17.868  -1.151  0.00  0.00    +0.000 C 
ATOM     10  C   UNL     1     -31.420  20.894  -0.394  0.00  0.00    +0.000 C 
ATOM     11  C   UNL     1     -30.008  18.311   0.459  0.00  0.00    +0.000 C 
ATOM     12  C   UNL     1     -32.471  21.996  -0.554  0.00  0.00    +0.000 C 
ATOM     13  C   UNL     1     -29.462  16.901   0.252  0.00  0.00    +0.000 C 
ATOM     14  C   UNL     1     -31.800  15.771  -2.663  0.00  0.00    +0.002 C 
ATOM     15  C   UNL     1     -34.377  19.426   1.478  0.00  0.00    +0.000 C 
ATOM     16  C   UNL     1     -29.230  14.995  -1.402  0.00  0.00    +0.029 C 
ATOM     17  C   UNL     1     -32.099  15.313  -0.204  0.00  0.00    +0.000 C 
ATOM     18  C   UNL     1     -31.127  14.437  -3.011  0.00  0.00    +0.029 C 
ATOM     19  C   UNL     1     -29.619  14.440  -2.774  0.00  0.00    +0.111 C 
ENDROOT
BRANCH  19  20
ATOM     20  O   UNL     1     -28.970  15.189  -3.802  0.00  0.00    -0.384 OA
ATOM     21  H   UNL     1     -29.418  16.042  -3.911  0.00  0.00    +0.210 HD
ENDBRANCH  19  20
BRANCH   6  22
ATOM     22  C   UNL     1     -34.997  22.098  -0.304  0.00  0.00    +0.000 C 
ATOM     23  C   UNL     1     -34.715  22.959  -1.539  0.00  0.00    +0.000 C 
BRANCH  22  24
ATOM     24  C   UNL     1     -35.744  22.883   0.793  0.00  0.00    +0.010 C 
BRANCH  24  25
ATOM     25  C   UNL     1     -35.078  22.806   2.167  0.00  0.00    +0.085 C 
BRANCH  25  28
ATOM     26  O   UNL     1     -36.659  22.773   4.001  0.00  0.00    -0.275 OA
ATOM     27  N   UNL     1     -35.771  24.805   3.308  0.00  0.00    -0.303 N 
ATOM     28  C   UNL     1     -35.931  23.428   3.260  0.00  0.00    +0.223 C 
ATOM     29  H   UNL     1     -35.159  25.229   2.664  0.00  0.00    +0.149 HD
BRANCH  27  30
ATOM     30  C   UNL     1     -36.459  25.647   4.260  0.00  0.00    +0.115 C 
BRANCH  30  31
ATOM     31  C   UNL     1     -35.706  25.760   5.572  0.00  0.00    +0.179 C 
BRANCH  31  32
ATOM     32  S   UNL     1     -34.020  26.232   5.341  0.00  0.00    +0.024 S 
ATOM     33  O   UNL     1     -34.284  27.450   4.288  0.00  0.00    -0.069 OA
ATOM     34  O   UNL     1     -33.323  25.161   4.651  0.00  0.00    -0.069 OA
ATOM     35  O   UNL     1     -33.517  26.790   6.583  0.00  0.00    -0.069 OA
ENDBRANCH  31  32
ENDBRANCH  30  31
ENDBRANCH  27  30
ENDBRANCH  25  28
ENDBRANCH  24  25
ENDBRANCH  22  24
ENDBRANCH   6  22
TORSDOF 8
ENDMDL
MODEL 5
REMARK VINA RESULT:      -6.1      1.854      2.099
REMARK  Name = 53477716
REMARK  8 active torsions:
REMARK  status: ('A' for Active; 'I' for Inactive)
REMARK    1  A    between atoms: C_6  and  C_22
REMARK    2  A    between atoms: C_19  and  O_20
REMARK    3  A    between atoms: C_22  and  C_24
REMARK    4  A    between atoms: C_24  and  C_25
REMARK    5  A    between atoms: C_25  and  C_28
REMARK    6  A    between atoms: N_27  and  C_30
REMARK    7  A    between atoms: C_30  and  C_31
REMARK    8  A    between atoms: C_31  and  S_32
REMARK                            x       y       z     vdW  Elec       q    Type
REMARK                         _______ _______ _______ _____ _____    ______ ____
ROOT
ATOM      1  C   UNL     1     -34.875  20.143   0.787  0.00  0.00    +0.000 C 
ATOM      2  C   UNL     1     -34.582  21.541   0.192  0.00  0.00    +0.000 C 
ATOM      3  C   UNL     1     -35.324  22.698   0.899  0.00  0.00    +0.000 C 
ATOM      4  C   UNL     1     -35.167  22.668   2.445  0.00  0.00    +0.000 C 
ATOM      5  C   UNL     1     -35.920  23.864   3.146  0.00  0.00    +0.000 C 
ATOM      6  C   UNL     1     -33.768  19.297   0.102  0.00  0.00    +0.000 C 
ATOM      7  C   UNL     1     -34.753  20.159   2.327  0.00  0.00    +0.000 C 
ATOM      8  C   UNL     1     -35.399  25.190   2.504  0.00  0.00    +0.002 C 
ATOM      9  C   UNL     1     -35.560  21.279   2.986  0.00  0.00    +0.000 C 
ATOM     10  C   UNL     1     -33.047  21.635   0.192  0.00  0.00    +0.000 C 
ATOM     11  C   UNL     1     -34.920  24.058   0.308  0.00  0.00    +0.000 C 
ATOM     12  C   UNL     1     -32.527  20.197   0.125  0.00  0.00    +0.000 C 
ATOM     13  C   UNL     1     -35.628  25.227   0.988  0.00  0.00    +0.000 C 
ATOM     14  C   UNL     1     -35.573  23.910   4.662  0.00  0.00    +0.002 C 
ATOM     15  C   UNL     1     -36.268  19.637   0.372  0.00  0.00    +0.000 C 
ATOM     16  C   UNL     1     -35.960  26.451   3.182  0.00  0.00    +0.029 C 
ATOM     17  C   UNL     1     -37.456  23.713   3.001  0.00  0.00    +0.000 C 
ATOM     18  C   UNL     1     -36.097  25.161   5.377  0.00  0.00    +0.029 C 
ATOM     19  C   UNL     1     -35.696  26.464   4.689  0.00  0.00    +0.111 C 
ENDROOT
BRANCH  19  20
ATOM     20  O   UNL     1     -34.317  26.737   4.938  0.00  0.00    -0.384 OA
ATOM     21  H   UNL     1     -34.235  27.275   5.741  0.00  0.00    +0.210 HD
ENDBRANCH  19  20
BRANCH   6  22
ATOM     22  C   UNL     1     -33.502  17.923   0.702  0.00  0.00    +0.000 C 
ATOM     23  C   UNL     1     -32.013  17.774   1.030  0.00  0.00    +0.000 C 
BRANCH  22  24
ATOM     24  C   UNL     1     -33.998  16.821  -0.256  0.00  0.00    +0.010 C 
BRANCH  24  25
ATOM     25  C   UNL     1     -33.672  17.092  -1.725  0.00  0.00    +0.085 C 
BRANCH  25  28
ATOM     26  O   UNL     1     -33.359  15.797  -3.748  0.00  0.00    -0.275 OA
ATOM     27  N   UNL     1     -33.608  14.688  -1.720  0.00  0.00    -0.303 N 
ATOM     28  C   UNL     1     -33.529  15.811  -2.531  0.00  0.00    +0.223 C 
ATOM     29  H   UNL     1     -33.746  14.816  -0.754  0.00  0.00    +0.149 HD
BRANCH  27  30
ATOM     30  C   UNL     1     -33.494  13.340  -2.227  0.00  0.00    +0.115 C 
BRANCH  30  31
ATOM     31  C   UNL     1     -34.614  12.446  -1.729  0.00  0.00    +0.179 C 
BRANCH  31  32
ATOM     32  S   UNL     1     -36.208  13.033  -2.211  0.00  0.00    +0.024 S 
ATOM     33  O   UNL     1     -36.342  14.218  -1.098  0.00  0.00    -0.069 OA
ATOM     34  O   UNL     1     -37.193  12.007  -1.922  0.00  0.00    -0.069 OA
ATOM     35  O   UNL     1     -36.103  13.638  -3.526  0.00  0.00    -0.069 OA
ENDBRANCH  31  32
ENDBRANCH  30  31
ENDBRANCH  27  30
ENDBRANCH  25  28
ENDBRANCH  24  25
ENDBRANCH  22  24
ENDBRANCH   6  22
TORSDOF 8
ENDMDL
MODEL 6
REMARK VINA RESULT:      -6.0      4.352      9.174
REMARK  Name = 53477716
REMARK  8 active torsions:
REMARK  status: ('A' for Active; 'I' for Inactive)
REMARK    1  A    between atoms: C_6  and  C_22
REMARK    2  A    between atoms: C_19  and  O_20
REMARK    3  A    between atoms: C_22  and  C_24
REMARK    4  A    between atoms: C_24  and  C_25
REMARK    5  A    between atoms: C_25  and  C_28
REMARK    6  A    between atoms: N_27  and  C_30
REMARK    7  A    between atoms: C_30  and  C_31
REMARK    8  A    between atoms: C_31  and  S_32
REMARK                            x       y       z     vdW  Elec       q    Type
REMARK                         _______ _______ _______ _____ _____    ______ ____
ROOT
ATOM      1  C   UNL     1     -35.967  21.785   1.633  0.00  0.00    +0.000 C 
ATOM      2  C   UNL     1     -34.735  22.175   0.783  0.00  0.00    +0.000 C 
ATOM      3  C   UNL     1     -33.671  21.061   0.659  0.00  0.00    +0.000 C 
ATOM      4  C   UNL     1     -34.271  19.691   0.237  0.00  0.00    +0.000 C 
ATOM      5  C   UNL     1     -33.168  18.571   0.103  0.00  0.00    +0.000 C 
ATOM      6  C   UNL     1     -36.939  22.944   1.287  0.00  0.00    +0.000 C 
ATOM      7  C   UNL     1     -36.511  20.400   1.216  0.00  0.00    +0.000 C 
ATOM      8  C   UNL     1     -32.082  19.095  -0.890  0.00  0.00    +0.002 C 
ATOM      9  C   UNL     1     -35.434  19.314   1.175  0.00  0.00    +0.000 C 
ATOM     10  C   UNL     1     -35.335  22.674  -0.543  0.00  0.00    +0.000 C 
ATOM     11  C   UNL     1     -32.521  21.492  -0.264  0.00  0.00    +0.000 C 
ATOM     12  C   UNL     1     -36.744  23.174  -0.216  0.00  0.00    +0.000 C 
ATOM     13  C   UNL     1     -31.454  20.412  -0.416  0.00  0.00    +0.000 C 
ATOM     14  C   UNL     1     -33.779  17.278  -0.512  0.00  0.00    +0.002 C 
ATOM     15  C   UNL     1     -35.638  21.793   3.136  0.00  0.00    +0.000 C 
ATOM     16  C   UNL     1     -31.002  18.049  -1.212  0.00  0.00    +0.029 C 
ATOM     17  C   UNL     1     -32.567  18.217   1.487  0.00  0.00    +0.000 C 
ATOM     18  C   UNL     1     -32.736  16.212  -0.867  0.00  0.00    +0.029 C 
ATOM     19  C   UNL     1     -31.600  16.743  -1.738  0.00  0.00    +0.111 C 
ENDROOT
BRANCH  19  20
ATOM     20  O   UNL     1     -32.064  16.925  -3.076  0.00  0.00    -0.384 OA
ATOM     21  H   UNL     1     -32.248  17.866  -3.228  0.00  0.00    +0.210 HD
ENDBRANCH  19  20
BRANCH   6  22
ATOM     22  C   UNL     1     -38.401  22.732   1.659  0.00  0.00    +0.000 C 
ATOM     23  C   UNL     1     -39.212  22.377   0.409  0.00  0.00    +0.000 C 
BRANCH  22  24
ATOM     24  C   UNL     1     -38.953  23.982   2.374  0.00  0.00    +0.010 C 
BRANCH  24  25
ATOM     25  C   UNL     1     -37.964  24.618   3.352  0.00  0.00    +0.085 C 
BRANCH  25  28
ATOM     26  O   UNL     1     -37.992  26.803   2.308  0.00  0.00    -0.275 OA
ATOM     27  N   UNL     1     -35.956  25.870   2.929  0.00  0.00    -0.303 N 
ATOM     28  C   UNL     1     -37.337  25.887   2.799  0.00  0.00    +0.223 C 
ATOM     29  H   UNL     1     -35.533  25.082   3.339  0.00  0.00    +0.149 HD
BRANCH  27  30
ATOM     30  C   UNL     1     -35.109  26.957   2.493  0.00  0.00    +0.115 C 
BRANCH  30  31
ATOM     31  C   UNL     1     -34.242  27.492   3.616  0.00  0.00    +0.179 C 
BRANCH  31  32
ATOM     32  S   UNL     1     -34.060  26.334   4.936  0.00  0.00    +0.024 S 
ATOM     33  O   UNL     1     -32.954  27.167   5.798  0.00  0.00    -0.069 OA
ATOM     34  O   UNL     1     -33.439  25.128   4.420  0.00  0.00    -0.069 OA
ATOM     35  O   UNL     1     -35.300  26.288   5.690  0.00  0.00    -0.069 OA
ENDBRANCH  31  32
ENDBRANCH  30  31
ENDBRANCH  27  30
ENDBRANCH  25  28
ENDBRANCH  24  25
ENDBRANCH  22  24
ENDBRANCH   6  22
TORSDOF 8
ENDMDL
MODEL 7
REMARK VINA RESULT:      -6.0      4.573      9.543
REMARK  Name = 53477716
REMARK  8 active torsions:
REMARK  status: ('A' for Active; 'I' for Inactive)
REMARK    1  A    between atoms: C_6  and  C_22
REMARK    2  A    between atoms: C_19  and  O_20
REMARK    3  A    between atoms: C_22  and  C_24
REMARK    4  A    between atoms: C_24  and  C_25
REMARK    5  A    between atoms: C_25  and  C_28
REMARK    6  A    between atoms: N_27  and  C_30
REMARK    7  A    between atoms: C_30  and  C_31
REMARK    8  A    between atoms: C_31  and  S_32
REMARK                            x       y       z     vdW  Elec       q    Type
REMARK                         _______ _______ _______ _____ _____    ______ ____
ROOT
ATOM      1  C   UNL     1     -33.210  19.581   0.385  0.00  0.00    +0.000 C 
ATOM      2  C   UNL     1     -31.865  20.320   0.191  0.00  0.00    +0.000 C 
ATOM      3  C   UNL     1     -30.804  19.510  -0.588  0.00  0.00    +0.000 C 
ATOM      4  C   UNL     1     -31.347  18.912  -1.916  0.00  0.00    +0.000 C 
ATOM      5  C   UNL     1     -30.245  18.102  -2.702  0.00  0.00    +0.000 C 
ATOM      6  C   UNL     1     -34.113  20.742   0.879  0.00  0.00    +0.000 C 
ATOM      7  C   UNL     1     -33.699  18.962  -0.943  0.00  0.00    +0.000 C 
ATOM      8  C   UNL     1     -29.023  19.052  -2.913  0.00  0.00    +0.002 C 
ATOM      9  C   UNL     1     -32.637  18.113  -1.643  0.00  0.00    +0.000 C 
ATOM     10  C   UNL     1     -32.264  21.669  -0.432  0.00  0.00    +0.000 C 
ATOM     11  C   UNL     1     -29.529  20.338  -0.812  0.00  0.00    +0.000 C 
ATOM     12  C   UNL     1     -33.702  21.942   0.017  0.00  0.00    +0.000 C 
ATOM     13  C   UNL     1     -28.459  19.573  -1.586  0.00  0.00    +0.000 C 
ATOM     14  C   UNL     1     -30.771  17.694  -4.109  0.00  0.00    +0.002 C 
ATOM     15  C   UNL     1     -33.102  18.491   1.466  0.00  0.00    +0.000 C 
ATOM     16  C   UNL     1     -27.916  18.428  -3.781  0.00  0.00    +0.029 C 
ATOM     17  C   UNL     1     -29.853  16.813  -1.935  0.00  0.00    +0.000 C 
ATOM     18  C   UNL     1     -29.696  17.084  -5.016  0.00  0.00    +0.029 C 
ATOM     19  C   UNL     1     -28.443  17.947  -5.134  0.00  0.00    +0.111 C 
ENDROOT
BRANCH  19  20
ATOM     20  O   UNL     1     -28.707  19.068  -5.978  0.00  0.00    -0.384 OA
ATOM     21  H   UNL     1     -27.918  19.268  -6.505  0.00  0.00    +0.210 HD
ENDBRANCH  19  20
BRANCH   6  22
ATOM     22  C   UNL     1     -35.615  20.490   0.845  0.00  0.00    +0.000 C 
ATOM     23  C   UNL     1     -36.304  21.543  -0.028  0.00  0.00    +0.000 C 
BRANCH  22  24
ATOM     24  C   UNL     1     -36.180  20.466   2.281  0.00  0.00    +0.010 C 
BRANCH  24  25
ATOM     25  C   UNL     1     -35.550  21.507   3.207  0.00  0.00    +0.085 C 
BRANCH  25  28
ATOM     26  O   UNL     1     -37.667  22.682   3.154  0.00  0.00    -0.275 OA
ATOM     27  N   UNL     1     -35.839  23.686   4.180  0.00  0.00    -0.303 N 
ATOM     28  C   UNL     1     -36.486  22.669   3.493  0.00  0.00    +0.223 C 
ATOM     29  H   UNL     1     -34.887  23.570   4.402  0.00  0.00    +0.149 HD
BRANCH  27  30
ATOM     30  C   UNL     1     -36.498  24.906   4.587  0.00  0.00    +0.115 C 
BRANCH  30  31
ATOM     31  C   UNL     1     -35.701  25.665   5.632  0.00  0.00    +0.179 C 
BRANCH  31  32
ATOM     32  S   UNL     1     -34.154  26.243   5.008  0.00  0.00    +0.024 S 
ATOM     33  O   UNL     1     -33.536  26.765   6.425  0.00  0.00    -0.069 OA
ATOM     34  O   UNL     1     -34.393  27.391   4.151  0.00  0.00    -0.069 OA
ATOM     35  O   UNL     1     -33.379  25.103   4.553  0.00  0.00    -0.069 OA
ENDBRANCH  31  32
ENDBRANCH  30  31
ENDBRANCH  27  30
ENDBRANCH  25  28
ENDBRANCH  24  25
ENDBRANCH  22  24
ENDBRANCH   6  22
TORSDOF 8
ENDMDL
MODEL 8
REMARK VINA RESULT:      -5.9      5.495      9.458
REMARK  Name = 53477716
REMARK  8 active torsions:
REMARK  status: ('A' for Active; 'I' for Inactive)
REMARK    1  A    between atoms: C_6  and  C_22
REMARK    2  A    between atoms: C_19  and  O_20
REMARK    3  A    between atoms: C_22  and  C_24
REMARK    4  A    between atoms: C_24  and  C_25
REMARK    5  A    between atoms: C_25  and  C_28
REMARK    6  A    between atoms: N_27  and  C_30
REMARK    7  A    between atoms: C_30  and  C_31
REMARK    8  A    between atoms: C_31  and  S_32
REMARK                            x       y       z     vdW  Elec       q    Type
REMARK                         _______ _______ _______ _____ _____    ______ ____
ROOT
ATOM      1  C   UNL     1     -35.603  21.691   0.995  0.00  0.00    +0.000 C 
ATOM      2  C   UNL     1     -35.093  20.322   1.505  0.00  0.00    +0.000 C 
ATOM      3  C   UNL     1     -33.980  19.695   0.635  0.00  0.00    +0.000 C 
ATOM      4  C   UNL     1     -32.820  20.681   0.326  0.00  0.00    +0.000 C 
ATOM      5  C   UNL     1     -31.689  20.017  -0.552  0.00  0.00    +0.000 C 
ATOM      6  C   UNL     1     -36.425  22.171   2.221  0.00  0.00    +0.000 C 
ATOM      7  C   UNL     1     -34.424  22.630   0.657  0.00  0.00    +0.000 C 
ATOM      8  C   UNL     1     -31.215  18.726   0.187  0.00  0.00    +0.002 C 
ATOM      9  C   UNL     1     -33.384  21.989  -0.264  0.00  0.00    +0.000 C 
ATOM     10  C   UNL     1     -34.720  20.584   2.975  0.00  0.00    +0.000 C 
ATOM     11  C   UNL     1     -33.470  18.382   1.248  0.00  0.00    +0.000 C 
ATOM     12  C   UNL     1     -35.581  21.763   3.434  0.00  0.00    +0.000 C 
ATOM     13  C   UNL     1     -32.364  17.737   0.418  0.00  0.00    +0.000 C 
ATOM     14  C   UNL     1     -30.463  20.969  -0.668  0.00  0.00    +0.002 C 
ATOM     15  C   UNL     1     -36.517  21.527  -0.232  0.00  0.00    +0.000 C 
ATOM     16  C   UNL     1     -30.021  18.041  -0.499  0.00  0.00    +0.029 C 
ATOM     17  C   UNL     1     -32.206  19.712  -1.982  0.00  0.00    +0.000 C 
ATOM     18  C   UNL     1     -29.241  20.322  -1.330  0.00  0.00    +0.029 C 
ATOM     19  C   UNL     1     -28.840  18.994  -0.693  0.00  0.00    +0.111 C 
ENDROOT
BRANCH  19  20
ATOM     20  O   UNL     1     -28.199  19.234   0.561  0.00  0.00    -0.384 OA
ATOM     21  H   UNL     1     -27.723  20.078   0.523  0.00  0.00    +0.210 HD
ENDBRANCH  19  20
BRANCH   6  22
ATOM     22  C   UNL     1     -36.802  23.646   2.243  0.00  0.00    +0.000 C 
ATOM     23  C   UNL     1     -36.169  24.330   3.459  0.00  0.00    +0.000 C 
BRANCH  22  24
ATOM     24  C   UNL     1     -38.336  23.802   2.222  0.00  0.00    +0.010 C 
BRANCH  24  25
ATOM     25  C   UNL     1     -38.868  24.791   3.260  0.00  0.00    +0.085 C 
BRANCH  25  28
ATOM     26  O   UNL     1     -39.134  26.786   1.913  0.00  0.00    -0.275 OA
ATOM     27  N   UNL     1     -40.997  25.864   2.951  0.00  0.00    -0.303 N 
ATOM     28  C   UNL     1     -39.650  25.930   2.626  0.00  0.00    +0.223 C 
ATOM     29  H   UNL     1     -41.304  25.132   3.533  0.00  0.00    +0.149 HD
BRANCH  27  30
ATOM     30  C   UNL     1     -41.971  26.819   2.475  0.00  0.00    +0.115 C 
BRANCH  30  31
ATOM     31  C   UNL     1     -43.114  27.007   3.454  0.00  0.00    +0.179 C 
BRANCH  31  32
ATOM     32  S   UNL     1     -43.154  28.635   4.136  0.00  0.00    +0.024 S 
ATOM     33  O   UNL     1     -43.123  29.456   2.726  0.00  0.00    -0.069 OA
ATOM     34  O   UNL     1     -41.911  28.878   4.845  0.00  0.00    -0.069 OA
ATOM     35  O   UNL     1     -44.444  28.844   4.769  0.00  0.00    -0.069 OA
ENDBRANCH  31  32
ENDBRANCH  30  31
ENDBRANCH  27  30
ENDBRANCH  25  28
ENDBRANCH  24  25
ENDBRANCH  22  24
ENDBRANCH   6  22
TORSDOF 8
ENDMDL
MODEL 9
REMARK VINA RESULT:      -5.9      6.139      9.103
REMARK  Name = 53477716
REMARK  8 active torsions:
REMARK  status: ('A' for Active; 'I' for Inactive)
REMARK    1  A    between atoms: C_6  and  C_22
REMARK    2  A    between atoms: C_19  and  O_20
REMARK    3  A    between atoms: C_22  and  C_24
REMARK    4  A    between atoms: C_24  and  C_25
REMARK    5  A    between atoms: C_25  and  C_28
REMARK    6  A    between atoms: N_27  and  C_30
REMARK    7  A    between atoms: C_30  and  C_31
REMARK    8  A    between atoms: C_31  and  S_32
REMARK                            x       y       z     vdW  Elec       q    Type
REMARK                         _______ _______ _______ _____ _____    ______ ____
ROOT
ATOM      1  C   UNL     1     -40.182  25.299   1.235  0.00  0.00    +0.000 C 
ATOM      2  C   UNL     1     -41.030  26.272   0.383  0.00  0.00    +0.000 C 
ATOM      3  C   UNL     1     -42.289  26.812   1.100  0.00  0.00    +0.000 C 
ATOM      4  C   UNL     1     -41.988  27.373   2.518  0.00  0.00    +0.000 C 
ATOM      5  C   UNL     1     -43.283  27.931   3.226  0.00  0.00    +0.000 C 
ATOM      6  C   UNL     1     -38.886  25.220   0.386  0.00  0.00    +0.000 C 
ATOM      7  C   UNL     1     -39.940  25.868   2.651  0.00  0.00    +0.000 C 
ATOM      8  C   UNL     1     -43.925  28.988   2.272  0.00  0.00    +0.002 C 
ATOM      9  C   UNL     1     -41.223  26.324   3.347  0.00  0.00    +0.000 C 
ATOM     10  C   UNL     1     -40.022  27.337  -0.085  0.00  0.00    +0.000 C 
ATOM     11  C   UNL     1     -43.031  27.833   0.224  0.00  0.00    +0.000 C 
ATOM     12  C   UNL     1     -38.650  26.659  -0.091  0.00  0.00    +0.000 C 
ATOM     13  C   UNL     1     -44.277  28.393   0.903  0.00  0.00    +0.000 C 
ATOM     14  C   UNL     1     -42.908  28.659   4.549  0.00  0.00    +0.002 C 
ATOM     15  C   UNL     1     -40.844  23.913   1.329  0.00  0.00    +0.000 C 
ATOM     16  C   UNL     1     -45.134  29.708   2.893  0.00  0.00    +0.029 C 
ATOM     17  C   UNL     1     -44.267  26.781   3.565  0.00  0.00    +0.000 C 
ATOM     18  C   UNL     1     -44.079  29.407   5.195  0.00  0.00    +0.029 C 
ATOM     19  C   UNL     1     -44.794  30.357   4.236  0.00  0.00    +0.111 C 
ENDROOT
BRANCH  19  20
ATOM     20  O   UNL     1     -43.995  31.521   4.024  0.00  0.00    -0.384 OA
ATOM     21  H   UNL     1     -44.392  32.273   4.489  0.00  0.00    +0.210 HD
ENDBRANCH  19  20
BRANCH   6  22
ATOM     22  C   UNL     1     -37.663  24.628   1.075  0.00  0.00    +0.000 C 
ATOM     23  C   UNL     1     -36.434  25.502   0.803  0.00  0.00    +0.000 C 
BRANCH  22  24
ATOM     24  C   UNL     1     -37.452  23.170   0.618  0.00  0.00    +0.010 C 
BRANCH  24  25
ATOM     25  C   UNL     1     -37.592  22.146   1.744  0.00  0.00    +0.085 C 
BRANCH  25  28
ATOM     26  O   UNL     1     -35.227  21.716   2.033  0.00  0.00    -0.275 OA
ATOM     27  N   UNL     1     -36.527  22.189   3.899  0.00  0.00    -0.303 N 
ATOM     28  C   UNL     1     -36.310  21.986   2.544  0.00  0.00    +0.223 C 
ATOM     29  H   UNL     1     -37.440  22.401   4.201  0.00  0.00    +0.149 HD
BRANCH  27  30
ATOM     30  C   UNL     1     -35.477  22.106   4.888  0.00  0.00    +0.115 C 
BRANCH  30  31
ATOM     31  C   UNL     1     -35.487  23.291   5.834  0.00  0.00    +0.179 C 
BRANCH  31  32
ATOM     32  S   UNL     1     -35.509  24.835   4.977  0.00  0.00    +0.024 S 
ATOM     33  O   UNL     1     -37.097  24.845   4.601  0.00  0.00    -0.069 OA
ATOM     34  O   UNL     1     -34.741  24.703   3.752  0.00  0.00    -0.069 OA
ATOM     35  O   UNL     1     -35.249  25.900   5.928  0.00  0.00    -0.069 OA
ENDBRANCH  31  32
ENDBRANCH  30  31
ENDBRANCH  27  30
ENDBRANCH  25  28
ENDBRANCH  24  25
ENDBRANCH  22  24
ENDBRANCH   6  22
TORSDOF 8
ENDMDL
