MODEL 1
REMARK VINA RESULT:      -6.5      0.000      0.000
REMARK  Name = 5316900
REMARK  6 active torsions:
REMARK  status: ('A' for Active; 'I' for Inactive)
REMARK    1  A    between atoms: C_4  and  C_12
REMARK    2  A    between atoms: C_6  and  O_22
REMARK    3  A    between atoms: C_8  and  O_24
REMARK    4  A    between atoms: C_10  and  O_26
REMARK    5  A    between atoms: C_15  and  O_18
REMARK    6  A    between atoms: C_17  and  O_20
REMARK                            x       y       z     vdW  Elec       q    Type
REMARK                         _______ _______ _______ _____ _____    ______ ____
ROOT
ATOM      1  O   UNL     1     -34.953  26.309   3.481  0.00  0.00    -0.450 OA
ATOM      2  O   UNL     1     -38.173  27.272   1.178  0.00  0.00    -0.283 OA
ATOM      3  C   UNL     1     -36.103  27.934   2.093  0.00  0.00    +0.110 A 
ATOM      4  C   UNL     1     -35.980  25.405   3.260  0.00  0.00    +0.182 A 
ATOM      5  C   UNL     1     -35.032  27.545   2.893  0.00  0.00    +0.155 A 
ATOM      6  C   UNL     1     -37.073  25.659   2.517  0.00  0.00    +0.212 A 
ATOM      7  C   UNL     1     -37.203  26.985   1.865  0.00  0.00    +0.238 A 
ATOM      8  C   UNL     1     -36.129  29.209   1.520  0.00  0.00    +0.143 C 
ATOM      9  C   UNL     1     -33.977  28.428   3.126  0.00  0.00    +0.074 C 
ATOM     10  C   UNL     1     -34.000  29.701   2.555  0.00  0.00    +0.140 C 
ATOM     11  C   UNL     1     -35.074  30.090   1.754  0.00  0.00    +0.073 C 
ENDROOT
BRANCH   4  12
ATOM     12  C   UNL     1     -35.772  24.118   3.948  0.00  0.00    +0.041 C 
ATOM     13  C   UNL     1     -35.664  22.940   3.209  0.00  0.00    +0.043 C 
ATOM     14  C   UNL     1     -35.682  24.080   5.340  0.00  0.00    +0.006 C 
ATOM     15  C   UNL     1     -35.467  21.723   3.862  0.00  0.00    +0.172 C 
ATOM     16  C   UNL     1     -35.486  22.862   5.993  0.00  0.00    +0.040 C 
ATOM     17  C   UNL     1     -35.377  21.684   5.253  0.00  0.00    +0.168 C 
BRANCH  15  18
ATOM     18  O   UNL     1     -35.363  20.580   3.129  0.00  0.00    -0.468 OA
ATOM     19  C   UNL     1     -36.234  20.448   2.007  0.00  0.00    +0.253 C 
ENDBRANCH  15  18
BRANCH  17  20
ATOM     20  O   UNL     1     -35.185  20.502   5.901  0.00  0.00    -0.503 OA
ATOM     21  H   UNL     1     -35.302  20.452   6.830  0.00  0.00    +0.292 HD
ENDBRANCH  17  20
ENDBRANCH   4  12
BRANCH   6  22
ATOM     22  O   UNL     1     -38.093  24.748   2.344  0.00  0.00    -0.465 OA
ATOM     23  C   UNL     1     -39.108  24.940   3.311  0.00  0.00    +0.253 C 
ENDBRANCH   6  22
BRANCH   8  24
ATOM     24  O   UNL     1     -37.154  29.638   0.732  0.00  0.00    -0.505 OA
ATOM     25  H   UNL     1     -37.980  29.198   0.757  0.00  0.00    +0.292 HD
ENDBRANCH   8  24
BRANCH  10  26
ATOM     26  O   UNL     1     -32.972  30.565   2.781  0.00  0.00    -0.505 OA
ATOM     27  H   UNL     1     -32.143  30.428   2.367  0.00  0.00    +0.292 HD
ENDBRANCH  10  26
TORSDOF 6
ENDMDL
MODEL 2
REMARK VINA RESULT:      -6.1      2.945      6.540
REMARK  Name = 5316900
REMARK  6 active torsions:
REMARK  status: ('A' for Active; 'I' for Inactive)
REMARK    1  A    between atoms: C_4  and  C_12
REMARK    2  A    between atoms: C_6  and  O_22
REMARK    3  A    between atoms: C_8  and  O_24
REMARK    4  A    between atoms: C_10  and  O_26
REMARK    5  A    between atoms: C_15  and  O_18
REMARK    6  A    between atoms: C_17  and  O_20
REMARK                            x       y       z     vdW  Elec       q    Type
REMARK                         _______ _______ _______ _____ _____    ______ ____
ROOT
ATOM      1  O   UNL     1     -35.181  22.167   2.576  0.00  0.00    -0.450 OA
ATOM      2  O   UNL     1     -39.191  22.036   1.864  0.00  0.00    -0.283 OA
ATOM      3  C   UNL     1     -37.068  21.071   1.514  0.00  0.00    +0.110 A 
ATOM      4  C   UNL     1     -36.044  23.105   3.122  0.00  0.00    +0.182 A 
ATOM      5  C   UNL     1     -35.708  21.172   1.793  0.00  0.00    +0.155 A 
ATOM      6  C   UNL     1     -37.374  23.124   2.923  0.00  0.00    +0.212 A 
ATOM      7  C   UNL     1     -37.987  22.070   2.079  0.00  0.00    +0.238 A 
ATOM      8  C   UNL     1     -37.548  20.034   0.708  0.00  0.00    +0.143 C 
ATOM      9  C   UNL     1     -34.815  20.237   1.268  0.00  0.00    +0.074 C 
ATOM     10  C   UNL     1     -35.290  19.201   0.462  0.00  0.00    +0.140 C 
ATOM     11  C   UNL     1     -36.654  19.100   0.183  0.00  0.00    +0.073 C 
ENDROOT
BRANCH   4  12
ATOM     12  C   UNL     1     -35.350  24.116   3.940  0.00  0.00    +0.041 C 
ATOM     13  C   UNL     1     -34.311  24.866   3.390  0.00  0.00    +0.043 C 
ATOM     14  C   UNL     1     -35.734  24.322   5.266  0.00  0.00    +0.006 C 
ATOM     15  C   UNL     1     -33.655  25.822   4.164  0.00  0.00    +0.172 C 
ATOM     16  C   UNL     1     -35.077  25.279   6.041  0.00  0.00    +0.040 C 
ATOM     17  C   UNL     1     -34.038  26.029   5.490  0.00  0.00    +0.168 C 
BRANCH  15  18
ATOM     18  O   UNL     1     -32.642  26.549   3.615  0.00  0.00    -0.468 OA
ATOM     19  C   UNL     1     -32.188  26.153   2.323  0.00  0.00    +0.253 C 
ENDBRANCH  15  18
BRANCH  17  20
ATOM     20  O   UNL     1     -33.405  26.960   6.256  0.00  0.00    -0.503 OA
ATOM     21  H   UNL     1     -33.904  27.597   6.728  0.00  0.00    +0.292 HD
ENDBRANCH  17  20
ENDBRANCH   4  12
BRANCH   6  22
ATOM     22  O   UNL     1     -38.200  24.091   3.454  0.00  0.00    -0.465 OA
ATOM     23  C   UNL     1     -38.336  25.181   2.562  0.00  0.00    +0.253 C 
ENDBRANCH   6  22
BRANCH   8  24
ATOM     24  O   UNL     1     -38.868  19.891   0.404  0.00  0.00    -0.505 OA
ATOM     25  H   UNL     1     -39.478  19.649   1.072  0.00  0.00    +0.292 HD
ENDBRANCH   8  24
BRANCH  10  26
ATOM     26  O   UNL     1     -34.422  18.288  -0.052  0.00  0.00    -0.505 OA
ATOM     27  H   UNL     1     -34.645  17.378  -0.057  0.00  0.00    +0.292 HD
ENDBRANCH  10  26
TORSDOF 6
ENDMDL
MODEL 3
REMARK VINA RESULT:      -6.0      2.385      3.984
REMARK  Name = 5316900
REMARK  6 active torsions:
REMARK  status: ('A' for Active; 'I' for Inactive)
REMARK    1  A    between atoms: C_4  and  C_12
REMARK    2  A    between atoms: C_6  and  O_22
REMARK    3  A    between atoms: C_8  and  O_24
REMARK    4  A    between atoms: C_10  and  O_26
REMARK    5  A    between atoms: C_15  and  O_18
REMARK    6  A    between atoms: C_17  and  O_20
REMARK                            x       y       z     vdW  Elec       q    Type
REMARK                         _______ _______ _______ _____ _____    ______ ____
ROOT
ATOM      1  O   UNL     1     -33.168  26.694   4.850  0.00  0.00    -0.450 OA
ATOM      2  O   UNL     1     -33.630  29.734   2.177  0.00  0.00    -0.283 OA
ATOM      3  C   UNL     1     -32.702  28.989   4.213  0.00  0.00    +0.110 A 
ATOM      4  C   UNL     1     -33.897  26.526   3.683  0.00  0.00    +0.182 A 
ATOM      5  C   UNL     1     -32.584  27.912   5.088  0.00  0.00    +0.155 A 
ATOM      6  C   UNL     1     -34.095  27.488   2.763  0.00  0.00    +0.212 A 
ATOM      7  C   UNL     1     -33.486  28.822   2.980  0.00  0.00    +0.238 A 
ATOM      8  C   UNL     1     -32.085  30.208   4.508  0.00  0.00    +0.143 C 
ATOM      9  C   UNL     1     -31.848  28.045   6.264  0.00  0.00    +0.074 C 
ATOM     10  C   UNL     1     -31.230  29.261   6.562  0.00  0.00    +0.140 C 
ATOM     11  C   UNL     1     -31.349  30.340   5.685  0.00  0.00    +0.073 C 
ENDROOT
BRANCH   4  12
ATOM     12  C   UNL     1     -34.470  25.175   3.553  0.00  0.00    +0.041 C 
ATOM     13  C   UNL     1     -35.092  24.571   4.646  0.00  0.00    +0.043 C 
ATOM     14  C   UNL     1     -34.390  24.499   2.334  0.00  0.00    +0.006 C 
ATOM     15  C   UNL     1     -35.633  23.292   4.522  0.00  0.00    +0.172 C 
ATOM     16  C   UNL     1     -34.932  23.218   2.210  0.00  0.00    +0.040 C 
ATOM     17  C   UNL     1     -35.553  22.616   3.304  0.00  0.00    +0.168 C 
BRANCH  15  18
ATOM     18  O   UNL     1     -36.238  22.713   5.596  0.00  0.00    -0.468 OA
ATOM     19  C   UNL     1     -35.396  22.031   6.524  0.00  0.00    +0.253 C 
ENDBRANCH  15  18
BRANCH  17  20
ATOM     20  O   UNL     1     -36.078  21.366   3.171  0.00  0.00    -0.503 OA
ATOM     21  H   UNL     1     -35.511  20.624   3.099  0.00  0.00    +0.292 HD
ENDBRANCH  17  20
ENDBRANCH   4  12
BRANCH   6  22
ATOM     22  O   UNL     1     -34.854  27.298   1.629  0.00  0.00    -0.465 OA
ATOM     23  C   UNL     1     -36.186  27.725   1.837  0.00  0.00    +0.253 C 
ENDBRANCH   6  22
BRANCH   8  24
ATOM     24  O   UNL     1     -32.171  31.292   3.687  0.00  0.00    -0.505 OA
ATOM     25  H   UNL     1     -31.601  32.024   3.817  0.00  0.00    +0.292 HD
ENDBRANCH   8  24
BRANCH  10  26
ATOM     26  O   UNL     1     -30.512  29.394   7.711  0.00  0.00    -0.505 OA
ATOM     27  H   UNL     1     -29.822  28.790   7.906  0.00  0.00    +0.292 HD
ENDBRANCH  10  26
TORSDOF 6
ENDMDL
MODEL 4
REMARK VINA RESULT:      -6.0      2.007      4.388
REMARK  Name = 5316900
REMARK  6 active torsions:
REMARK  status: ('A' for Active; 'I' for Inactive)
REMARK    1  A    between atoms: C_4  and  C_12
REMARK    2  A    between atoms: C_6  and  O_22
REMARK    3  A    between atoms: C_8  and  O_24
REMARK    4  A    between atoms: C_10  and  O_26
REMARK    5  A    between atoms: C_15  and  O_18
REMARK    6  A    between atoms: C_17  and  O_20
REMARK                            x       y       z     vdW  Elec       q    Type
REMARK                         _______ _______ _______ _____ _____    ______ ____
ROOT
ATOM      1  O   UNL     1     -38.710  24.364   2.737  0.00  0.00    -0.450 OA
ATOM      2  O   UNL     1     -37.420  27.927   1.240  0.00  0.00    -0.283 OA
ATOM      3  C   UNL     1     -39.171  26.360   1.435  0.00  0.00    +0.110 A 
ATOM      4  C   UNL     1     -37.432  24.836   2.993  0.00  0.00    +0.182 A 
ATOM      5  C   UNL     1     -39.550  25.133   1.972  0.00  0.00    +0.155 A 
ATOM      6  C   UNL     1     -36.940  25.998   2.525  0.00  0.00    +0.212 A 
ATOM      7  C   UNL     1     -37.812  26.860   1.691  0.00  0.00    +0.238 A 
ATOM      8  C   UNL     1     -40.071  27.100   0.662  0.00  0.00    +0.143 C 
ATOM      9  C   UNL     1     -40.833  24.636   1.742  0.00  0.00    +0.074 C 
ATOM     10  C   UNL     1     -41.734  25.372   0.972  0.00  0.00    +0.140 C 
ATOM     11  C   UNL     1     -41.353  26.602   0.433  0.00  0.00    +0.073 C 
ENDROOT
BRANCH   4  12
ATOM     12  C   UNL     1     -36.635  23.916   3.823  0.00  0.00    +0.041 C 
ATOM     13  C   UNL     1     -36.311  22.646   3.344  0.00  0.00    +0.043 C 
ATOM     14  C   UNL     1     -36.204  24.314   5.089  0.00  0.00    +0.006 C 
ATOM     15  C   UNL     1     -35.557  21.775   4.130  0.00  0.00    +0.172 C 
ATOM     16  C   UNL     1     -35.449  23.443   5.875  0.00  0.00    +0.040 C 
ATOM     17  C   UNL     1     -35.126  22.173   5.395  0.00  0.00    +0.168 C 
BRANCH  15  18
ATOM     18  O   UNL     1     -35.248  20.538   3.651  0.00  0.00    -0.468 OA
ATOM     19  C   UNL     1     -35.329  20.351   2.239  0.00  0.00    +0.253 C 
ENDBRANCH  15  18
BRANCH  17  20
ATOM     20  O   UNL     1     -34.389  21.332   6.172  0.00  0.00    -0.503 OA
ATOM     21  H   UNL     1     -34.742  20.504   6.432  0.00  0.00    +0.292 HD
ENDBRANCH  17  20
ENDBRANCH   4  12
BRANCH   6  22
ATOM     22  O   UNL     1     -35.653  26.423   2.771  0.00  0.00    -0.465 OA
ATOM     23  C   UNL     1     -34.775  25.984   1.752  0.00  0.00    +0.253 C 
ENDBRANCH   6  22
BRANCH   8  24
ATOM     24  O   UNL     1     -39.749  28.304   0.113  0.00  0.00    -0.505 OA
ATOM     25  H   UNL     1     -39.018  28.373  -0.468  0.00  0.00    +0.292 HD
ENDBRANCH   8  24
BRANCH  10  26
ATOM     26  O   UNL     1     -42.986  24.889   0.745  0.00  0.00    -0.505 OA
ATOM     27  H   UNL     1     -43.582  24.775   1.459  0.00  0.00    +0.292 HD
ENDBRANCH  10  26
TORSDOF 6
ENDMDL
MODEL 5
REMARK VINA RESULT:      -6.0      3.023      4.111
REMARK  Name = 5316900
REMARK  6 active torsions:
REMARK  status: ('A' for Active; 'I' for Inactive)
REMARK    1  A    between atoms: C_4  and  C_12
REMARK    2  A    between atoms: C_6  and  O_22
REMARK    3  A    between atoms: C_8  and  O_24
REMARK    4  A    between atoms: C_10  and  O_26
REMARK    5  A    between atoms: C_15  and  O_18
REMARK    6  A    between atoms: C_17  and  O_20
REMARK                            x       y       z     vdW  Elec       q    Type
REMARK                         _______ _______ _______ _____ _____    ______ ____
ROOT
ATOM      1  O   UNL     1     -34.321  24.154   2.228  0.00  0.00    -0.450 OA
ATOM      2  O   UNL     1     -34.846  25.298   6.103  0.00  0.00    -0.283 OA
ATOM      3  C   UNL     1     -33.892  25.760   3.997  0.00  0.00    +0.110 A 
ATOM      4  C   UNL     1     -35.084  23.402   3.107  0.00  0.00    +0.182 A 
ATOM      5  C   UNL     1     -33.748  25.314   2.685  0.00  0.00    +0.155 A 
ATOM      6  C   UNL     1     -35.292  23.717   4.398  0.00  0.00    +0.212 A 
ATOM      7  C   UNL     1     -34.689  24.959   4.938  0.00  0.00    +0.238 A 
ATOM      8  C   UNL     1     -33.285  26.950   4.407  0.00  0.00    +0.143 C 
ATOM      9  C   UNL     1     -32.996  26.054   1.774  0.00  0.00    +0.074 C 
ATOM     10  C   UNL     1     -32.388  27.242   2.180  0.00  0.00    +0.140 C 
ATOM     11  C   UNL     1     -32.533  27.690   3.494  0.00  0.00    +0.073 C 
ENDROOT
BRANCH   4  12
ATOM     12  C   UNL     1     -35.639  22.184   2.489  0.00  0.00    +0.041 C 
ATOM     13  C   UNL     1     -36.972  22.153   2.081  0.00  0.00    +0.043 C 
ATOM     14  C   UNL     1     -34.829  21.061   2.312  0.00  0.00    +0.006 C 
ATOM     15  C   UNL     1     -37.496  21.001   1.496  0.00  0.00    +0.172 C 
ATOM     16  C   UNL     1     -35.354  19.908   1.727  0.00  0.00    +0.040 C 
ATOM     17  C   UNL     1     -36.687  19.878   1.319  0.00  0.00    +0.168 C 
BRANCH  15  18
ATOM     18  O   UNL     1     -38.800  20.984   1.102  0.00  0.00    -0.468 OA
ATOM     19  C   UNL     1     -39.721  21.750   1.875  0.00  0.00    +0.253 C 
ENDBRANCH  15  18
BRANCH  17  20
ATOM     20  O   UNL     1     -37.188  18.747   0.750  0.00  0.00    -0.503 OA
ATOM     21  H   UNL     1     -38.009  18.400   1.039  0.00  0.00    +0.292 HD
ENDBRANCH  17  20
ENDBRANCH   4  12
BRANCH   6  22
ATOM     22  O   UNL     1     -36.030  22.929   5.255  0.00  0.00    -0.465 OA
ATOM     23  C   UNL     1     -35.189  22.058   5.987  0.00  0.00    +0.253 C 
ENDBRANCH   6  22
BRANCH   8  24
ATOM     24  O   UNL     1     -33.393  27.430   5.677  0.00  0.00    -0.505 OA
ATOM     25  H   UNL     1     -33.857  26.938   6.326  0.00  0.00    +0.292 HD
ENDBRANCH   8  24
BRANCH  10  26
ATOM     26  O   UNL     1     -31.652  27.967   1.292  0.00  0.00    -0.505 OA
ATOM     27  H   UNL     1     -32.001  28.757   0.928  0.00  0.00    +0.292 HD
ENDBRANCH  10  26
TORSDOF 6
ENDMDL
MODEL 6
REMARK VINA RESULT:      -5.9      3.623      8.452
REMARK  Name = 5316900
REMARK  6 active torsions:
REMARK  status: ('A' for Active; 'I' for Inactive)
REMARK    1  A    between atoms: C_4  and  C_12
REMARK    2  A    between atoms: C_6  and  O_22
REMARK    3  A    between atoms: C_8  and  O_24
REMARK    4  A    between atoms: C_10  and  O_26
REMARK    5  A    between atoms: C_15  and  O_18
REMARK    6  A    between atoms: C_17  and  O_20
REMARK                            x       y       z     vdW  Elec       q    Type
REMARK                         _______ _______ _______ _____ _____    ______ ____
ROOT
ATOM      1  O   UNL     1     -33.847  19.735   1.513  0.00  0.00    -0.450 OA
ATOM      2  O   UNL     1     -36.840  18.022  -0.657  0.00  0.00    -0.283 OA
ATOM      3  C   UNL     1     -34.616  17.904   0.118  0.00  0.00    +0.110 A 
ATOM      4  C   UNL     1     -35.098  20.325   1.413  0.00  0.00    +0.182 A 
ATOM      5  C   UNL     1     -33.634  18.542   0.872  0.00  0.00    +0.155 A 
ATOM      6  C   UNL     1     -36.126  19.818   0.710  0.00  0.00    +0.212 A 
ATOM      7  C   UNL     1     -35.941  18.532  -0.004  0.00  0.00    +0.238 A 
ATOM      8  C   UNL     1     -34.341  16.688  -0.515  0.00  0.00    +0.143 C 
ATOM      9  C   UNL     1     -32.369  17.968   1.000  0.00  0.00    +0.074 C 
ATOM     10  C   UNL     1     -32.091  16.754   0.371  0.00  0.00    +0.140 C 
ATOM     11  C   UNL     1     -33.076  16.115  -0.385  0.00  0.00    +0.073 C 
ENDROOT
BRANCH   4  12
ATOM     12  C   UNL     1     -35.191  21.600   2.146  0.00  0.00    +0.041 C 
ATOM     13  C   UNL     1     -35.654  21.618   3.462  0.00  0.00    +0.043 C 
ATOM     14  C   UNL     1     -34.815  22.792   1.524  0.00  0.00    +0.006 C 
ATOM     15  C   UNL     1     -35.743  22.825   4.155  0.00  0.00    +0.172 C 
ATOM     16  C   UNL     1     -34.904  23.999   2.217  0.00  0.00    +0.040 C 
ATOM     17  C   UNL     1     -35.367  24.015   3.533  0.00  0.00    +0.168 C 
BRANCH  15  18
ATOM     18  O   UNL     1     -36.197  22.828   5.439  0.00  0.00    -0.468 OA
ATOM     19  C   UNL     1     -35.445  22.082   6.394  0.00  0.00    +0.253 C 
ENDBRANCH  15  18
BRANCH  17  20
ATOM     20  O   UNL     1     -35.449  25.200   4.199  0.00  0.00    -0.503 OA
ATOM     21  H   UNL     1     -35.780  25.961   3.764  0.00  0.00    +0.292 HD
ENDBRANCH  17  20
ENDBRANCH   4  12
BRANCH   6  22
ATOM     22  O   UNL     1     -37.347  20.448   0.604  0.00  0.00    -0.465 OA
ATOM     23  C   UNL     1     -37.418  21.213  -0.584  0.00  0.00    +0.253 C 
ENDBRANCH   6  22
BRANCH   8  24
ATOM     24  O   UNL     1     -35.265  16.025  -1.264  0.00  0.00    -0.505 OA
ATOM     25  H   UNL     1     -35.877  16.506  -1.786  0.00  0.00    +0.292 HD
ENDBRANCH   8  24
BRANCH  10  26
ATOM     26  O   UNL     1     -30.858  16.192   0.494  0.00  0.00    -0.505 OA
ATOM     27  H   UNL     1     -30.719  15.302   0.235  0.00  0.00    +0.292 HD
ENDBRANCH  10  26
TORSDOF 6
ENDMDL
MODEL 7
REMARK VINA RESULT:      -5.9      2.099      3.704
REMARK  Name = 5316900
REMARK  6 active torsions:
REMARK  status: ('A' for Active; 'I' for Inactive)
REMARK    1  A    between atoms: C_4  and  C_12
REMARK    2  A    between atoms: C_6  and  O_22
REMARK    3  A    between atoms: C_8  and  O_24
REMARK    4  A    between atoms: C_10  and  O_26
REMARK    5  A    between atoms: C_15  and  O_18
REMARK    6  A    between atoms: C_17  and  O_20
REMARK                            x       y       z     vdW  Elec       q    Type
REMARK                         _______ _______ _______ _____ _____    ______ ____
ROOT
ATOM      1  O   UNL     1     -35.919  25.592   2.263  0.00  0.00    -0.450 OA
ATOM      2  O   UNL     1     -34.380  25.855   6.026  0.00  0.00    -0.283 OA
ATOM      3  C   UNL     1     -34.422  26.694   3.823  0.00  0.00    +0.110 A 
ATOM      4  C   UNL     1     -36.330  24.737   3.274  0.00  0.00    +0.182 A 
ATOM      5  C   UNL     1     -34.983  26.550   2.556  0.00  0.00    +0.155 A 
ATOM      6  C   UNL     1     -35.859  24.764   4.534  0.00  0.00    +0.212 A 
ATOM      7  C   UNL     1     -34.842  25.781   4.896  0.00  0.00    +0.238 A 
ATOM      8  C   UNL     1     -33.471  27.690   4.063  0.00  0.00    +0.143 C 
ATOM      9  C   UNL     1     -34.599  27.402   1.521  0.00  0.00    +0.074 C 
ATOM     10  C   UNL     1     -33.650  28.397   1.758  0.00  0.00    +0.140 C 
ATOM     11  C   UNL     1     -33.088  28.541   3.027  0.00  0.00    +0.073 C 
ENDROOT
BRANCH   4  12
ATOM     12  C   UNL     1     -37.335  23.757   2.825  0.00  0.00    +0.041 C 
ATOM     13  C   UNL     1     -36.930  22.511   2.344  0.00  0.00    +0.043 C 
ATOM     14  C   UNL     1     -38.692  24.075   2.881  0.00  0.00    +0.006 C 
ATOM     15  C   UNL     1     -37.881  21.585   1.919  0.00  0.00    +0.172 C 
ATOM     16  C   UNL     1     -39.644  23.148   2.455  0.00  0.00    +0.040 C 
ATOM     17  C   UNL     1     -39.238  21.902   1.975  0.00  0.00    +0.168 C 
BRANCH  15  18
ATOM     18  O   UNL     1     -37.473  20.372   1.452  0.00  0.00    -0.468 OA
ATOM     19  C   UNL     1     -36.089  20.058   1.588  0.00  0.00    +0.253 C 
ENDBRANCH  15  18
BRANCH  17  20
ATOM     20  O   UNL     1     -40.177  21.006   1.562  0.00  0.00    -0.503 OA
ATOM     21  H   UNL     1     -40.562  20.414   2.178  0.00  0.00    +0.292 HD
ENDBRANCH  17  20
ENDBRANCH   4  12
BRANCH   6  22
ATOM     22  O   UNL     1     -36.265  23.878   5.507  0.00  0.00    -0.465 OA
ATOM     23  C   UNL     1     -35.338  22.817   5.640  0.00  0.00    +0.253 C 
ENDBRANCH   6  22
BRANCH   8  24
ATOM     24  O   UNL     1     -32.890  27.872   5.282  0.00  0.00    -0.505 OA
ATOM     25  H   UNL     1     -32.381  27.185   5.665  0.00  0.00    +0.292 HD
ENDBRANCH   8  24
BRANCH  10  26
ATOM     26  O   UNL     1     -33.273  29.230   0.748  0.00  0.00    -0.505 OA
ATOM     27  H   UNL     1     -33.917  29.587   0.169  0.00  0.00    +0.292 HD
ENDBRANCH  10  26
TORSDOF 6
ENDMDL
MODEL 8
REMARK VINA RESULT:      -5.8      2.856      4.043
REMARK  Name = 5316900
REMARK  6 active torsions:
REMARK  status: ('A' for Active; 'I' for Inactive)
REMARK    1  A    between atoms: C_4  and  C_12
REMARK    2  A    between atoms: C_6  and  O_22
REMARK    3  A    between atoms: C_8  and  O_24
REMARK    4  A    between atoms: C_10  and  O_26
REMARK    5  A    between atoms: C_15  and  O_18
REMARK    6  A    between atoms: C_17  and  O_20
REMARK                            x       y       z     vdW  Elec       q    Type
REMARK                         _______ _______ _______ _____ _____    ______ ____
ROOT
ATOM      1  O   UNL     1     -34.558  24.328   2.239  0.00  0.00    -0.450 OA
ATOM      2  O   UNL     1     -34.781  25.145   6.225  0.00  0.00    -0.283 OA
ATOM      3  C   UNL     1     -33.970  25.770   4.101  0.00  0.00    +0.110 A 
ATOM      4  C   UNL     1     -35.273  23.515   3.105  0.00  0.00    +0.182 A 
ATOM      5  C   UNL     1     -33.929  25.435   2.750  0.00  0.00    +0.155 A 
ATOM      6  C   UNL     1     -35.382  23.722   4.430  0.00  0.00    +0.212 A 
ATOM      7  C   UNL     1     -34.715  24.905   5.028  0.00  0.00    +0.238 A 
ATOM      8  C   UNL     1     -33.309  26.911   4.565  0.00  0.00    +0.143 C 
ATOM      9  C   UNL     1     -33.228  26.238   1.852  0.00  0.00    +0.074 C 
ATOM     10  C   UNL     1     -32.567  27.378   2.311  0.00  0.00    +0.140 C 
ATOM     11  C   UNL     1     -32.608  27.714   3.665  0.00  0.00    +0.073 C 
ENDROOT
BRANCH   4  12
ATOM     12  C   UNL     1     -35.896  22.364   2.429  0.00  0.00    +0.041 C 
ATOM     13  C   UNL     1     -35.112  21.286   2.019  0.00  0.00    +0.043 C 
ATOM     14  C   UNL     1     -37.273  22.351   2.200  0.00  0.00    +0.006 C 
ATOM     15  C   UNL     1     -35.702  20.197   1.379  0.00  0.00    +0.172 C 
ATOM     16  C   UNL     1     -37.864  21.262   1.560  0.00  0.00    +0.040 C 
ATOM     17  C   UNL     1     -37.078  20.184   1.150  0.00  0.00    +0.168 C 
BRANCH  15  18
ATOM     18  O   UNL     1     -34.925  19.151   0.983  0.00  0.00    -0.468 OA
ATOM     19  C   UNL     1     -33.570  19.146   1.427  0.00  0.00    +0.253 C 
ENDBRANCH  15  18
BRANCH  17  20
ATOM     20  O   UNL     1     -37.666  19.126   0.526  0.00  0.00    -0.503 OA
ATOM     21  H   UNL     1     -37.633  18.275   0.914  0.00  0.00    +0.292 HD
ENDBRANCH  17  20
ENDBRANCH   4  12
BRANCH   6  22
ATOM     22  O   UNL     1     -36.074  22.876   5.269  0.00  0.00    -0.465 OA
ATOM     23  C   UNL     1     -35.198  21.950   5.884  0.00  0.00    +0.253 C 
ENDBRANCH   6  22
BRANCH   8  24
ATOM     24  O   UNL     1     -33.317  27.282   5.876  0.00  0.00    -0.505 OA
ATOM     25  H   UNL     1     -34.131  27.405   6.322  0.00  0.00    +0.292 HD
ENDBRANCH   8  24
BRANCH  10  26
ATOM     26  O   UNL     1     -31.880  28.164   1.436  0.00  0.00    -0.505 OA
ATOM     27  H   UNL     1     -32.341  28.649   0.780  0.00  0.00    +0.292 HD
ENDBRANCH  10  26
TORSDOF 6
ENDMDL
MODEL 9
REMARK VINA RESULT:      -5.8      2.737      7.494
REMARK  Name = 5316900
REMARK  6 active torsions:
REMARK  status: ('A' for Active; 'I' for Inactive)
REMARK    1  A    between atoms: C_4  and  C_12
REMARK    2  A    between atoms: C_6  and  O_22
REMARK    3  A    between atoms: C_8  and  O_24
REMARK    4  A    between atoms: C_10  and  O_26
REMARK    5  A    between atoms: C_15  and  O_18
REMARK    6  A    between atoms: C_17  and  O_20
REMARK                            x       y       z     vdW  Elec       q    Type
REMARK                         _______ _______ _______ _____ _____    ______ ____
ROOT
ATOM      1  O   UNL     1     -34.483  20.657   2.238  0.00  0.00    -0.450 OA
ATOM      2  O   UNL     1     -37.537  19.938  -0.361  0.00  0.00    -0.283 OA
ATOM      3  C   UNL     1     -35.444  19.270   0.494  0.00  0.00    +0.110 A 
ATOM      4  C   UNL     1     -35.596  21.483   2.183  0.00  0.00    +0.182 A 
ATOM      5  C   UNL     1     -34.432  19.571   1.402  0.00  0.00    +0.155 A 
ATOM      6  C   UNL     1     -36.634  21.308   1.346  0.00  0.00    +0.212 A 
ATOM      7  C   UNL     1     -36.620  20.149   0.420  0.00  0.00    +0.238 A 
ATOM      8  C   UNL     1     -35.337  18.148  -0.333  0.00  0.00    +0.143 C 
ATOM      9  C   UNL     1     -33.305  18.754   1.490  0.00  0.00    +0.074 C 
ATOM     10  C   UNL     1     -33.195  17.634   0.665  0.00  0.00    +0.140 C 
ATOM     11  C   UNL     1     -34.209  17.332  -0.244  0.00  0.00    +0.073 C 
ENDROOT
BRANCH   4  12
ATOM     12  C   UNL     1     -35.523  22.610   3.130  0.00  0.00    +0.041 C 
ATOM     13  C   UNL     1     -35.358  23.911   2.656  0.00  0.00    +0.043 C 
ATOM     14  C   UNL     1     -35.619  22.374   4.502  0.00  0.00    +0.006 C 
ATOM     15  C   UNL     1     -35.288  24.977   3.552  0.00  0.00    +0.172 C 
ATOM     16  C   UNL     1     -35.549  23.441   5.399  0.00  0.00    +0.040 C 
ATOM     17  C   UNL     1     -35.385  24.742   4.924  0.00  0.00    +0.168 C 
BRANCH  15  18
ATOM     18  O   UNL     1     -35.128  26.243   3.076  0.00  0.00    -0.468 OA
ATOM     19  C   UNL     1     -36.155  26.752   2.229  0.00  0.00    +0.253 C 
ENDBRANCH  15  18
BRANCH  17  20
ATOM     20  O   UNL     1     -35.318  25.775   5.809  0.00  0.00    -0.503 OA
ATOM     21  H   UNL     1     -35.657  25.671   6.677  0.00  0.00    +0.292 HD
ENDBRANCH  17  20
ENDBRANCH   4  12
BRANCH   6  22
ATOM     22  O   UNL     1     -37.710  22.167   1.293  0.00  0.00    -0.465 OA
ATOM     23  C   UNL     1     -38.781  21.680   2.079  0.00  0.00    +0.253 C 
ENDBRANCH   6  22
BRANCH   8  24
ATOM     24  O   UNL     1     -36.297  17.810  -1.239  0.00  0.00    -0.505 OA
ATOM     25  H   UNL     1     -36.528  18.407  -1.922  0.00  0.00    +0.292 HD
ENDBRANCH   8  24
BRANCH  10  26
ATOM     26  O   UNL     1     -32.096  16.835   0.748  0.00  0.00    -0.505 OA
ATOM     27  H   UNL     1     -31.719  16.473  -0.029  0.00  0.00    +0.292 HD
ENDBRANCH  10  26
TORSDOF 6
ENDMDL
