MODEL 1
REMARK VINA RESULT:      -5.1      0.000      0.000
REMARK  Name = 54389248
REMARK  10 active torsions:
REMARK  status: ('A' for Active; 'I' for Inactive)
REMARK    1  A    between atoms: C_1  and  N_3
REMARK    2  A    between atoms: C_1  and  C_8
REMARK    3  A    between atoms: C_1  and  C_11
REMARK    4  A    between atoms: C_8  and  O_9
REMARK    5  A    between atoms: C_11  and  S_12
REMARK    6  A    between atoms: S_12  and  C_14
REMARK    7  A    between atoms: C_14  and  C_15
REMARK    8  A    between atoms: C_15  and  O_16
REMARK    9  A    between atoms: C_15  and  C_18
REMARK   10  A    between atoms: C_18  and  O_19
REMARK                            x       y       z     vdW  Elec       q    Type
REMARK                         _______ _______ _______ _____ _____    ______ ____
ROOT
ATOM      1  C   UNK A   1     -35.490  23.431   4.595  0.00  0.00    +0.183 C 
ENDROOT
BRANCH   1   3
ATOM      2  O   UNK A   0     -36.003  26.131   5.528  0.00  0.00    -0.275 OA
ATOM      3  N   UNK A   1     -34.544  24.352   5.174  0.00  0.00    -0.296 N 
ATOM      4  C   UNK A   0     -34.885  25.629   5.592  0.00  0.00    +0.223 C 
ATOM      5  C   UNK A   0     -33.713  26.370   6.180  0.00  0.00    +0.095 C 
ATOM      6  H   UNK A   1     -33.610  24.060   5.277  0.00  0.00    +0.150 HD
ENDBRANCH   1   3
BRANCH   1   8
ATOM      7  O   UNK A   1     -35.800  22.131   6.620  0.00  0.00    -0.248 OA
ATOM      8  C   UNK A   1     -35.607  22.152   5.410  0.00  0.00    +0.333 C 
BRANCH   8   9
ATOM      9  O   UNK A   1     -35.462  21.030   4.667  0.00  0.00    -0.479 OA
ATOM     10  H   UNK A   1     -36.208  20.638   4.257  0.00  0.00    +0.295 HD
ENDBRANCH   8   9
ENDBRANCH   1   8
BRANCH   1  11
ATOM     11  C   UNK A   1     -35.193  23.156   3.119  0.00  0.00    +0.096 C 
BRANCH  11  12
ATOM     12  S   UNK A   1     -36.365  23.930   1.985  0.00  0.00    -0.072 S 
BRANCH  12  14
ATOM     13  O   UNK A   1     -38.692  23.390   3.098  0.00  0.00    -0.282 OA
ATOM     14  C   UNK A   1     -37.821  22.991   2.332  0.00  0.00    +0.228 C 
BRANCH  14  15
ATOM     15  C   UNK A   1     -37.903  21.667   1.589  0.00  0.00    +0.208 C 
BRANCH  15  16
ATOM     16  O   UNK A   1     -37.550  20.649   2.517  0.00  0.00    -0.375 OA
ATOM     17  H   UNK A   1     -37.217  19.875   2.037  0.00  0.00    +0.211 HD
ENDBRANCH  15  16
BRANCH  15  18
ATOM     18  C   UNK A   1     -39.321  21.387   1.110  0.00  0.00    +0.175 C 
BRANCH  18  19
ATOM     19  O   UNK A   1     -40.144  21.018   2.206  0.00  0.00    -0.379 OA
ATOM     20  H   UNK A   1     -39.933  20.112   2.478  0.00  0.00    +0.211 HD
ENDBRANCH  18  19
ENDBRANCH  15  18
ENDBRANCH  14  15
ENDBRANCH  12  14
ENDBRANCH  11  12
ENDBRANCH   1  11
TORSDOF 10
ENDMDL
MODEL 2
REMARK VINA RESULT:      -4.9      2.371      3.649
REMARK  Name = 54389248
REMARK  10 active torsions:
REMARK  status: ('A' for Active; 'I' for Inactive)
REMARK    1  A    between atoms: C_1  and  N_3
REMARK    2  A    between atoms: C_1  and  C_8
REMARK    3  A    between atoms: C_1  and  C_11
REMARK    4  A    between atoms: C_8  and  O_9
REMARK    5  A    between atoms: C_11  and  S_12
REMARK    6  A    between atoms: S_12  and  C_14
REMARK    7  A    between atoms: C_14  and  C_15
REMARK    8  A    between atoms: C_15  and  O_16
REMARK    9  A    between atoms: C_15  and  C_18
REMARK   10  A    between atoms: C_18  and  O_19
REMARK                            x       y       z     vdW  Elec       q    Type
REMARK                         _______ _______ _______ _____ _____    ______ ____
ROOT
ATOM      1  C   UNK A   1     -36.663  23.696   3.410  0.00  0.00    +0.183 C 
ENDROOT
BRANCH   1   3
ATOM      2  O   UNK A   0     -34.864  24.229   5.625  0.00  0.00    -0.275 OA
ATOM      3  N   UNK A   1     -36.373  22.835   4.529  0.00  0.00    -0.296 N 
ATOM      4  C   UNK A   0     -35.494  23.178   5.545  0.00  0.00    +0.223 C 
ATOM      5  C   UNK A   0     -35.395  22.109   6.601  0.00  0.00    +0.095 C 
ATOM      6  H   UNK A   1     -36.822  21.960   4.575  0.00  0.00    +0.150 HD
ENDBRANCH   1   3
BRANCH   1   8
ATOM      7  O   UNK A   1     -38.985  24.394   3.472  0.00  0.00    -0.248 OA
ATOM      8  C   UNK A   1     -37.810  24.648   3.709  0.00  0.00    +0.333 C 
BRANCH   8   9
ATOM      9  O   UNK A   1     -37.404  25.819   4.254  0.00  0.00    -0.479 OA
ATOM     10  H   UNK A   1     -37.177  26.541   3.701  0.00  0.00    +0.295 HD
ENDBRANCH   8   9
ENDBRANCH   1   8
BRANCH   1  11
ATOM     11  C   UNK A   1     -36.886  22.903   2.120  0.00  0.00    +0.096 C 
BRANCH  11  12
ATOM     12  S   UNK A   1     -35.357  22.399   1.302  0.00  0.00    -0.072 S 
BRANCH  12  14
ATOM     13  O   UNK A   1     -35.460  20.464   3.089  0.00  0.00    -0.282 OA
ATOM     14  C   UNK A   1     -35.179  20.757   1.933  0.00  0.00    +0.228 C 
BRANCH  14  15
ATOM     15  C   UNK A   1     -34.668  19.750   0.915  0.00  0.00    +0.208 C 
BRANCH  15  16
ATOM     16  O   UNK A   1     -33.860  18.819   1.624  0.00  0.00    -0.375 OA
ATOM     17  H   UNK A   1     -33.459  19.256   2.391  0.00  0.00    +0.211 HD
ENDBRANCH  15  16
BRANCH  15  18
ATOM     18  C   UNK A   1     -35.815  18.977   0.277  0.00  0.00    +0.175 C 
BRANCH  18  19
ATOM     19  O   UNK A   1     -36.940  18.969   1.141  0.00  0.00    -0.379 OA
ATOM     20  H   UNK A   1     -36.679  19.297   2.015  0.00  0.00    +0.211 HD
ENDBRANCH  18  19
ENDBRANCH  15  18
ENDBRANCH  14  15
ENDBRANCH  12  14
ENDBRANCH  11  12
ENDBRANCH   1  11
TORSDOF 10
ENDMDL
MODEL 3
REMARK VINA RESULT:      -4.8      2.177      4.341
REMARK  Name = 54389248
REMARK  10 active torsions:
REMARK  status: ('A' for Active; 'I' for Inactive)
REMARK    1  A    between atoms: C_1  and  N_3
REMARK    2  A    between atoms: C_1  and  C_8
REMARK    3  A    between atoms: C_1  and  C_11
REMARK    4  A    between atoms: C_8  and  O_9
REMARK    5  A    between atoms: C_11  and  S_12
REMARK    6  A    between atoms: S_12  and  C_14
REMARK    7  A    between atoms: C_14  and  C_15
REMARK    8  A    between atoms: C_15  and  O_16
REMARK    9  A    between atoms: C_15  and  C_18
REMARK   10  A    between atoms: C_18  and  O_19
REMARK                            x       y       z     vdW  Elec       q    Type
REMARK                         _______ _______ _______ _____ _____    ______ ____
ROOT
ATOM      1  C   UNK A   1     -35.477  22.899   4.595  0.00  0.00    +0.183 C 
ENDROOT
BRANCH   1   3
ATOM      2  O   UNK A   0     -36.527  21.302   2.411  0.00  0.00    -0.275 OA
ATOM      3  N   UNK A   1     -36.733  23.071   3.910  0.00  0.00    -0.296 N 
ATOM      4  C   UNK A   0     -37.151  22.253   2.872  0.00  0.00    +0.223 C 
ATOM      5  C   UNK A   0     -38.511  22.638   2.352  0.00  0.00    +0.095 C 
ATOM      6  H   UNK A   1     -37.324  23.805   4.193  0.00  0.00    +0.150 HD
ENDBRANCH   1   3
BRANCH   1   8
ATOM      7  O   UNK A   1     -35.996  22.105   6.828  0.00  0.00    -0.248 OA
ATOM      8  C   UNK A   1     -35.573  21.862   5.703  0.00  0.00    +0.333 C 
BRANCH   8   9
ATOM      9  O   UNK A   1     -35.128  20.639   5.332  0.00  0.00    -0.479 OA
ATOM     10  H   UNK A   1     -34.235  20.523   5.072  0.00  0.00    +0.295 HD
ENDBRANCH   8   9
ENDBRANCH   1   8
BRANCH   1  11
ATOM     11  C   UNK A   1     -34.907  24.230   5.091  0.00  0.00    +0.096 C 
BRANCH  11  12
ATOM     12  S   UNK A   1     -33.951  25.121   3.845  0.00  0.00    -0.072 S 
BRANCH  12  14
ATOM     13  O   UNK A   1     -35.099  27.464   4.227  0.00  0.00    -0.282 OA
ATOM     14  C   UNK A   1     -35.039  26.473   3.507  0.00  0.00    +0.228 C 
BRANCH  14  15
ATOM     15  C   UNK A   1     -35.870  26.304   2.246  0.00  0.00    +0.208 C 
BRANCH  15  16
ATOM     16  O   UNK A   1     -35.538  25.035   1.697  0.00  0.00    -0.375 OA
ATOM     17  H   UNK A   1     -36.216  24.388   1.943  0.00  0.00    +0.211 HD
ENDBRANCH  15  16
BRANCH  15  18
ATOM     18  C   UNK A   1     -37.361  26.297   2.561  0.00  0.00    +0.175 C 
BRANCH  18  19
ATOM     19  O   UNK A   1     -37.566  26.090   3.950  0.00  0.00    -0.379 OA
ATOM     20  H   UNK A   1     -38.051  26.843   4.321  0.00  0.00    +0.211 HD
ENDBRANCH  18  19
ENDBRANCH  15  18
ENDBRANCH  14  15
ENDBRANCH  12  14
ENDBRANCH  11  12
ENDBRANCH   1  11
TORSDOF 10
ENDMDL
MODEL 4
REMARK VINA RESULT:      -4.8      1.981      2.699
REMARK  Name = 54389248
REMARK  10 active torsions:
REMARK  status: ('A' for Active; 'I' for Inactive)
REMARK    1  A    between atoms: C_1  and  N_3
REMARK    2  A    between atoms: C_1  and  C_8
REMARK    3  A    between atoms: C_1  and  C_11
REMARK    4  A    between atoms: C_8  and  O_9
REMARK    5  A    between atoms: C_11  and  S_12
REMARK    6  A    between atoms: S_12  and  C_14
REMARK    7  A    between atoms: C_14  and  C_15
REMARK    8  A    between atoms: C_15  and  O_16
REMARK    9  A    between atoms: C_15  and  C_18
REMARK   10  A    between atoms: C_18  and  O_19
REMARK                            x       y       z     vdW  Elec       q    Type
REMARK                         _______ _______ _______ _____ _____    ______ ____
ROOT
ATOM      1  C   UNK A   1     -35.569  22.953   4.779  0.00  0.00    +0.183 C 
ENDROOT
BRANCH   1   3
ATOM      2  O   UNK A   0     -36.230  25.731   5.298  0.00  0.00    -0.275 OA
ATOM      3  N   UNK A   1     -34.654  24.057   4.929  0.00  0.00    -0.296 N 
ATOM      4  C   UNK A   0     -35.067  25.357   5.177  0.00  0.00    +0.223 C 
ATOM      5  C   UNK A   0     -33.907  26.308   5.314  0.00  0.00    +0.095 C 
ATOM      6  H   UNK A   1     -33.689  23.879   4.852  0.00  0.00    +0.150 HD
ENDBRANCH   1   3
BRANCH   1   8
ATOM      7  O   UNK A   1     -35.304  22.116   7.040  0.00  0.00    -0.248 OA
ATOM      8  C   UNK A   1     -35.346  21.884   5.837  0.00  0.00    +0.333 C 
BRANCH   8   9
ATOM      9  O   UNK A   1     -35.182  20.644   5.319  0.00  0.00    -0.479 OA
ATOM     10  H   UNK A   1     -35.832  20.285   4.747  0.00  0.00    +0.295 HD
ENDBRANCH   8   9
ENDBRANCH   1   8
BRANCH   1  11
ATOM     11  C   UNK A   1     -35.547  22.380   3.359  0.00  0.00    +0.096 C 
BRANCH  11  12
ATOM     12  S   UNK A   1     -37.161  22.384   2.549  0.00  0.00    -0.072 S 
BRANCH  12  14
ATOM     13  O   UNK A   1     -36.426  24.652   1.423  0.00  0.00    -0.282 OA
ATOM     14  C   UNK A   1     -37.287  24.086   2.088  0.00  0.00    +0.228 C 
BRANCH  14  15
ATOM     15  C   UNK A   1     -38.556  24.771   2.571  0.00  0.00    +0.208 C 
BRANCH  15  16
ATOM     16  O   UNK A   1     -38.557  24.687   3.990  0.00  0.00    -0.375 OA
ATOM     17  H   UNK A   1     -39.468  24.586   4.307  0.00  0.00    +0.211 HD
ENDBRANCH  15  16
BRANCH  15  18
ATOM     18  C   UNK A   1     -38.566  26.247   2.193  0.00  0.00    +0.175 C 
BRANCH  18  19
ATOM     19  O   UNK A   1     -37.478  26.917   2.810  0.00  0.00    -0.379 OA
ATOM     20  H   UNK A   1     -37.629  27.875   2.780  0.00  0.00    +0.211 HD
ENDBRANCH  18  19
ENDBRANCH  15  18
ENDBRANCH  14  15
ENDBRANCH  12  14
ENDBRANCH  11  12
ENDBRANCH   1  11
TORSDOF 10
ENDMDL
MODEL 5
REMARK VINA RESULT:      -4.8      2.186      3.543
REMARK  Name = 54389248
REMARK  10 active torsions:
REMARK  status: ('A' for Active; 'I' for Inactive)
REMARK    1  A    between atoms: C_1  and  N_3
REMARK    2  A    between atoms: C_1  and  C_8
REMARK    3  A    between atoms: C_1  and  C_11
REMARK    4  A    between atoms: C_8  and  O_9
REMARK    5  A    between atoms: C_11  and  S_12
REMARK    6  A    between atoms: S_12  and  C_14
REMARK    7  A    between atoms: C_14  and  C_15
REMARK    8  A    between atoms: C_15  and  O_16
REMARK    9  A    between atoms: C_15  and  C_18
REMARK   10  A    between atoms: C_18  and  O_19
REMARK                            x       y       z     vdW  Elec       q    Type
REMARK                         _______ _______ _______ _____ _____    ______ ____
ROOT
ATOM      1  C   UNK A   1     -36.895  23.837   3.194  0.00  0.00    +0.183 C 
ENDROOT
BRANCH   1   3
ATOM      2  O   UNK A   0     -34.909  23.923   5.309  0.00  0.00    -0.275 OA
ATOM      3  N   UNK A   1     -36.560  22.787   4.123  0.00  0.00    -0.296 N 
ATOM      4  C   UNK A   0     -35.591  22.923   5.106  0.00  0.00    +0.223 C 
ATOM      5  C   UNK A   0     -35.461  21.685   5.954  0.00  0.00    +0.095 C 
ATOM      6  H   UNK A   1     -37.044  21.933   4.057  0.00  0.00    +0.150 HD
ENDBRANCH   1   3
BRANCH   1   8
ATOM      7  O   UNK A   1     -39.069  24.742   3.776  0.00  0.00    -0.248 OA
ATOM      8  C   UNK A   1     -37.848  24.852   3.803  0.00  0.00    +0.333 C 
BRANCH   8   9
ATOM      9  O   UNK A   1     -37.216  25.906   4.372  0.00  0.00    -0.479 OA
ATOM     10  H   UNK A   1     -36.671  26.463   3.852  0.00  0.00    +0.295 HD
ENDBRANCH   8   9
ENDBRANCH   1   8
BRANCH   1  11
ATOM     11  C   UNK A   1     -37.409  23.282   1.863  0.00  0.00    +0.096 C 
BRANCH  11  12
ATOM     12  S   UNK A   1     -38.660  21.994   2.046  0.00  0.00    -0.072 S 
BRANCH  12  14
ATOM     13  O   UNK A   1     -38.662  20.363  -0.025  0.00  0.00    -0.282 OA
ATOM     14  C   UNK A   1     -38.026  20.767   0.943  0.00  0.00    +0.228 C 
BRANCH  14  15
ATOM     15  C   UNK A   1     -36.629  20.278   1.289  0.00  0.00    +0.208 C 
BRANCH  15  16
ATOM     16  O   UNK A   1     -36.664  19.850   2.645  0.00  0.00    -0.375 OA
ATOM     17  H   UNK A   1     -35.852  20.132   3.094  0.00  0.00    +0.211 HD
ENDBRANCH  15  16
BRANCH  15  18
ATOM     18  C   UNK A   1     -36.233  19.080   0.435  0.00  0.00    +0.175 C 
BRANCH  18  19
ATOM     19  O   UNK A   1     -37.110  17.993   0.681  0.00  0.00    -0.379 OA
ATOM     20  H   UNK A   1     -37.376  17.996   1.614  0.00  0.00    +0.211 HD
ENDBRANCH  18  19
ENDBRANCH  15  18
ENDBRANCH  14  15
ENDBRANCH  12  14
ENDBRANCH  11  12
ENDBRANCH   1  11
TORSDOF 10
ENDMDL
MODEL 6
REMARK VINA RESULT:      -4.8      2.412      5.101
REMARK  Name = 54389248
REMARK  10 active torsions:
REMARK  status: ('A' for Active; 'I' for Inactive)
REMARK    1  A    between atoms: C_1  and  N_3
REMARK    2  A    between atoms: C_1  and  C_8
REMARK    3  A    between atoms: C_1  and  C_11
REMARK    4  A    between atoms: C_8  and  O_9
REMARK    5  A    between atoms: C_11  and  S_12
REMARK    6  A    between atoms: S_12  and  C_14
REMARK    7  A    between atoms: C_14  and  C_15
REMARK    8  A    between atoms: C_15  and  O_16
REMARK    9  A    between atoms: C_15  and  C_18
REMARK   10  A    between atoms: C_18  and  O_19
REMARK                            x       y       z     vdW  Elec       q    Type
REMARK                         _______ _______ _______ _____ _____    ______ ____
ROOT
ATOM      1  C   UNK A   1     -35.534  23.222   4.539  0.00  0.00    +0.183 C 
ENDROOT
BRANCH   1   3
ATOM      2  O   UNK A   0     -36.988  22.132   2.276  0.00  0.00    -0.275 OA
ATOM      3  N   UNK A   1     -36.818  23.646   4.037  0.00  0.00    -0.296 N 
ATOM      4  C   UNK A   0     -37.436  23.060   2.943  0.00  0.00    +0.223 C 
ATOM      5  C   UNK A   0     -38.778  23.677   2.647  0.00  0.00    +0.095 C 
ATOM      6  H   UNK A   1     -37.277  24.386   4.493  0.00  0.00    +0.150 HD
ENDBRANCH   1   3
BRANCH   1   8
ATOM      7  O   UNK A   1     -35.900  21.972   6.585  0.00  0.00    -0.248 OA
ATOM      8  C   UNK A   1     -35.644  21.965   5.387  0.00  0.00    +0.333 C 
BRANCH   8   9
ATOM      9  O   UNK A   1     -35.415  20.828   4.689  0.00  0.00    -0.479 OA
ATOM     10  H   UNK A   1     -35.872  20.040   4.911  0.00  0.00    +0.295 HD
ENDBRANCH   8   9
ENDBRANCH   1   8
BRANCH   1  11
ATOM     11  C   UNK A   1     -34.802  24.353   5.267  0.00  0.00    +0.096 C 
BRANCH  11  12
ATOM     12  S   UNK A   1     -35.743  25.892   5.353  0.00  0.00    -0.072 S 
BRANCH  12  14
ATOM     13  O   UNK A   1     -33.834  27.433   4.389  0.00  0.00    -0.282 OA
ATOM     14  C   UNK A   1     -34.891  26.861   4.145  0.00  0.00    +0.228 C 
BRANCH  14  15
ATOM     15  C   UNK A   1     -35.571  26.904   2.786  0.00  0.00    +0.208 C 
BRANCH  15  16
ATOM     16  O   UNK A   1     -36.956  26.671   3.009  0.00  0.00    -0.375 OA
ATOM     17  H   UNK A   1     -37.182  26.909   3.921  0.00  0.00    +0.211 HD
ENDBRANCH  15  16
BRANCH  15  18
ATOM     18  C   UNK A   1     -35.429  28.276   2.139  0.00  0.00    +0.175 C 
BRANCH  18  19
ATOM     19  O   UNK A   1     -35.484  29.292   3.128  0.00  0.00    -0.379 OA
ATOM     20  H   UNK A   1     -34.812  29.964   2.940  0.00  0.00    +0.211 HD
ENDBRANCH  18  19
ENDBRANCH  15  18
ENDBRANCH  14  15
ENDBRANCH  12  14
ENDBRANCH  11  12
ENDBRANCH   1  11
TORSDOF 10
ENDMDL
MODEL 7
REMARK VINA RESULT:      -4.8      1.977      4.079
REMARK  Name = 54389248
REMARK  10 active torsions:
REMARK  status: ('A' for Active; 'I' for Inactive)
REMARK    1  A    between atoms: C_1  and  N_3
REMARK    2  A    between atoms: C_1  and  C_8
REMARK    3  A    between atoms: C_1  and  C_11
REMARK    4  A    between atoms: C_8  and  O_9
REMARK    5  A    between atoms: C_11  and  S_12
REMARK    6  A    between atoms: S_12  and  C_14
REMARK    7  A    between atoms: C_14  and  C_15
REMARK    8  A    between atoms: C_15  and  O_16
REMARK    9  A    between atoms: C_15  and  C_18
REMARK   10  A    between atoms: C_18  and  O_19
REMARK                            x       y       z     vdW  Elec       q    Type
REMARK                         _______ _______ _______ _____ _____    ______ ____
ROOT
ATOM      1  C   UNK A   1     -36.352  22.109   2.768  0.00  0.00    +0.183 C 
ENDROOT
BRANCH   1   3
ATOM      2  O   UNK A   0     -36.203  23.433   5.347  0.00  0.00    -0.275 OA
ATOM      3  N   UNK A   1     -35.653  21.658   3.945  0.00  0.00    -0.296 N 
ATOM      4  C   UNK A   0     -35.640  22.363   5.138  0.00  0.00    +0.223 C 
ATOM      5  C   UNK A   0     -34.856  21.655   6.212  0.00  0.00    +0.095 C 
ATOM      6  H   UNK A   1     -35.161  20.807   3.899  0.00  0.00    +0.150 HD
ENDBRANCH   1   3
BRANCH   1   8
ATOM      7  O   UNK A   1     -38.107  21.199   1.362  0.00  0.00    -0.248 OA
ATOM      8  C   UNK A   1     -37.181  21.000   2.140  0.00  0.00    +0.333 C 
BRANCH   8   9
ATOM      9  O   UNK A   1     -36.804  19.761   2.535  0.00  0.00    -0.479 OA
ATOM     10  H   UNK A   1     -36.922  19.497   3.427  0.00  0.00    +0.295 HD
ENDBRANCH   8   9
ENDBRANCH   1   8
BRANCH   1  11
ATOM     11  C   UNK A   1     -35.410  22.774   1.761  0.00  0.00    +0.096 C 
BRANCH  11  12
ATOM     12  S   UNK A   1     -35.303  24.568   1.940  0.00  0.00    -0.072 S 
BRANCH  12  14
ATOM     13  O   UNK A   1     -37.807  24.619   1.118  0.00  0.00    -0.282 OA
ATOM     14  C   UNK A   1     -37.018  24.993   1.979  0.00  0.00    +0.228 C 
BRANCH  14  15
ATOM     15  C   UNK A   1     -37.425  25.839   3.175  0.00  0.00    +0.208 C 
BRANCH  15  16
ATOM     16  O   UNK A   1     -38.129  24.984   4.067  0.00  0.00    -0.375 OA
ATOM     17  H   UNK A   1     -37.508  24.597   4.702  0.00  0.00    +0.211 HD
ENDBRANCH  15  16
BRANCH  15  18
ATOM     18  C   UNK A   1     -36.205  26.377   3.913  0.00  0.00    +0.175 C 
BRANCH  18  19
ATOM     19  O   UNK A   1     -36.489  26.505   5.297  0.00  0.00    -0.379 OA
ATOM     20  H   UNK A   1     -37.340  26.956   5.413  0.00  0.00    +0.211 HD
ENDBRANCH  18  19
ENDBRANCH  15  18
ENDBRANCH  14  15
ENDBRANCH  12  14
ENDBRANCH  11  12
ENDBRANCH   1  11
TORSDOF 10
ENDMDL
MODEL 8
REMARK VINA RESULT:      -4.7      2.061      4.971
REMARK  Name = 54389248
REMARK  10 active torsions:
REMARK  status: ('A' for Active; 'I' for Inactive)
REMARK    1  A    between atoms: C_1  and  N_3
REMARK    2  A    between atoms: C_1  and  C_8
REMARK    3  A    between atoms: C_1  and  C_11
REMARK    4  A    between atoms: C_8  and  O_9
REMARK    5  A    between atoms: C_11  and  S_12
REMARK    6  A    between atoms: S_12  and  C_14
REMARK    7  A    between atoms: C_14  and  C_15
REMARK    8  A    between atoms: C_15  and  O_16
REMARK    9  A    between atoms: C_15  and  C_18
REMARK   10  A    between atoms: C_18  and  O_19
REMARK                            x       y       z     vdW  Elec       q    Type
REMARK                         _______ _______ _______ _____ _____    ______ ____
ROOT
ATOM      1  C   UNK A   1     -37.215  23.046   3.108  0.00  0.00    +0.183 C 
ENDROOT
BRANCH   1   3
ATOM      2  O   UNK A   0     -36.042  24.010   5.581  0.00  0.00    -0.275 OA
ATOM      3  N   UNK A   1     -36.447  22.290   4.065  0.00  0.00    -0.296 N 
ATOM      4  C   UNK A   0     -35.925  22.841   5.225  0.00  0.00    +0.223 C 
ATOM      5  C   UNK A   0     -35.187  21.826   6.058  0.00  0.00    +0.095 C 
ATOM      6  H   UNK A   1     -36.287  21.336   3.886  0.00  0.00    +0.150 HD
ENDBRANCH   1   3
BRANCH   1   8
ATOM      7  O   UNK A   1     -39.174  22.596   1.749  0.00  0.00    -0.248 OA
ATOM      8  C   UNK A   1     -38.190  22.167   2.341  0.00  0.00    +0.333 C 
BRANCH   8   9
ATOM      9  O   UNK A   1     -37.873  20.851   2.387  0.00  0.00    -0.479 OA
ATOM     10  H   UNK A   1     -36.976  20.583   2.360  0.00  0.00    +0.295 HD
ENDBRANCH   8   9
ENDBRANCH   1   8
BRANCH   1  11
ATOM     11  C   UNK A   1     -36.321  23.871   2.179  0.00  0.00    +0.096 C 
BRANCH  11  12
ATOM     12  S   UNK A   1     -36.596  25.652   2.297  0.00  0.00    -0.072 S 
BRANCH  12  14
ATOM     13  O   UNK A   1     -34.013  25.983   1.886  0.00  0.00    -0.282 OA
ATOM     14  C   UNK A   1     -34.954  26.212   2.638  0.00  0.00    +0.228 C 
BRANCH  14  15
ATOM     15  C   UNK A   1     -34.822  27.009   3.925  0.00  0.00    +0.208 C 
BRANCH  15  16
ATOM     16  O   UNK A   1     -36.001  26.771   4.684  0.00  0.00    -0.375 OA
ATOM     17  H   UNK A   1     -36.033  25.839   4.948  0.00  0.00    +0.211 HD
ENDBRANCH  15  16
BRANCH  15  18
ATOM     18  C   UNK A   1     -33.634  26.534   4.752  0.00  0.00    +0.175 C 
BRANCH  18  19
ATOM     19  O   UNK A   1     -33.447  25.138   4.581  0.00  0.00    -0.379 OA
ATOM     20  H   UNK A   1     -34.218  24.663   4.926  0.00  0.00    +0.211 HD
ENDBRANCH  18  19
ENDBRANCH  15  18
ENDBRANCH  14  15
ENDBRANCH  12  14
ENDBRANCH  11  12
ENDBRANCH   1  11
TORSDOF 10
ENDMDL
MODEL 9
REMARK VINA RESULT:      -4.7      1.749      3.392
REMARK  Name = 54389248
REMARK  10 active torsions:
REMARK  status: ('A' for Active; 'I' for Inactive)
REMARK    1  A    between atoms: C_1  and  N_3
REMARK    2  A    between atoms: C_1  and  C_8
REMARK    3  A    between atoms: C_1  and  C_11
REMARK    4  A    between atoms: C_8  and  O_9
REMARK    5  A    between atoms: C_11  and  S_12
REMARK    6  A    between atoms: S_12  and  C_14
REMARK    7  A    between atoms: C_14  and  C_15
REMARK    8  A    between atoms: C_15  and  O_16
REMARK    9  A    between atoms: C_15  and  C_18
REMARK   10  A    between atoms: C_18  and  O_19
REMARK                            x       y       z     vdW  Elec       q    Type
REMARK                         _______ _______ _______ _____ _____    ______ ____
ROOT
ATOM      1  C   UNK A   1     -36.584  24.761   3.899  0.00  0.00    +0.183 C 
ENDROOT
BRANCH   1   3
ATOM      2  O   UNK A   0     -35.380  22.122   3.781  0.00  0.00    -0.275 OA
ATOM      3  N   UNK A   1     -36.289  23.883   5.004  0.00  0.00    -0.296 N 
ATOM      4  C   UNK A   0     -35.710  22.633   4.847  0.00  0.00    +0.223 C 
ATOM      5  C   UNK A   0     -35.489  21.937   6.164  0.00  0.00    +0.095 C 
ATOM      6  H   UNK A   1     -36.510  24.186   5.914  0.00  0.00    +0.150 HD
ENDBRANCH   1   3
BRANCH   1   8
ATOM      7  O   UNK A   1     -35.596  26.545   5.212  0.00  0.00    -0.248 OA
ATOM      8  C   UNK A   1     -36.095  26.177   4.154  0.00  0.00    +0.333 C 
BRANCH   8   9
ATOM      9  O   UNK A   1     -36.277  27.005   3.098  0.00  0.00    -0.479 OA
ATOM     10  H   UNK A   1     -36.548  27.891   3.238  0.00  0.00    +0.295 HD
ENDBRANCH   8   9
ENDBRANCH   1   8
BRANCH   1  11
ATOM     11  C   UNK A   1     -38.064  24.717   3.512  0.00  0.00    +0.096 C 
BRANCH  11  12
ATOM     12  S   UNK A   1     -38.347  24.455   1.747  0.00  0.00    -0.072 S 
BRANCH  12  14
ATOM     13  O   UNK A   1     -40.791  23.512   1.447  0.00  0.00    -0.282 OA
ATOM     14  C   UNK A   1     -39.645  23.256   1.802  0.00  0.00    +0.228 C 
BRANCH  14  15
ATOM     15  C   UNK A   1     -39.212  21.889   2.306  0.00  0.00    +0.208 C 
BRANCH  15  16
ATOM     16  O   UNK A   1     -40.282  20.991   2.040  0.00  0.00    -0.375 OA
ATOM     17  H   UNK A   1     -39.958  20.079   2.089  0.00  0.00    +0.211 HD
ENDBRANCH  15  16
BRANCH  15  18
ATOM     18  C   UNK A   1     -37.985  21.385   1.556  0.00  0.00    +0.175 C 
BRANCH  18  19
ATOM     19  O   UNK A   1     -37.308  20.406   2.327  0.00  0.00    -0.379 OA
ATOM     20  H   UNK A   1     -37.876  20.121   3.059  0.00  0.00    +0.211 HD
ENDBRANCH  18  19
ENDBRANCH  15  18
ENDBRANCH  14  15
ENDBRANCH  12  14
ENDBRANCH  11  12
ENDBRANCH   1  11
TORSDOF 10
ENDMDL
