MODEL 1
REMARK VINA RESULT:      -5.5      0.000      0.000
REMARK  Name = 193794
REMARK  11 active torsions:
REMARK  status: ('A' for Active; 'I' for Inactive)
REMARK    1  A    between atoms: C_1  and  N_2
REMARK    2  A    between atoms: C_1  and  C_16
REMARK    3  A    between atoms: N_2  and  C_4
REMARK    4  A    between atoms: C_5  and  N_12
REMARK    5  A    between atoms: C_8  and  N_15
REMARK    6  A    between atoms: C_16  and  C_19
REMARK    7  A    between atoms: N_18  and  C_21
REMARK    8  A    between atoms: C_21  and  C_24
REMARK    9  A    between atoms: N_23  and  C_26
REMARK   10  A    between atoms: C_26  and  C_28
REMARK   11  A    between atoms: C_28  and  O_29
REMARK                            x       y       z     vdW  Elec       q    Type
REMARK                         _______ _______ _______ _____ _____    ______ ____
ROOT
ATOM      1  C   UNL     1     -39.964  22.259   0.603  0.00  0.00    +0.097 C 
ENDROOT
BRANCH   1   2
ATOM      2  N   UNL     1     -39.629  23.660   0.669  0.00  0.00    -0.331 N 
ATOM      3  H   UNL     1     -38.855  23.977   0.150  0.00  0.00    +0.147 HD
BRANCH   2   4
ATOM      4  C   UNL     1     -40.334  24.587   1.422  0.00  0.00    +0.067 C 
ATOM      5  C   UNL     1     -39.775  25.210   2.556  0.00  0.00    +0.157 C 
ATOM      6  C   UNL     1     -41.651  24.929   1.059  0.00  0.00    +0.018 C 
ATOM      7  C   UNL     1     -40.505  26.139   3.296  0.00  0.00    +0.049 C 
ATOM      8  C   UNL     1     -41.808  26.463   2.918  0.00  0.00    +0.145 C 
ATOM      9  C   UNL     1     -42.381  25.858   1.799  0.00  0.00    +0.025 C 
BRANCH   5  12
ATOM     10  O   UNL     1     -37.513  25.043   2.140  0.00  0.00    -0.126 OA
ATOM     11  O   UNL     1     -38.253  24.485   4.129  0.00  0.00    -0.126 OA
ATOM     12  N   UNL     1     -38.447  24.897   2.962  0.00  0.00    +0.059 N 
ENDBRANCH   5  12
BRANCH   8  15
ATOM     13  O   UNL     1     -42.041  28.527   3.918  0.00  0.00    -0.126 OA
ATOM     14  O   UNL     1     -43.702  27.099   4.071  0.00  0.00    -0.126 OA
ATOM     15  N   UNL     1     -42.553  27.409   3.671  0.00  0.00    +0.058 N 
ENDBRANCH   8  15
ENDBRANCH   2   4
ENDBRANCH   1   2
BRANCH   1  16
ATOM     16  C   UNL     1     -39.290  21.513   1.747  0.00  0.00    +0.106 C 
BRANCH  16  19
ATOM     17  O   UNL     1     -37.125  21.641   0.676  0.00  0.00    -0.275 OA
ATOM     18  N   UNL     1     -37.250  21.764   2.993  0.00  0.00    -0.297 N 
ATOM     19  C   UNL     1     -37.778  21.644   1.715  0.00  0.00    +0.225 C 
ATOM     20  H   UNL     1     -37.867  21.754   3.760  0.00  0.00    +0.150 HD
BRANCH  18  21
ATOM     21  C   UNL     1     -35.834  21.901   3.248  0.00  0.00    +0.176 C 
BRANCH  21  24
ATOM     22  O   UNL     1     -35.850  22.208   5.644  0.00  0.00    -0.273 OA
ATOM     23  N   UNL     1     -35.200  23.973   4.279  0.00  0.00    -0.294 N 
ATOM     24  C   UNL     1     -35.624  22.676   4.532  0.00  0.00    +0.243 C 
ATOM     25  H   UNL     1     -35.048  24.242   3.344  0.00  0.00    +0.150 HD
BRANCH  23  26
ATOM     26  C   UNL     1     -34.968  24.948   5.321  0.00  0.00    +0.200 C 
BRANCH  26  28
ATOM     27  O   UNL     1     -34.695  27.113   4.306  0.00  0.00    -0.248 OA
ATOM     28  C   UNL     1     -35.405  26.337   4.933  0.00  0.00    +0.334 C 
BRANCH  28  29
ATOM     29  O   UNL     1     -36.658  26.644   5.343  0.00  0.00    -0.479 OA
ATOM     30  H   UNL     1     -36.796  27.357   5.935  0.00  0.00    +0.295 HD
ENDBRANCH  28  29
ENDBRANCH  26  28
ENDBRANCH  23  26
ENDBRANCH  21  24
ENDBRANCH  18  21
ENDBRANCH  16  19
ENDBRANCH   1  16
TORSDOF 11
ENDMDL
MODEL 2
REMARK VINA RESULT:      -5.5      4.711      7.893
REMARK  Name = 193794
REMARK  11 active torsions:
REMARK  status: ('A' for Active; 'I' for Inactive)
REMARK    1  A    between atoms: C_1  and  N_2
REMARK    2  A    between atoms: C_1  and  C_16
REMARK    3  A    between atoms: N_2  and  C_4
REMARK    4  A    between atoms: C_5  and  N_12
REMARK    5  A    between atoms: C_8  and  N_15
REMARK    6  A    between atoms: C_16  and  C_19
REMARK    7  A    between atoms: N_18  and  C_21
REMARK    8  A    between atoms: C_21  and  C_24
REMARK    9  A    between atoms: N_23  and  C_26
REMARK   10  A    between atoms: C_26  and  C_28
REMARK   11  A    between atoms: C_28  and  O_29
REMARK                            x       y       z     vdW  Elec       q    Type
REMARK                         _______ _______ _______ _____ _____    ______ ____
ROOT
ATOM      1  C   UNL     1     -35.227  28.392   2.279  0.00  0.00    +0.097 C 
ENDROOT
BRANCH   1   2
ATOM      2  N   UNL     1     -35.222  27.971   3.659  0.00  0.00    -0.331 N 
ATOM      3  H   UNL     1     -35.156  28.664   4.356  0.00  0.00    +0.147 HD
BRANCH   2   4
ATOM      4  C   UNL     1     -35.306  26.646   4.061  0.00  0.00    +0.067 C 
ATOM      5  C   UNL     1     -34.346  26.061   4.910  0.00  0.00    +0.157 C 
ATOM      6  C   UNL     1     -36.376  25.846   3.618  0.00  0.00    +0.018 C 
ATOM      7  C   UNL     1     -34.453  24.727   5.300  0.00  0.00    +0.049 C 
ATOM      8  C   UNL     1     -35.521  23.951   4.849  0.00  0.00    +0.145 C 
ATOM      9  C   UNL     1     -36.483  24.512   4.008  0.00  0.00    +0.025 C 
BRANCH   5  12
ATOM     10  O   UNL     1     -33.146  27.046   6.615  0.00  0.00    -0.126 OA
ATOM     11  O   UNL     1     -32.413  27.269   4.558  0.00  0.00    -0.126 OA
ATOM     12  N   UNL     1     -33.246  26.830   5.385  0.00  0.00    +0.059 N 
ENDBRANCH   5  12
BRANCH   8  15
ATOM     13  O   UNL     1     -35.934  22.329   6.434  0.00  0.00    -0.126 OA
ATOM     14  O   UNL     1     -35.421  21.692   4.396  0.00  0.00    -0.126 OA
ATOM     15  N   UNL     1     -35.631  22.592   5.246  0.00  0.00    +0.058 N 
ENDBRANCH   8  15
ENDBRANCH   2   4
ENDBRANCH   1   2
BRANCH   1  16
ATOM     16  C   UNL     1     -33.995  29.240   1.994  0.00  0.00    +0.106 C 
BRANCH  16  19
ATOM     17  O   UNL     1     -34.576  30.821   3.732  0.00  0.00    -0.275 OA
ATOM     18  N   UNL     1     -32.335  30.364   3.320  0.00  0.00    -0.297 N 
ATOM     19  C   UNL     1     -33.700  30.228   3.109  0.00  0.00    +0.225 C 
ATOM     20  H   UNL     1     -31.718  29.839   2.762  0.00  0.00    +0.150 HD
BRANCH  18  21
ATOM     21  C   UNL     1     -31.780  31.244   4.323  0.00  0.00    +0.176 C 
BRANCH  21  24
ATOM     22  O   UNL     1     -32.222  30.272   6.491  0.00  0.00    -0.273 OA
ATOM     23  N   UNL     1     -30.125  29.993   5.529  0.00  0.00    -0.294 N 
ATOM     24  C   UNL     1     -31.436  30.446   5.563  0.00  0.00    +0.243 C 
ATOM     25  H   UNL     1     -29.582  30.190   4.731  0.00  0.00    +0.150 HD
BRANCH  23  26
ATOM     26  C   UNL     1     -29.516  29.245   6.606  0.00  0.00    +0.200 C 
BRANCH  26  28
ATOM     27  O   UNL     1     -28.642  27.034   6.983  0.00  0.00    -0.248 OA
ATOM     28  C   UNL     1     -29.166  27.833   6.216  0.00  0.00    +0.334 C 
BRANCH  28  29
ATOM     29  O   UNL     1     -29.486  27.530   4.935  0.00  0.00    -0.479 OA
ATOM     30  H   UNL     1     -29.617  26.638   4.684  0.00  0.00    +0.295 HD
ENDBRANCH  28  29
ENDBRANCH  26  28
ENDBRANCH  23  26
ENDBRANCH  21  24
ENDBRANCH  18  21
ENDBRANCH  16  19
ENDBRANCH   1  16
TORSDOF 11
ENDMDL
MODEL 3
REMARK VINA RESULT:      -5.5      2.101      6.024
REMARK  Name = 193794
REMARK  11 active torsions:
REMARK  status: ('A' for Active; 'I' for Inactive)
REMARK    1  A    between atoms: C_1  and  N_2
REMARK    2  A    between atoms: C_1  and  C_16
REMARK    3  A    between atoms: N_2  and  C_4
REMARK    4  A    between atoms: C_5  and  N_12
REMARK    5  A    between atoms: C_8  and  N_15
REMARK    6  A    between atoms: C_16  and  C_19
REMARK    7  A    between atoms: N_18  and  C_21
REMARK    8  A    between atoms: C_21  and  C_24
REMARK    9  A    between atoms: N_23  and  C_26
REMARK   10  A    between atoms: C_26  and  C_28
REMARK   11  A    between atoms: C_28  and  O_29
REMARK                            x       y       z     vdW  Elec       q    Type
REMARK                         _______ _______ _______ _____ _____    ______ ____
ROOT
ATOM      1  C   UNL     1     -34.886  22.402   1.736  0.00  0.00    +0.097 C 
ENDROOT
BRANCH   1   2
ATOM      2  N   UNL     1     -35.417  23.707   2.046  0.00  0.00    -0.331 N 
ATOM      3  H   UNL     1     -36.259  23.980   1.613  0.00  0.00    +0.147 HD
BRANCH   2   4
ATOM      4  C   UNL     1     -34.811  24.599   2.918  0.00  0.00    +0.067 C 
ATOM      5  C   UNL     1     -35.221  24.727   4.260  0.00  0.00    +0.157 C 
ATOM      6  C   UNL     1     -33.753  25.410   2.466  0.00  0.00    +0.018 C 
ATOM      7  C   UNL     1     -34.595  25.632   5.116  0.00  0.00    +0.049 C 
ATOM      8  C   UNL     1     -33.549  26.427   4.648  0.00  0.00    +0.145 C 
ATOM      9  C   UNL     1     -33.127  26.315   3.323  0.00  0.00    +0.025 C 
BRANCH   5  12
ATOM     10  O   UNL     1     -36.048  23.117   5.688  0.00  0.00    -0.126 OA
ATOM     11  O   UNL     1     -37.428  24.059   4.265  0.00  0.00    -0.126 OA
ATOM     12  N   UNL     1     -36.286  23.928   4.763  0.00  0.00    +0.059 N 
ENDBRANCH   5  12
BRANCH   8  15
ATOM     13  O   UNL     1     -32.762  28.537   5.144  0.00  0.00    -0.126 OA
ATOM     14  O   UNL     1     -32.512  26.950   6.641  0.00  0.00    -0.126 OA
ATOM     15  N   UNL     1     -32.911  27.349   5.519  0.00  0.00    +0.058 N 
ENDBRANCH   8  15
ENDBRANCH   2   4
ENDBRANCH   1   2
BRANCH   1  16
ATOM     16  C   UNL     1     -35.698  21.331   2.450  0.00  0.00    +0.106 C 
BRANCH  16  19
ATOM     17  O   UNL     1     -37.167  20.382   0.778  0.00  0.00    -0.275 OA
ATOM     18  N   UNL     1     -38.069  21.723   2.448  0.00  0.00    -0.297 N 
ATOM     19  C   UNL     1     -37.037  21.076   1.783  0.00  0.00    +0.225 C 
ATOM     20  H   UNL     1     -37.853  22.256   3.247  0.00  0.00    +0.150 HD
BRANCH  18  21
ATOM     21  C   UNL     1     -39.448  21.648   2.021  0.00  0.00    +0.176 C 
BRANCH  21  24
ATOM     22  O   UNL     1     -41.033  23.229   1.111  0.00  0.00    -0.273 OA
ATOM     23  N   UNL     1     -38.904  23.961   1.687  0.00  0.00    -0.294 N 
ATOM     24  C   UNL     1     -39.912  23.016   1.567  0.00  0.00    +0.243 C 
ATOM     25  H   UNL     1     -38.041  23.679   2.068  0.00  0.00    +0.150 HD
BRANCH  23  26
ATOM     26  C   UNL     1     -39.057  25.340   1.281  0.00  0.00    +0.200 C 
BRANCH  26  28
ATOM     27  O   UNL     1     -40.705  26.762   2.308  0.00  0.00    -0.248 OA
ATOM     28  C   UNL     1     -39.610  26.216   2.374  0.00  0.00    +0.334 C 
BRANCH  28  29
ATOM     29  O   UNL     1     -38.782  26.343   3.438  0.00  0.00    -0.479 OA
ATOM     30  H   UNL     1     -38.104  25.713   3.581  0.00  0.00    +0.295 HD
ENDBRANCH  28  29
ENDBRANCH  26  28
ENDBRANCH  23  26
ENDBRANCH  21  24
ENDBRANCH  18  21
ENDBRANCH  16  19
ENDBRANCH   1  16
TORSDOF 11
ENDMDL
MODEL 4
REMARK VINA RESULT:      -5.4      4.128      7.300
REMARK  Name = 193794
REMARK  11 active torsions:
REMARK  status: ('A' for Active; 'I' for Inactive)
REMARK    1  A    between atoms: C_1  and  N_2
REMARK    2  A    between atoms: C_1  and  C_16
REMARK    3  A    between atoms: N_2  and  C_4
REMARK    4  A    between atoms: C_5  and  N_12
REMARK    5  A    between atoms: C_8  and  N_15
REMARK    6  A    between atoms: C_16  and  C_19
REMARK    7  A    between atoms: N_18  and  C_21
REMARK    8  A    between atoms: C_21  and  C_24
REMARK    9  A    between atoms: N_23  and  C_26
REMARK   10  A    between atoms: C_26  and  C_28
REMARK   11  A    between atoms: C_28  and  O_29
REMARK                            x       y       z     vdW  Elec       q    Type
REMARK                         _______ _______ _______ _____ _____    ______ ____
ROOT
ATOM      1  C   UNL     1     -37.748  22.011   1.944  0.00  0.00    +0.097 C 
ENDROOT
BRANCH   1   2
ATOM      2  N   UNL     1     -37.201  22.163   3.270  0.00  0.00    -0.331 N 
ATOM      3  H   UNL     1     -37.400  21.465   3.937  0.00  0.00    +0.147 HD
BRANCH   2   4
ATOM      4  C   UNL     1     -36.412  23.234   3.662  0.00  0.00    +0.067 C 
ATOM      5  C   UNL     1     -35.582  23.175   4.798  0.00  0.00    +0.157 C 
ATOM      6  C   UNL     1     -36.427  24.426   2.912  0.00  0.00    +0.018 C 
ATOM      7  C   UNL     1     -34.798  24.266   5.170  0.00  0.00    +0.049 C 
ATOM      8  C   UNL     1     -34.829  25.438   4.414  0.00  0.00    +0.145 C 
ATOM      9  C   UNL     1     -35.643  25.517   3.284  0.00  0.00    +0.025 C 
BRANCH   5  12
ATOM     10  O   UNL     1     -35.974  22.028   6.760  0.00  0.00    -0.126 OA
ATOM     11  O   UNL     1     -35.046  20.951   5.087  0.00  0.00    -0.126 OA
ATOM     12  N   UNL     1     -35.532  21.992   5.588  0.00  0.00    +0.059 N 
ENDBRANCH   5  12
BRANCH   8  15
ATOM     13  O   UNL     1     -34.225  27.656   4.232  0.00  0.00    -0.126 OA
ATOM     14  O   UNL     1     -33.152  26.395   5.674  0.00  0.00    -0.126 OA
ATOM     15  N   UNL     1     -34.031  26.550   4.792  0.00  0.00    +0.058 N 
ENDBRANCH   8  15
ENDBRANCH   2   4
ENDBRANCH   1   2
BRANCH   1  16
ATOM     16  C   UNL     1     -37.196  20.747   1.300  0.00  0.00    +0.106 C 
BRANCH  16  19
ATOM     17  O   UNL     1     -35.024  21.735   0.896  0.00  0.00    -0.275 OA
ATOM     18  N   UNL     1     -35.150  19.513   1.563  0.00  0.00    -0.297 N 
ATOM     19  C   UNL     1     -35.679  20.750   1.223  0.00  0.00    +0.225 C 
ATOM     20  H   UNL     1     -35.769  18.788   1.811  0.00  0.00    +0.150 HD
BRANCH  18  21
ATOM     21  C   UNL     1     -33.731  19.241   1.571  0.00  0.00    +0.176 C 
BRANCH  21  24
ATOM     22  O   UNL     1     -32.400  18.270  -0.197  0.00  0.00    -0.273 OA
ATOM     23  N   UNL     1     -34.403  17.255   0.405  0.00  0.00    -0.294 N 
ATOM     24  C   UNL     1     -33.405  18.214   0.507  0.00  0.00    +0.243 C 
ATOM     25  H   UNL     1     -35.167  17.306   1.023  0.00  0.00    +0.150 HD
BRANCH  23  26
ATOM     26  C   UNL     1     -34.374  16.182  -0.564  0.00  0.00    +0.200 C 
BRANCH  26  28
ATOM     27  O   UNL     1     -35.515  14.099  -0.953  0.00  0.00    -0.248 OA
ATOM     28  C   UNL     1     -35.445  15.149  -0.328  0.00  0.00    +0.334 C 
BRANCH  28  29
ATOM     29  O   UNL     1     -36.324  15.493   0.643  0.00  0.00    -0.479 OA
ATOM     30  H   UNL     1     -36.012  15.800   1.471  0.00  0.00    +0.295 HD
ENDBRANCH  28  29
ENDBRANCH  26  28
ENDBRANCH  23  26
ENDBRANCH  21  24
ENDBRANCH  18  21
ENDBRANCH  16  19
ENDBRANCH   1  16
TORSDOF 11
ENDMDL
MODEL 5
REMARK VINA RESULT:      -5.4      2.168      6.123
REMARK  Name = 193794
REMARK  11 active torsions:
REMARK  status: ('A' for Active; 'I' for Inactive)
REMARK    1  A    between atoms: C_1  and  N_2
REMARK    2  A    between atoms: C_1  and  C_16
REMARK    3  A    between atoms: N_2  and  C_4
REMARK    4  A    between atoms: C_5  and  N_12
REMARK    5  A    between atoms: C_8  and  N_15
REMARK    6  A    between atoms: C_16  and  C_19
REMARK    7  A    between atoms: N_18  and  C_21
REMARK    8  A    between atoms: C_21  and  C_24
REMARK    9  A    between atoms: N_23  and  C_26
REMARK   10  A    between atoms: C_26  and  C_28
REMARK   11  A    between atoms: C_28  and  O_29
REMARK                            x       y       z     vdW  Elec       q    Type
REMARK                         _______ _______ _______ _____ _____    ______ ____
ROOT
ATOM      1  C   UNL     1     -36.042  22.894   5.121  0.00  0.00    +0.097 C 
ENDROOT
BRANCH   1   2
ATOM      2  N   UNL     1     -36.424  24.263   4.877  0.00  0.00    -0.331 N 
ATOM      3  H   UNL     1     -37.384  24.479   4.849  0.00  0.00    +0.147 HD
BRANCH   2   4
ATOM      4  C   UNL     1     -35.517  25.293   4.680  0.00  0.00    +0.067 C 
ATOM      5  C   UNL     1     -35.581  26.141   3.557  0.00  0.00    +0.157 C 
ATOM      6  C   UNL     1     -34.492  25.514   5.621  0.00  0.00    +0.018 C 
ATOM      7  C   UNL     1     -34.657  27.170   3.383  0.00  0.00    +0.049 C 
ATOM      8  C   UNL     1     -33.650  27.371   4.326  0.00  0.00    +0.145 C 
ATOM      9  C   UNL     1     -33.568  26.543   5.446  0.00  0.00    +0.025 C 
BRANCH   5  12
ATOM     10  O   UNL     1     -37.331  26.931   2.278  0.00  0.00    -0.126 OA
ATOM     11  O   UNL     1     -36.734  24.830   2.050  0.00  0.00    -0.126 OA
ATOM     12  N   UNL     1     -36.599  25.958   2.579  0.00  0.00    +0.059 N 
ENDBRANCH   5  12
BRANCH   8  15
ATOM     13  O   UNL     1     -32.058  28.477   3.078  0.00  0.00    -0.126 OA
ATOM     14  O   UNL     1     -32.551  29.257   5.071  0.00  0.00    -0.126 OA
ATOM     15  N   UNL     1     -32.708  28.419   4.149  0.00  0.00    +0.058 N 
ENDBRANCH   8  15
ENDBRANCH   2   4
ENDBRANCH   1   2
BRANCH   1  16
ATOM     16  C   UNL     1     -35.164  22.392   3.983  0.00  0.00    +0.106 C 
BRANCH  16  19
ATOM     17  O   UNL     1     -35.415  20.334   2.735  0.00  0.00    -0.275 OA
ATOM     18  N   UNL     1     -37.134  21.898   2.697  0.00  0.00    -0.297 N 
ATOM     19  C   UNL     1     -35.890  21.414   3.077  0.00  0.00    +0.225 C 
ATOM     20  H   UNL     1     -37.417  22.780   3.031  0.00  0.00    +0.150 HD
BRANCH  18  21
ATOM     21  C   UNL     1     -38.031  21.165   1.834  0.00  0.00    +0.176 C 
BRANCH  21  24
ATOM     22  O   UNL     1     -40.398  21.333   1.379  0.00  0.00    -0.273 OA
ATOM     23  N   UNL     1     -39.262  23.196   2.177  0.00  0.00    -0.294 N 
ATOM     24  C   UNL     1     -39.369  21.872   1.776  0.00  0.00    +0.243 C 
ATOM     25  H   UNL     1     -38.384  23.525   2.478  0.00  0.00    +0.150 HD
BRANCH  23  26
ATOM     26  C   UNL     1     -40.376  24.118   2.173  0.00  0.00    +0.200 C 
BRANCH  26  28
ATOM     27  O   UNL     1     -40.710  26.396   2.874  0.00  0.00    -0.248 OA
ATOM     28  C   UNL     1     -40.141  25.326   3.044  0.00  0.00    +0.334 C 
BRANCH  28  29
ATOM     29  O   UNL     1     -39.240  25.113   4.032  0.00  0.00    -0.479 OA
ATOM     30  H   UNL     1     -38.750  24.316   4.056  0.00  0.00    +0.295 HD
ENDBRANCH  28  29
ENDBRANCH  26  28
ENDBRANCH  23  26
ENDBRANCH  21  24
ENDBRANCH  18  21
ENDBRANCH  16  19
ENDBRANCH   1  16
TORSDOF 11
ENDMDL
MODEL 6
REMARK VINA RESULT:      -5.3      3.166      7.204
REMARK  Name = 193794
REMARK  11 active torsions:
REMARK  status: ('A' for Active; 'I' for Inactive)
REMARK    1  A    between atoms: C_1  and  N_2
REMARK    2  A    between atoms: C_1  and  C_16
REMARK    3  A    between atoms: N_2  and  C_4
REMARK    4  A    between atoms: C_5  and  N_12
REMARK    5  A    between atoms: C_8  and  N_15
REMARK    6  A    between atoms: C_16  and  C_19
REMARK    7  A    between atoms: N_18  and  C_21
REMARK    8  A    between atoms: C_21  and  C_24
REMARK    9  A    between atoms: N_23  and  C_26
REMARK   10  A    between atoms: C_26  and  C_28
REMARK   11  A    between atoms: C_28  and  O_29
REMARK                            x       y       z     vdW  Elec       q    Type
REMARK                         _______ _______ _______ _____ _____    ______ ____
ROOT
ATOM      1  C   UNL     1     -38.205  20.803  -0.222  0.00  0.00    +0.097 C 
ENDROOT
BRANCH   1   2
ATOM      2  N   UNL     1     -37.590  20.140   0.901  0.00  0.00    -0.331 N 
ATOM      3  H   UNL     1     -38.147  19.950   1.691  0.00  0.00    +0.147 HD
BRANCH   2   4
ATOM      4  C   UNL     1     -36.258  19.754   0.934  0.00  0.00    +0.067 C 
ATOM      5  C   UNL     1     -35.369  20.221   1.922  0.00  0.00    +0.157 C 
ATOM      6  C   UNL     1     -35.761  18.869  -0.042  0.00  0.00    +0.018 C 
ATOM      7  C   UNL     1     -34.035  19.818   1.933  0.00  0.00    +0.049 C 
ATOM      8  C   UNL     1     -33.562  18.941   0.957  0.00  0.00    +0.145 C 
ATOM      9  C   UNL     1     -34.426  18.466  -0.031  0.00  0.00    +0.025 C 
BRANCH   5  12
ATOM     10  O   UNL     1     -35.505  20.898   4.123  0.00  0.00    -0.126 OA
ATOM     11  O   UNL     1     -36.534  22.094   2.596  0.00  0.00    -0.126 OA
ATOM     12  N   UNL     1     -35.825  21.116   2.931  0.00  0.00    +0.059 N 
ENDBRANCH   5  12
BRANCH   8  15
ATOM     13  O   UNL     1     -31.857  17.594   1.727  0.00  0.00    -0.126 OA
ATOM     14  O   UNL     1     -31.385  19.115   0.216  0.00  0.00    -0.126 OA
ATOM     15  N   UNL     1     -32.203  18.530   0.967  0.00  0.00    +0.058 N 
ENDBRANCH   8  15
ENDBRANCH   2   4
ENDBRANCH   1   2
BRANCH   1  16
ATOM     16  C   UNL     1     -39.672  21.078   0.082  0.00  0.00    +0.106 C 
BRANCH  16  19
ATOM     17  O   UNL     1     -40.277  21.054   2.424  0.00  0.00    -0.275 OA
ATOM     18  N   UNL     1     -39.554  23.042   1.463  0.00  0.00    -0.297 N 
ATOM     19  C   UNL     1     -39.875  21.692   1.455  0.00  0.00    +0.225 C 
ATOM     20  H   UNL     1     -39.240  23.455   0.626  0.00  0.00    +0.150 HD
BRANCH  18  21
ATOM     21  C   UNL     1     -39.659  23.868   2.644  0.00  0.00    +0.176 C 
BRANCH  21  24
ATOM     22  O   UNL     1     -37.935  25.355   1.836  0.00  0.00    -0.273 OA
ATOM     23  N   UNL     1     -37.890  24.666   4.055  0.00  0.00    -0.294 N 
ATOM     24  C   UNL     1     -38.419  24.727   2.774  0.00  0.00    +0.243 C 
ATOM     25  H   UNL     1     -38.363  24.130   4.732  0.00  0.00    +0.150 HD
BRANCH  23  26
ATOM     26  C   UNL     1     -36.678  25.352   4.446  0.00  0.00    +0.200 C 
BRANCH  26  28
ATOM     27  O   UNL     1     -34.645  24.858   5.635  0.00  0.00    -0.248 OA
ATOM     28  C   UNL     1     -35.742  24.481   5.243  0.00  0.00    +0.334 C 
BRANCH  28  29
ATOM     29  O   UNL     1     -36.231  23.242   5.487  0.00  0.00    -0.479 OA
ATOM     30  H   UNL     1     -36.609  23.043   6.320  0.00  0.00    +0.295 HD
ENDBRANCH  28  29
ENDBRANCH  26  28
ENDBRANCH  23  26
ENDBRANCH  21  24
ENDBRANCH  18  21
ENDBRANCH  16  19
ENDBRANCH   1  16
TORSDOF 11
ENDMDL
MODEL 7
REMARK VINA RESULT:      -5.3      4.823      8.815
REMARK  Name = 193794
REMARK  11 active torsions:
REMARK  status: ('A' for Active; 'I' for Inactive)
REMARK    1  A    between atoms: C_1  and  N_2
REMARK    2  A    between atoms: C_1  and  C_16
REMARK    3  A    between atoms: N_2  and  C_4
REMARK    4  A    between atoms: C_5  and  N_12
REMARK    5  A    between atoms: C_8  and  N_15
REMARK    6  A    between atoms: C_16  and  C_19
REMARK    7  A    between atoms: N_18  and  C_21
REMARK    8  A    between atoms: C_21  and  C_24
REMARK    9  A    between atoms: N_23  and  C_26
REMARK   10  A    between atoms: C_26  and  C_28
REMARK   11  A    between atoms: C_28  and  O_29
REMARK                            x       y       z     vdW  Elec       q    Type
REMARK                         _______ _______ _______ _____ _____    ______ ____
ROOT
ATOM      1  C   UNL     1     -34.628  28.268   2.493  0.00  0.00    +0.097 C 
ENDROOT
BRANCH   1   2
ATOM      2  N   UNL     1     -35.217  27.837   3.737  0.00  0.00    -0.331 N 
ATOM      3  H   UNL     1     -35.572  28.526   4.345  0.00  0.00    +0.147 HD
BRANCH   2   4
ATOM      4  C   UNL     1     -35.312  26.510   4.127  0.00  0.00    +0.067 C 
ATOM      5  C   UNL     1     -34.395  25.928   5.024  0.00  0.00    +0.157 C 
ATOM      6  C   UNL     1     -36.350  25.704   3.621  0.00  0.00    +0.018 C 
ATOM      7  C   UNL     1     -34.513  24.590   5.401  0.00  0.00    +0.049 C 
ATOM      8  C   UNL     1     -35.548  23.809   4.888  0.00  0.00    +0.145 C 
ATOM      9  C   UNL     1     -36.468  24.367   3.998  0.00  0.00    +0.025 C 
BRANCH   5  12
ATOM     10  O   UNL     1     -32.448  27.141   4.786  0.00  0.00    -0.126 OA
ATOM     11  O   UNL     1     -33.303  26.921   6.796  0.00  0.00    -0.126 OA
ATOM     12  N   UNL     1     -33.329  26.702   5.562  0.00  0.00    +0.059 N 
ENDBRANCH   5  12
BRANCH   8  15
ATOM     13  O   UNL     1     -35.469  21.555   4.412  0.00  0.00    -0.126 OA
ATOM     14  O   UNL     1     -35.973  22.174   6.457  0.00  0.00    -0.126 OA
ATOM     15  N   UNL     1     -35.669  22.447   5.271  0.00  0.00    +0.058 N 
ENDBRANCH   8  15
ENDBRANCH   2   4
ENDBRANCH   1   2
BRANCH   1  16
ATOM     16  C   UNL     1     -35.612  29.145   1.731  0.00  0.00    +0.106 C 
BRANCH  16  19
ATOM     17  O   UNL     1     -35.235  30.839   3.417  0.00  0.00    -0.275 OA
ATOM     18  N   UNL     1     -36.690  31.292   1.663  0.00  0.00    -0.297 N 
ATOM     19  C   UNL     1     -35.803  30.503   2.382  0.00  0.00    +0.225 C 
ATOM     20  H   UNL     1     -37.090  30.923   0.843  0.00  0.00    +0.150 HD
BRANCH  18  21
ATOM     21  C   UNL     1     -37.051  32.633   2.064  0.00  0.00    +0.176 C 
BRANCH  21  24
ATOM     22  O   UNL     1     -39.275  32.028   1.339  0.00  0.00    -0.273 OA
ATOM     23  N   UNL     1     -38.766  34.269   1.689  0.00  0.00    -0.294 N 
ATOM     24  C   UNL     1     -38.487  32.910   1.672  0.00  0.00    +0.243 C 
ATOM     25  H   UNL     1     -38.056  34.889   1.974  0.00  0.00    +0.150 HD
BRANCH  23  26
ATOM     26  C   UNL     1     -40.048  34.820   1.309  0.00  0.00    +0.200 C 
BRANCH  26  28
ATOM     27  O   UNL     1     -42.112  34.417   2.479  0.00  0.00    -0.248 OA
ATOM     28  C   UNL     1     -41.003  34.936   2.469  0.00  0.00    +0.334 C 
BRANCH  28  29
ATOM     29  O   UNL     1     -40.517  35.669   3.499  0.00  0.00    -0.479 OA
ATOM     30  H   UNL     1     -40.416  36.596   3.408  0.00  0.00    +0.295 HD
ENDBRANCH  28  29
ENDBRANCH  26  28
ENDBRANCH  23  26
ENDBRANCH  21  24
ENDBRANCH  18  21
ENDBRANCH  16  19
ENDBRANCH   1  16
TORSDOF 11
ENDMDL
MODEL 8
REMARK VINA RESULT:      -5.2      5.088      7.375
REMARK  Name = 193794
REMARK  11 active torsions:
REMARK  status: ('A' for Active; 'I' for Inactive)
REMARK    1  A    between atoms: C_1  and  N_2
REMARK    2  A    between atoms: C_1  and  C_16
REMARK    3  A    between atoms: N_2  and  C_4
REMARK    4  A    between atoms: C_5  and  N_12
REMARK    5  A    between atoms: C_8  and  N_15
REMARK    6  A    between atoms: C_16  and  C_19
REMARK    7  A    between atoms: N_18  and  C_21
REMARK    8  A    between atoms: C_21  and  C_24
REMARK    9  A    between atoms: N_23  and  C_26
REMARK   10  A    between atoms: C_26  and  C_28
REMARK   11  A    between atoms: C_28  and  O_29
REMARK                            x       y       z     vdW  Elec       q    Type
REMARK                         _______ _______ _______ _____ _____    ______ ____
ROOT
ATOM      1  C   UNL     1     -33.284  25.821   0.801  0.00  0.00    +0.097 C 
ENDROOT
BRANCH   1   2
ATOM      2  N   UNL     1     -34.332  25.903   1.789  0.00  0.00    -0.331 N 
ATOM      3  H   UNL     1     -34.897  26.709   1.800  0.00  0.00    +0.147 HD
BRANCH   2   4
ATOM      4  C   UNL     1     -34.589  24.912   2.724  0.00  0.00    +0.067 C 
ATOM      5  C   UNL     1     -34.268  25.069   4.087  0.00  0.00    +0.157 C 
ATOM      6  C   UNL     1     -35.190  23.704   2.319  0.00  0.00    +0.018 C 
ATOM      7  C   UNL     1     -34.538  24.057   5.008  0.00  0.00    +0.049 C 
ATOM      8  C   UNL     1     -35.133  22.868   4.584  0.00  0.00    +0.145 C 
ATOM      9  C   UNL     1     -35.459  22.693   3.239  0.00  0.00    +0.025 C 
BRANCH   5  12
ATOM     10  O   UNL     1     -32.529  26.583   4.107  0.00  0.00    -0.126 OA
ATOM     11  O   UNL     1     -34.276  26.982   5.375  0.00  0.00    -0.126 OA
ATOM     12  N   UNL     1     -33.661  26.272   4.546  0.00  0.00    +0.059 N 
ENDBRANCH   5  12
BRANCH   8  15
ATOM     13  O   UNL     1     -35.915  22.141   6.628  0.00  0.00    -0.126 OA
ATOM     14  O   UNL     1     -35.134  20.650   5.216  0.00  0.00    -0.126 OA
ATOM     15  N   UNL     1     -35.407  21.837   5.521  0.00  0.00    +0.058 N 
ENDBRANCH   8  15
ENDBRANCH   2   4
ENDBRANCH   1   2
BRANCH   1  16
ATOM     16  C   UNL     1     -32.617  27.180   0.642  0.00  0.00    +0.106 C 
BRANCH  16  19
ATOM     17  O   UNL     1     -34.551  28.634   0.671  0.00  0.00    -0.275 OA
ATOM     18  N   UNL     1     -32.892  28.924   2.273  0.00  0.00    -0.297 N 
ATOM     19  C   UNL     1     -33.476  28.314   1.172  0.00  0.00    +0.225 C 
ATOM     20  H   UNL     1     -32.025  28.586   2.593  0.00  0.00    +0.150 HD
BRANCH  18  21
ATOM     21  C   UNL     1     -33.501  30.034   2.970  0.00  0.00    +0.176 C 
BRANCH  21  24
ATOM     22  O   UNL     1     -31.945  31.524   4.065  0.00  0.00    -0.273 OA
ATOM     23  N   UNL     1     -32.561  29.550   5.124  0.00  0.00    -0.294 N 
ATOM     24  C   UNL     1     -32.594  30.483   4.097  0.00  0.00    +0.243 C 
ATOM     25  H   UNL     1     -33.125  28.747   5.046  0.00  0.00    +0.150 HD
BRANCH  23  26
ATOM     26  C   UNL     1     -31.739  29.699   6.304  0.00  0.00    +0.200 C 
BRANCH  26  28
ATOM     27  O   UNL     1     -29.606  28.612   6.547  0.00  0.00    -0.248 OA
ATOM     28  C   UNL     1     -30.827  28.523   6.537  0.00  0.00    +0.334 C 
BRANCH  28  29
ATOM     29  O   UNL     1     -31.487  27.357   6.735  0.00  0.00    -0.479 OA
ATOM     30  H   UNL     1     -31.072  26.657   7.199  0.00  0.00    +0.295 HD
ENDBRANCH  28  29
ENDBRANCH  26  28
ENDBRANCH  23  26
ENDBRANCH  21  24
ENDBRANCH  18  21
ENDBRANCH  16  19
ENDBRANCH   1  16
TORSDOF 11
ENDMDL
MODEL 9
REMARK VINA RESULT:      -5.0      2.016      6.328
REMARK  Name = 193794
REMARK  11 active torsions:
REMARK  status: ('A' for Active; 'I' for Inactive)
REMARK    1  A    between atoms: C_1  and  N_2
REMARK    2  A    between atoms: C_1  and  C_16
REMARK    3  A    between atoms: N_2  and  C_4
REMARK    4  A    between atoms: C_5  and  N_12
REMARK    5  A    between atoms: C_8  and  N_15
REMARK    6  A    between atoms: C_16  and  C_19
REMARK    7  A    between atoms: N_18  and  C_21
REMARK    8  A    between atoms: C_21  and  C_24
REMARK    9  A    between atoms: N_23  and  C_26
REMARK   10  A    between atoms: C_26  and  C_28
REMARK   11  A    between atoms: C_28  and  O_29
REMARK                            x       y       z     vdW  Elec       q    Type
REMARK                         _______ _______ _______ _____ _____    ______ ____
ROOT
ATOM      1  C   UNL     1     -37.692  22.233   2.061  0.00  0.00    +0.097 C 
ENDROOT
BRANCH   1   2
ATOM      2  N   UNL     1     -37.391  22.563   3.432  0.00  0.00    -0.331 N 
ATOM      3  H   UNL     1     -37.890  22.097   4.142  0.00  0.00    +0.147 HD
BRANCH   2   4
ATOM      4  C   UNL     1     -36.441  23.500   3.809  0.00  0.00    +0.067 C 
ATOM      5  C   UNL     1     -35.518  23.253   4.844  0.00  0.00    +0.157 C 
ATOM      6  C   UNL     1     -36.381  24.743   3.149  0.00  0.00    +0.018 C 
ATOM      7  C   UNL     1     -34.572  24.211   5.204  0.00  0.00    +0.049 C 
ATOM      8  C   UNL     1     -34.530  25.436   4.538  0.00  0.00    +0.145 C 
ATOM      9  C   UNL     1     -35.435  25.701   3.510  0.00  0.00    +0.025 C 
BRANCH   5  12
ATOM     10  O   UNL     1     -36.010  21.977   6.702  0.00  0.00    -0.126 OA
ATOM     11  O   UNL     1     -35.083  20.992   4.973  0.00  0.00    -0.126 OA
ATOM     12  N   UNL     1     -35.538  22.011   5.541  0.00  0.00    +0.059 N 
ENDBRANCH   5  12
BRANCH   8  15
ATOM     13  O   UNL     1     -32.709  26.767   4.060  0.00  0.00    -0.126 OA
ATOM     14  O   UNL     1     -33.600  26.894   6.063  0.00  0.00    -0.126 OA
ATOM     15  N   UNL     1     -33.567  26.413   4.904  0.00  0.00    +0.058 N 
ENDBRANCH   8  15
ENDBRANCH   2   4
ENDBRANCH   1   2
BRANCH   1  16
ATOM     16  C   UNL     1     -39.190  22.015   1.898  0.00  0.00    +0.106 C 
BRANCH  16  19
ATOM     17  O   UNL     1     -41.102  23.339   1.231  0.00  0.00    -0.275 OA
ATOM     18  N   UNL     1     -38.967  24.087   0.699  0.00  0.00    -0.297 N 
ATOM     19  C   UNL     1     -39.882  23.202   1.251  0.00  0.00    +0.225 C 
ATOM     20  H   UNL     1     -38.008  23.878   0.773  0.00  0.00    +0.150 HD
BRANCH  18  21
ATOM     21  C   UNL     1     -39.360  25.300   0.020  0.00  0.00    +0.176 C 
BRANCH  21  24
ATOM     22  O   UNL     1     -39.001  26.869   1.822  0.00  0.00    -0.273 OA
ATOM     23  N   UNL     1     -41.153  26.558   1.002  0.00  0.00    -0.294 N 
ATOM     24  C   UNL     1     -39.783  26.337   1.039  0.00  0.00    +0.243 C 
ATOM     25  H   UNL     1     -41.686  26.076   0.329  0.00  0.00    +0.150 HD
BRANCH  23  26
ATOM     26  C   UNL     1     -41.835  27.463   1.900  0.00  0.00    +0.200 C 
BRANCH  26  28
ATOM     27  O   UNL     1     -43.374  26.485   3.470  0.00  0.00    -0.248 OA
ATOM     28  C   UNL     1     -42.225  26.813   3.202  0.00  0.00    +0.334 C 
BRANCH  28  29
ATOM     29  O   UNL     1     -41.184  26.627   4.048  0.00  0.00    -0.479 OA
ATOM     30  H   UNL     1     -40.493  26.039   3.817  0.00  0.00    +0.295 HD
ENDBRANCH  28  29
ENDBRANCH  26  28
ENDBRANCH  23  26
ENDBRANCH  21  24
ENDBRANCH  18  21
ENDBRANCH  16  19
ENDBRANCH   1  16
TORSDOF 11
ENDMDL
