MODEL 1
REMARK VINA RESULT:      -5.5      0.000      0.000
REMARK  Name = 5486944
REMARK  7 active torsions:
REMARK  status: ('A' for Active; 'I' for Inactive)
REMARK    1  A    between atoms: C_1  and  C_14
REMARK    2  A    between atoms: C_4  and  N_9
REMARK    3  A    between atoms: C_5  and  O_10
REMARK    4  A    between atoms: C_6  and  O_12
REMARK    5  A    between atoms: C_14  and  C_15
REMARK    6  A    between atoms: C_15  and  C_17
REMARK    7  A    between atoms: C_15  and  C_20
REMARK                            x       y       z     vdW  Elec       q    Type
REMARK                         _______ _______ _______ _____ _____    ______ ____
ROOT
ATOM      1  C   UNL     1     -37.451  23.282   2.509  0.00  0.00    -0.016 C 
ATOM      2  C   UNL     1     -38.009  24.526   2.264  0.00  0.00    +0.023 C 
ATOM      3  C   UNL     1     -38.176  22.118   2.321  0.00  0.00    +0.036 C 
ATOM      4  C   UNL     1     -39.328  24.607   1.818  0.00  0.00    +0.179 C 
ATOM      5  C   UNL     1     -39.495  22.198   1.875  0.00  0.00    +0.169 C 
ATOM      6  C   UNL     1     -40.072  23.442   1.623  0.00  0.00    +0.190 C 
ENDROOT
BRANCH   4   9
ATOM      7  O   UNL     1     -39.955  26.718   2.502  0.00  0.00    -0.126 OA
ATOM      8  O   UNL     1     -40.329  26.142   0.417  0.00  0.00    -0.126 OA
ATOM      9  N   UNL     1     -39.899  25.885   1.567  0.00  0.00    +0.061 N 
ENDBRANCH   4   9
BRANCH   5  10
ATOM     10  O   UNL     1     -40.209  21.052   1.689  0.00  0.00    -0.503 OA
ATOM     11  H   UNL     1     -41.145  21.069   1.748  0.00  0.00    +0.292 HD
ENDBRANCH   5  10
BRANCH   6  12
ATOM     12  O   UNL     1     -41.363  23.509   1.187  0.00  0.00    -0.502 OA
ATOM     13  H   UNL     1     -42.058  23.646   1.800  0.00  0.00    +0.292 HD
ENDBRANCH   6  12
BRANCH   1  14
ATOM     14  C   UNL     1     -36.023  23.195   2.992  0.00  0.00    +0.041 C 
BRANCH  14  15
ATOM     15  C   UNL     1     -35.896  23.320   4.520  0.00  0.00    +0.119 C 
BRANCH  15  17
ATOM     16  O   UNL     1     -33.765  24.455   4.567  0.00  0.00    -0.296 OA
ATOM     17  C   UNL     1     -34.961  24.477   4.856  0.00  0.00    +0.158 C 
ATOM     18  C   UNL     1     -35.572  25.670   5.546  0.00  0.00    +0.073 C 
ENDBRANCH  15  17
BRANCH  15  20
ATOM     19  O   UNL     1     -35.140  21.017   4.500  0.00  0.00    -0.296 OA
ATOM     20  C   UNL     1     -35.424  22.016   5.162  0.00  0.00    +0.158 C 
ATOM     21  C   UNL     1     -35.261  22.023   6.660  0.00  0.00    +0.073 C 
ENDBRANCH  15  20
ENDBRANCH  14  15
ENDBRANCH   1  14
TORSDOF 7
ENDMDL
MODEL 2
REMARK VINA RESULT:      -5.5      3.309      5.108
REMARK  Name = 5486944
REMARK  7 active torsions:
REMARK  status: ('A' for Active; 'I' for Inactive)
REMARK    1  A    between atoms: C_1  and  C_14
REMARK    2  A    between atoms: C_4  and  N_9
REMARK    3  A    between atoms: C_5  and  O_10
REMARK    4  A    between atoms: C_6  and  O_12
REMARK    5  A    between atoms: C_14  and  C_15
REMARK    6  A    between atoms: C_15  and  C_17
REMARK    7  A    between atoms: C_15  and  C_20
REMARK                            x       y       z     vdW  Elec       q    Type
REMARK                         _______ _______ _______ _____ _____    ______ ____
ROOT
ATOM      1  C   UNL     1     -35.148  24.329   4.808  0.00  0.00    -0.016 C 
ATOM      2  C   UNL     1     -35.426  24.158   3.462  0.00  0.00    +0.023 C 
ATOM      3  C   UNL     1     -35.093  23.251   5.675  0.00  0.00    +0.036 C 
ATOM      4  C   UNL     1     -35.656  22.874   2.969  0.00  0.00    +0.179 C 
ATOM      5  C   UNL     1     -35.322  21.966   5.183  0.00  0.00    +0.169 C 
ATOM      6  C   UNL     1     -35.604  21.777   3.831  0.00  0.00    +0.190 C 
ENDROOT
BRANCH   4   9
ATOM      7  O   UNL     1     -35.089  23.065   0.742  0.00  0.00    -0.126 OA
ATOM      8  O   UNL     1     -37.036  22.189   1.254  0.00  0.00    -0.126 OA
ATOM      9  N   UNL     1     -35.941  22.701   1.587  0.00  0.00    +0.061 N 
ENDBRANCH   4   9
BRANCH   5  10
ATOM     10  O   UNL     1     -35.268  20.904   6.036  0.00  0.00    -0.503 OA
ATOM     11  H   UNL     1     -34.971  20.070   5.726  0.00  0.00    +0.292 HD
ENDBRANCH   5  10
BRANCH   6  12
ATOM     12  O   UNL     1     -35.827  20.516   3.360  0.00  0.00    -0.502 OA
ATOM     13  H   UNL     1     -35.334  19.795   3.701  0.00  0.00    +0.292 HD
ENDBRANCH   6  12
BRANCH   1  14
ATOM     14  C   UNL     1     -34.899  25.720   5.341  0.00  0.00    +0.041 C 
BRANCH  14  15
ATOM     15  C   UNL     1     -33.735  26.436   4.636  0.00  0.00    +0.119 C 
BRANCH  15  17
ATOM     16  O   UNL     1     -32.543  28.424   5.311  0.00  0.00    -0.296 OA
ATOM     17  C   UNL     1     -33.015  27.334   5.635  0.00  0.00    +0.158 C 
ATOM     18  C   UNL     1     -32.921  26.838   7.056  0.00  0.00    +0.073 C 
ENDBRANCH  15  17
BRANCH  15  20
ATOM     19  O   UNL     1     -35.156  28.006   3.457  0.00  0.00    -0.296 OA
ATOM     20  C   UNL     1     -34.206  27.224   3.414  0.00  0.00    +0.158 C 
ATOM     21  C   UNL     1     -33.409  27.044   2.148  0.00  0.00    +0.073 C 
ENDBRANCH  15  20
ENDBRANCH  14  15
ENDBRANCH   1  14
TORSDOF 7
ENDMDL
MODEL 3
REMARK VINA RESULT:      -5.5      2.624      4.211
REMARK  Name = 5486944
REMARK  7 active torsions:
REMARK  status: ('A' for Active; 'I' for Inactive)
REMARK    1  A    between atoms: C_1  and  C_14
REMARK    2  A    between atoms: C_4  and  N_9
REMARK    3  A    between atoms: C_5  and  O_10
REMARK    4  A    between atoms: C_6  and  O_12
REMARK    5  A    between atoms: C_14  and  C_15
REMARK    6  A    between atoms: C_15  and  C_17
REMARK    7  A    between atoms: C_15  and  C_20
REMARK                            x       y       z     vdW  Elec       q    Type
REMARK                         _______ _______ _______ _____ _____    ______ ____
ROOT
ATOM      1  C   UNL     1     -35.993  22.710   2.251  0.00  0.00    -0.016 C 
ATOM      2  C   UNL     1     -37.329  22.487   1.961  0.00  0.00    +0.023 C 
ATOM      3  C   UNL     1     -35.056  21.694   2.152  0.00  0.00    +0.036 C 
ATOM      4  C   UNL     1     -37.739  21.215   1.562  0.00  0.00    +0.179 C 
ATOM      5  C   UNL     1     -35.465  20.423   1.752  0.00  0.00    +0.169 C 
ATOM      6  C   UNL     1     -36.807  20.182   1.457  0.00  0.00    +0.190 C 
ENDROOT
BRANCH   4   9
ATOM      7  O   UNL     1     -39.411  20.385   0.209  0.00  0.00    -0.126 OA
ATOM      8  O   UNL     1     -39.981  21.401   2.070  0.00  0.00    -0.126 OA
ATOM      9  N   UNL     1     -39.111  20.990   1.265  0.00  0.00    +0.061 N 
ENDBRANCH   4   9
BRANCH   5  10
ATOM     10  O   UNL     1     -34.543  19.423   1.654  0.00  0.00    -0.503 OA
ATOM     11  H   UNL     1     -34.245  19.144   0.811  0.00  0.00    +0.292 HD
ENDBRANCH   5  10
BRANCH   6  12
ATOM     12  O   UNL     1     -37.196  18.934   1.067  0.00  0.00    -0.502 OA
ATOM     13  H   UNL     1     -36.559  18.254   0.969  0.00  0.00    +0.292 HD
ENDBRANCH   6  12
BRANCH   1  14
ATOM     14  C   UNL     1     -35.549  24.086   2.684  0.00  0.00    +0.041 C 
BRANCH  14  15
ATOM     15  C   UNL     1     -34.705  24.070   3.970  0.00  0.00    +0.119 C 
BRANCH  15  17
ATOM     16  O   UNL     1     -36.533  24.644   5.439  0.00  0.00    -0.296 OA
ATOM     17  C   UNL     1     -35.620  23.864   5.172  0.00  0.00    +0.158 C 
ATOM     18  C   UNL     1     -35.370  22.641   6.018  0.00  0.00    +0.073 C 
ENDBRANCH  15  17
BRANCH  15  20
ATOM     19  O   UNL     1     -33.359  25.676   5.188  0.00  0.00    -0.296 OA
ATOM     20  C   UNL     1     -33.866  25.339   4.117  0.00  0.00    +0.158 C 
ATOM     21  C   UNL     1     -33.631  26.141   2.864  0.00  0.00    +0.073 C 
ENDBRANCH  15  20
ENDBRANCH  14  15
ENDBRANCH   1  14
TORSDOF 7
ENDMDL
MODEL 4
REMARK VINA RESULT:      -5.4      3.098      6.247
REMARK  Name = 5486944
REMARK  7 active torsions:
REMARK  status: ('A' for Active; 'I' for Inactive)
REMARK    1  A    between atoms: C_1  and  C_14
REMARK    2  A    between atoms: C_4  and  N_9
REMARK    3  A    between atoms: C_5  and  O_10
REMARK    4  A    between atoms: C_6  and  O_12
REMARK    5  A    between atoms: C_14  and  C_15
REMARK    6  A    between atoms: C_15  and  C_17
REMARK    7  A    between atoms: C_15  and  C_20
REMARK                            x       y       z     vdW  Elec       q    Type
REMARK                         _______ _______ _______ _____ _____    ______ ____
ROOT
ATOM      1  C   UNL     1     -34.801  25.620   4.989  0.00  0.00    -0.016 C 
ATOM      2  C   UNL     1     -34.697  26.345   3.814  0.00  0.00    +0.023 C 
ATOM      3  C   UNL     1     -33.983  25.885   6.074  0.00  0.00    +0.036 C 
ATOM      4  C   UNL     1     -33.749  27.364   3.721  0.00  0.00    +0.179 C 
ATOM      5  C   UNL     1     -33.035  26.904   5.983  0.00  0.00    +0.169 C 
ATOM      6  C   UNL     1     -32.918  27.644   4.807  0.00  0.00    +0.190 C 
ENDROOT
BRANCH   4   9
ATOM      7  O   UNL     1     -33.321  27.510   1.460  0.00  0.00    -0.126 OA
ATOM      8  O   UNL     1     -33.880  29.339   2.538  0.00  0.00    -0.126 OA
ATOM      9  N   UNL     1     -33.645  28.108   2.514  0.00  0.00    +0.061 N 
ENDBRANCH   4   9
BRANCH   5  10
ATOM     10  O   UNL     1     -32.229  27.167   7.051  0.00  0.00    -0.503 OA
ATOM     11  H   UNL     1     -31.298  27.142   6.951  0.00  0.00    +0.292 HD
ENDBRANCH   5  10
BRANCH   6  12
ATOM     12  O   UNL     1     -31.987  28.639   4.728  0.00  0.00    -0.502 OA
ATOM     13  H   UNL     1     -31.901  29.256   5.428  0.00  0.00    +0.292 HD
ENDBRANCH   6  12
BRANCH   1  14
ATOM     14  C   UNL     1     -35.827  24.516   5.089  0.00  0.00    +0.041 C 
BRANCH  14  15
ATOM     15  C   UNL     1     -35.505  23.313   4.188  0.00  0.00    +0.119 C 
BRANCH  15  17
ATOM     16  O   UNL     1     -37.772  23.146   3.371  0.00  0.00    -0.296 OA
ATOM     17  C   UNL     1     -36.571  23.193   3.105  0.00  0.00    +0.158 C 
ATOM     18  C   UNL     1     -36.091  23.155   1.675  0.00  0.00    +0.073 C 
ENDBRANCH  15  17
BRANCH  15  20
ATOM     19  O   UNL     1     -35.216  20.921   4.454  0.00  0.00    -0.296 OA
ATOM     20  C   UNL     1     -35.377  22.018   4.990  0.00  0.00    +0.158 C 
ATOM     21  C   UNL     1     -35.395  22.150   6.491  0.00  0.00    +0.073 C 
ENDBRANCH  15  20
ENDBRANCH  14  15
ENDBRANCH   1  14
TORSDOF 7
ENDMDL
MODEL 5
REMARK VINA RESULT:      -5.4      3.144      5.554
REMARK  Name = 5486944
REMARK  7 active torsions:
REMARK  status: ('A' for Active; 'I' for Inactive)
REMARK    1  A    between atoms: C_1  and  C_14
REMARK    2  A    between atoms: C_4  and  N_9
REMARK    3  A    between atoms: C_5  and  O_10
REMARK    4  A    between atoms: C_6  and  O_12
REMARK    5  A    between atoms: C_14  and  C_15
REMARK    6  A    between atoms: C_15  and  C_17
REMARK    7  A    between atoms: C_15  and  C_20
REMARK                            x       y       z     vdW  Elec       q    Type
REMARK                         _______ _______ _______ _____ _____    ______ ____
ROOT
ATOM      1  C   UNL     1     -34.786  25.343   5.059  0.00  0.00    -0.016 C 
ATOM      2  C   UNL     1     -34.615  23.987   4.834  0.00  0.00    +0.023 C 
ATOM      3  C   UNL     1     -35.973  25.981   4.739  0.00  0.00    +0.036 C 
ATOM      4  C   UNL     1     -35.657  23.249   4.273  0.00  0.00    +0.179 C 
ATOM      5  C   UNL     1     -37.016  25.245   4.180  0.00  0.00    +0.169 C 
ATOM      6  C   UNL     1     -36.859  23.879   3.946  0.00  0.00    +0.190 C 
ENDROOT
BRANCH   4   9
ATOM      7  O   UNL     1     -35.166  21.119   5.005  0.00  0.00    -0.126 OA
ATOM      8  O   UNL     1     -35.638  21.411   2.881  0.00  0.00    -0.126 OA
ATOM      9  N   UNL     1     -35.478  21.858   4.042  0.00  0.00    +0.061 N 
ENDBRANCH   4   9
BRANCH   5  10
ATOM     10  O   UNL     1     -38.185  25.872   3.865  0.00  0.00    -0.503 OA
ATOM     11  H   UNL     1     -39.003  25.491   4.118  0.00  0.00    +0.292 HD
ENDBRANCH   5  10
BRANCH   6  12
ATOM     12  O   UNL     1     -37.887  23.168   3.397  0.00  0.00    -0.502 OA
ATOM     13  H   UNL     1     -38.730  23.173   3.805  0.00  0.00    +0.292 HD
ENDBRANCH   6  12
BRANCH   1  14
ATOM     14  C   UNL     1     -33.657  26.141   5.666  0.00  0.00    +0.041 C 
BRANCH  14  15
ATOM     15  C   UNL     1     -33.261  27.362   4.820  0.00  0.00    +0.119 C 
BRANCH  15  17
ATOM     16  O   UNL     1     -31.986  26.070   3.227  0.00  0.00    -0.296 OA
ATOM     17  C   UNL     1     -32.873  26.902   3.419  0.00  0.00    +0.158 C 
ATOM     18  C   UNL     1     -33.642  27.498   2.267  0.00  0.00    +0.073 C 
ENDBRANCH  15  17
BRANCH  15  20
ATOM     19  O   UNL     1     -31.419  27.706   6.357  0.00  0.00    -0.296 OA
ATOM     20  C   UNL     1     -32.140  28.169   5.473  0.00  0.00    +0.158 C 
ATOM     21  C   UNL     1     -31.912  29.560   4.939  0.00  0.00    +0.073 C 
ENDBRANCH  15  20
ENDBRANCH  14  15
ENDBRANCH   1  14
TORSDOF 7
ENDMDL
MODEL 6
REMARK VINA RESULT:      -5.4      3.440      6.381
REMARK  Name = 5486944
REMARK  7 active torsions:
REMARK  status: ('A' for Active; 'I' for Inactive)
REMARK    1  A    between atoms: C_1  and  C_14
REMARK    2  A    between atoms: C_4  and  N_9
REMARK    3  A    between atoms: C_5  and  O_10
REMARK    4  A    between atoms: C_6  and  O_12
REMARK    5  A    between atoms: C_14  and  C_15
REMARK    6  A    between atoms: C_15  and  C_17
REMARK    7  A    between atoms: C_15  and  C_20
REMARK                            x       y       z     vdW  Elec       q    Type
REMARK                         _______ _______ _______ _____ _____    ______ ____
ROOT
ATOM      1  C   UNL     1     -34.995  25.504   4.620  0.00  0.00    -0.016 C 
ATOM      2  C   UNL     1     -34.107  25.955   5.583  0.00  0.00    +0.023 C 
ATOM      3  C   UNL     1     -35.085  26.115   3.381  0.00  0.00    +0.036 C 
ATOM      4  C   UNL     1     -33.288  27.047   5.299  0.00  0.00    +0.179 C 
ATOM      5  C   UNL     1     -34.265  27.206   3.095  0.00  0.00    +0.169 C 
ATOM      6  C   UNL     1     -33.366  27.673   4.054  0.00  0.00    +0.190 C 
ENDROOT
BRANCH   4   9
ATOM      7  O   UNL     1     -32.788  27.665   7.463  0.00  0.00    -0.126 OA
ATOM      8  O   UNL     1     -31.191  27.743   5.959  0.00  0.00    -0.126 OA
ATOM      9  N   UNL     1     -32.378  27.508   6.289  0.00  0.00    +0.061 N 
ENDBRANCH   4   9
BRANCH   5  10
ATOM     10  O   UNL     1     -34.352  27.808   1.875  0.00  0.00    -0.503 OA
ATOM     11  H   UNL     1     -33.592  28.200   1.492  0.00  0.00    +0.292 HD
ENDBRANCH   5  10
BRANCH   6  12
ATOM     12  O   UNL     1     -32.569  28.742   3.764  0.00  0.00    -0.502 OA
ATOM     13  H   UNL     1     -31.945  29.045   4.394  0.00  0.00    +0.292 HD
ENDBRANCH   6  12
BRANCH   1  14
ATOM     14  C   UNL     1     -35.883  24.322   4.928  0.00  0.00    +0.041 C 
BRANCH  14  15
ATOM     15  C   UNL     1     -35.493  23.057   4.146  0.00  0.00    +0.119 C 
BRANCH  15  17
ATOM     16  O   UNL     1     -37.736  22.901   3.265  0.00  0.00    -0.296 OA
ATOM     17  C   UNL     1     -36.527  22.797   3.057  0.00  0.00    +0.158 C 
ATOM     18  C   UNL     1     -36.004  22.423   1.693  0.00  0.00    +0.073 C 
ENDBRANCH  15  17
BRANCH  15  20
ATOM     19  O   UNL     1     -35.113  20.713   4.633  0.00  0.00    -0.296 OA
ATOM     20  C   UNL     1     -35.333  21.845   5.064  0.00  0.00    +0.158 C 
ATOM     21  C   UNL     1     -35.396  22.109   6.546  0.00  0.00    +0.073 C 
ENDBRANCH  15  20
ENDBRANCH  14  15
ENDBRANCH   1  14
TORSDOF 7
ENDMDL
MODEL 7
REMARK VINA RESULT:      -5.4      1.202      2.504
REMARK  Name = 5486944
REMARK  7 active torsions:
REMARK  status: ('A' for Active; 'I' for Inactive)
REMARK    1  A    between atoms: C_1  and  C_14
REMARK    2  A    between atoms: C_4  and  N_9
REMARK    3  A    between atoms: C_5  and  O_10
REMARK    4  A    between atoms: C_6  and  O_12
REMARK    5  A    between atoms: C_14  and  C_15
REMARK    6  A    between atoms: C_15  and  C_17
REMARK    7  A    between atoms: C_15  and  C_20
REMARK                            x       y       z     vdW  Elec       q    Type
REMARK                         _______ _______ _______ _____ _____    ______ ____
ROOT
ATOM      1  C   UNL     1     -37.569  23.761   2.680  0.00  0.00    -0.016 C 
ATOM      2  C   UNL     1     -38.240  22.854   1.876  0.00  0.00    +0.023 C 
ATOM      3  C   UNL     1     -38.193  24.903   3.153  0.00  0.00    +0.036 C 
ATOM      4  C   UNL     1     -39.571  23.096   1.536  0.00  0.00    +0.179 C 
ATOM      5  C   UNL     1     -39.524  25.145   2.815  0.00  0.00    +0.169 C 
ATOM      6  C   UNL     1     -40.213  24.243   2.006  0.00  0.00    +0.190 C 
ENDROOT
BRANCH   4   9
ATOM      7  O   UNL     1     -40.506  21.021   1.164  0.00  0.00    -0.126 OA
ATOM      8  O   UNL     1     -40.595  22.512  -0.446  0.00  0.00    -0.126 OA
ATOM      9  N   UNL     1     -40.257  22.164   0.711  0.00  0.00    +0.061 N 
ENDBRANCH   4   9
BRANCH   5  10
ATOM     10  O   UNL     1     -40.139  26.269   3.280  0.00  0.00    -0.503 OA
ATOM     11  H   UNL     1     -39.695  26.828   3.888  0.00  0.00    +0.292 HD
ENDBRANCH   5  10
BRANCH   6  12
ATOM     12  O   UNL     1     -41.515  24.490   1.680  0.00  0.00    -0.502 OA
ATOM     13  H   UNL     1     -42.179  23.865   1.895  0.00  0.00    +0.292 HD
ENDBRANCH   6  12
BRANCH   1  14
ATOM     14  C   UNL     1     -36.128  23.498   3.048  0.00  0.00    +0.041 C 
BRANCH  14  15
ATOM     15  C   UNL     1     -35.884  23.505   4.566  0.00  0.00    +0.119 C 
BRANCH  15  17
ATOM     16  O   UNL     1     -33.674  24.477   4.599  0.00  0.00    -0.296 OA
ATOM     17  C   UNL     1     -34.861  24.581   4.908  0.00  0.00    +0.158 C 
ATOM     18  C   UNL     1     -35.370  25.802   5.632  0.00  0.00    +0.073 C 
ENDBRANCH  15  17
BRANCH  15  20
ATOM     19  O   UNL     1     -35.236  21.181   4.327  0.00  0.00    -0.296 OA
ATOM     20  C   UNL     1     -35.446  22.133   5.079  0.00  0.00    +0.158 C 
ATOM     21  C   UNL     1     -35.219  22.010   6.564  0.00  0.00    +0.073 C 
ENDBRANCH  15  20
ENDBRANCH  14  15
ENDBRANCH   1  14
TORSDOF 7
ENDMDL
MODEL 8
REMARK VINA RESULT:      -5.3      3.242      5.019
REMARK  Name = 5486944
REMARK  7 active torsions:
REMARK  status: ('A' for Active; 'I' for Inactive)
REMARK    1  A    between atoms: C_1  and  C_14
REMARK    2  A    between atoms: C_4  and  N_9
REMARK    3  A    between atoms: C_5  and  O_10
REMARK    4  A    between atoms: C_6  and  O_12
REMARK    5  A    between atoms: C_14  and  C_15
REMARK    6  A    between atoms: C_15  and  C_17
REMARK    7  A    between atoms: C_15  and  C_20
REMARK                            x       y       z     vdW  Elec       q    Type
REMARK                         _______ _______ _______ _____ _____    ______ ____
ROOT
ATOM      1  C   UNL     1     -35.822  23.004   2.353  0.00  0.00    -0.016 C 
ATOM      2  C   UNL     1     -34.834  22.160   1.873  0.00  0.00    +0.023 C 
ATOM      3  C   UNL     1     -37.135  22.581   2.471  0.00  0.00    +0.036 C 
ATOM      4  C   UNL     1     -35.168  20.858   1.502  0.00  0.00    +0.179 C 
ATOM      5  C   UNL     1     -37.470  21.279   2.102  0.00  0.00    +0.169 C 
ATOM      6  C   UNL     1     -36.487  20.417   1.617  0.00  0.00    +0.190 C 
ENDROOT
BRANCH   4   9
ATOM      7  O   UNL     1     -33.687  20.196  -0.136  0.00  0.00    -0.126 OA
ATOM      8  O   UNL     1     -33.750  19.055   1.738  0.00  0.00    -0.126 OA
ATOM      9  N   UNL     1     -34.152  19.994   1.010  0.00  0.00    +0.061 N 
ENDBRANCH   4   9
BRANCH   5  10
ATOM     10  O   UNL     1     -38.763  20.861   2.219  0.00  0.00    -0.503 OA
ATOM     11  H   UNL     1     -38.948  19.992   2.517  0.00  0.00    +0.292 HD
ENDBRANCH   5  10
BRANCH   6  12
ATOM     12  O   UNL     1     -36.826  19.145   1.257  0.00  0.00    -0.502 OA
ATOM     13  H   UNL     1     -37.611  18.989   0.770  0.00  0.00    +0.292 HD
ENDBRANCH   6  12
BRANCH   1  14
ATOM     14  C   UNL     1     -35.460  24.414   2.754  0.00  0.00    +0.041 C 
BRANCH  14  15
ATOM     15  C   UNL     1     -34.641  24.478   4.053  0.00  0.00    +0.119 C 
BRANCH  15  17
ATOM     16  O   UNL     1     -36.506  24.614   5.581  0.00  0.00    -0.296 OA
ATOM     17  C   UNL     1     -35.502  24.002   5.218  0.00  0.00    +0.158 C 
ATOM     18  C   UNL     1     -35.081  22.726   5.902  0.00  0.00    +0.073 C 
ENDBRANCH  15  17
BRANCH  15  20
ATOM     19  O   UNL     1     -33.215  26.101   5.152  0.00  0.00    -0.296 OA
ATOM     20  C   UNL     1     -34.082  25.878   4.307  0.00  0.00    +0.158 C 
ATOM     21  C   UNL     1     -34.604  26.982   3.424  0.00  0.00    +0.073 C 
ENDBRANCH  15  20
ENDBRANCH  14  15
ENDBRANCH   1  14
TORSDOF 7
ENDMDL
MODEL 9
REMARK VINA RESULT:      -5.3      3.247      5.451
REMARK  Name = 5486944
REMARK  7 active torsions:
REMARK  status: ('A' for Active; 'I' for Inactive)
REMARK    1  A    between atoms: C_1  and  C_14
REMARK    2  A    between atoms: C_4  and  N_9
REMARK    3  A    between atoms: C_5  and  O_10
REMARK    4  A    between atoms: C_6  and  O_12
REMARK    5  A    between atoms: C_14  and  C_15
REMARK    6  A    between atoms: C_15  and  C_17
REMARK    7  A    between atoms: C_15  and  C_20
REMARK                            x       y       z     vdW  Elec       q    Type
REMARK                         _______ _______ _______ _____ _____    ______ ____
ROOT
ATOM      1  C   UNL     1     -35.268  23.945   2.559  0.00  0.00    -0.016 C 
ATOM      2  C   UNL     1     -34.366  24.830   3.126  0.00  0.00    +0.023 C 
ATOM      3  C   UNL     1     -36.608  23.959   2.909  0.00  0.00    +0.036 C 
ATOM      4  C   UNL     1     -34.815  25.753   4.070  0.00  0.00    +0.179 C 
ATOM      5  C   UNL     1     -37.058  24.882   3.852  0.00  0.00    +0.169 C 
ATOM      6  C   UNL     1     -36.163  25.779   4.433  0.00  0.00    +0.190 C 
ENDROOT
BRANCH   4   9
ATOM      7  O   UNL     1     -33.882  27.853   4.264  0.00  0.00    -0.126 OA
ATOM      8  O   UNL     1     -33.102  26.241   5.535  0.00  0.00    -0.126 OA
ATOM      9  N   UNL     1     -33.888  26.660   4.651  0.00  0.00    +0.061 N 
ENDBRANCH   4   9
BRANCH   5  10
ATOM     10  O   UNL     1     -38.377  24.896   4.198  0.00  0.00    -0.503 OA
ATOM     11  H   UNL     1     -38.628  24.759   5.090  0.00  0.00    +0.292 HD
ENDBRANCH   5  10
BRANCH   6  12
ATOM     12  O   UNL     1     -36.615  26.678   5.355  0.00  0.00    -0.502 OA
ATOM     13  H   UNL     1     -37.489  27.009   5.297  0.00  0.00    +0.292 HD
ENDBRANCH   6  12
BRANCH   1  14
ATOM     14  C   UNL     1     -34.780  22.946   1.537  0.00  0.00    +0.041 C 
BRANCH  14  15
ATOM     15  C   UNL     1     -35.681  21.704   1.433  0.00  0.00    +0.119 C 
BRANCH  15  17
ATOM     16  O   UNL     1     -35.344  20.414   3.446  0.00  0.00    -0.296 OA
ATOM     17  C   UNL     1     -35.078  20.571   2.255  0.00  0.00    +0.158 C 
ATOM     18  C   UNL     1     -34.145  19.628   1.537  0.00  0.00    +0.073 C 
ENDBRANCH  15  17
BRANCH  15  20
ATOM     19  O   UNL     1     -36.774  20.472  -0.345  0.00  0.00    -0.296 OA
ATOM     20  C   UNL     1     -35.907  21.283  -0.019  0.00  0.00    +0.158 C 
ATOM     21  C   UNL     1     -35.049  21.958  -1.057  0.00  0.00    +0.073 C 
ENDBRANCH  15  20
ENDBRANCH  14  15
ENDBRANCH   1  14
TORSDOF 7
ENDMDL
