MODEL 1
REMARK VINA RESULT:      -5.0      0.000      0.000
REMARK  Name = 5076631
REMARK  19 active torsions:
REMARK  status: ('A' for Active; 'I' for Inactive)
REMARK    1  A    between atoms: C_1  and  O_2
REMARK    2  A    between atoms: C_1  and  C_4
REMARK    3  A    between atoms: C_1  and  C_16
REMARK    4  A    between atoms: C_4  and  O_5
REMARK    5  A    between atoms: C_4  and  C_7
REMARK    6  A    between atoms: C_7  and  O_8
REMARK    7  A    between atoms: C_7  and  C_10
REMARK    8  A    between atoms: C_10  and  O_11
REMARK    9  A    between atoms: C_10  and  C_13
REMARK   10  A    between atoms: C_13  and  O_14
REMARK   11  A    between atoms: C_16  and  N_18
REMARK   12  A    between atoms: C_19  and  C_21
REMARK   13  A    between atoms: C_21  and  C_22
REMARK   14  A    between atoms: C_22  and  C_23
REMARK   15  A    between atoms: C_23  and  C_24
REMARK   16  A    between atoms: C_24  and  C_25
REMARK   17  A    between atoms: C_25  and  C_26
REMARK   18  A    between atoms: C_26  and  C_27
REMARK   19  A    between atoms: C_27  and  C_28
REMARK                            x       y       z     vdW  Elec       q    Type
REMARK                         _______ _______ _______ _____ _____    ______ ____
ROOT
ATOM      1  C   UNL     1     -36.618  23.214   4.239  0.00  0.00    +0.159 C 
ENDROOT
BRANCH   1   2
ATOM      2  O   UNL     1     -36.027  22.845   5.483  0.00  0.00    -0.380 OA
ATOM      3  H   UNL     1     -36.341  23.442   6.180  0.00  0.00    +0.211 HD
ENDBRANCH   1   2
BRANCH   1   4
ATOM      4  C   UNL     1     -36.716  24.752   4.158  0.00  0.00    +0.168 C 
BRANCH   4   5
ATOM      5  O   UNL     1     -38.085  25.138   4.276  0.00  0.00    -0.379 OA
ATOM      6  H   UNL     1     -38.653  24.387   4.041  0.00  0.00    +0.211 HD
ENDBRANCH   4   5
BRANCH   4   7
ATOM      7  C   UNL     1     -35.893  25.484   5.244  0.00  0.00    +0.169 C 
BRANCH   7   8
ATOM      8  O   UNL     1     -36.619  26.608   5.737  0.00  0.00    -0.379 OA
ATOM      9  H   UNL     1     -37.331  26.830   5.117  0.00  0.00    +0.211 HD
ENDBRANCH   7   8
BRANCH   7  10
ATOM     10  C   UNL     1     -34.521  25.977   4.736  0.00  0.00    +0.169 C 
BRANCH  10  11
ATOM     11  O   UNL     1     -33.931  26.821   5.721  0.00  0.00    -0.379 OA
ATOM     12  H   UNL     1     -33.746  27.691   5.333  0.00  0.00    +0.211 HD
ENDBRANCH  10  11
BRANCH  10  13
ATOM     13  C   UNL     1     -34.601  26.749   3.419  0.00  0.00    +0.169 C 
BRANCH  13  14
ATOM     14  O   UNL     1     -35.172  28.029   3.636  0.00  0.00    -0.379 OA
ATOM     15  H   UNL     1     -35.193  28.520   2.799  0.00  0.00    +0.211 HD
ENDBRANCH  13  14
ENDBRANCH  10  13
ENDBRANCH   7  10
ENDBRANCH   4   7
ENDBRANCH   1   4
BRANCH   1  16
ATOM     16  C   UNL     1     -35.767  22.634   3.106  0.00  0.00    +0.125 C 
BRANCH  16  18
ATOM     17  O   UNL     1     -36.678  19.606   1.239  0.00  0.00    -0.275 OA
ATOM     18  N   UNL     1     -36.513  21.647   2.329  0.00  0.00    -0.275 N 
ATOM     19  C   UNL     1     -36.014  20.415   1.894  0.00  0.00    +0.226 C 
ATOM     20  C   UNL     1     -37.884  22.021   2.006  0.00  0.00    +0.115 C 
BRANCH  19  21
ATOM     21  C   UNL     1     -34.572  20.101   2.275  0.00  0.00    +0.085 C 
BRANCH  21  22
ATOM     22  C   UNL     1     -33.855  19.258   1.219  0.00  0.00    +0.010 C 
BRANCH  22  23
ATOM     23  C   UNL     1     -32.834  20.094   0.443  0.00  0.00    +0.001 C 
BRANCH  23  24
ATOM     24  C   UNL     1     -31.475  19.403   0.286  0.00  0.00    +0.000 C 
BRANCH  24  25
ATOM     25  C   UNL     1     -31.375  18.076   1.042  0.00  0.00    +0.000 C 
BRANCH  25  26
ATOM     26  C   UNL     1     -30.498  17.075   0.287  0.00  0.00    +0.000 C 
BRANCH  26  27
ATOM     27  C   UNL     1     -31.284  16.183  -0.679  0.00  0.00    +0.000 C 
BRANCH  27  28
ATOM     28  C   UNL     1     -32.665  15.735  -0.195  0.00  0.00    +0.000 C 
ATOM     29  C   UNL     1     -33.811  16.285  -1.030  0.00  0.00    +0.000 C 
ENDBRANCH  27  28
ENDBRANCH  26  27
ENDBRANCH  25  26
ENDBRANCH  24  25
ENDBRANCH  23  24
ENDBRANCH  22  23
ENDBRANCH  21  22
ENDBRANCH  19  21
ENDBRANCH  16  18
ENDBRANCH   1  16
TORSDOF 19
ENDMDL
MODEL 2
REMARK VINA RESULT:      -4.9      2.902      6.074
REMARK  Name = 5076631
REMARK  19 active torsions:
REMARK  status: ('A' for Active; 'I' for Inactive)
REMARK    1  A    between atoms: C_1  and  O_2
REMARK    2  A    between atoms: C_1  and  C_4
REMARK    3  A    between atoms: C_1  and  C_16
REMARK    4  A    between atoms: C_4  and  O_5
REMARK    5  A    between atoms: C_4  and  C_7
REMARK    6  A    between atoms: C_7  and  O_8
REMARK    7  A    between atoms: C_7  and  C_10
REMARK    8  A    between atoms: C_10  and  O_11
REMARK    9  A    between atoms: C_10  and  C_13
REMARK   10  A    between atoms: C_13  and  O_14
REMARK   11  A    between atoms: C_16  and  N_18
REMARK   12  A    between atoms: C_19  and  C_21
REMARK   13  A    between atoms: C_21  and  C_22
REMARK   14  A    between atoms: C_22  and  C_23
REMARK   15  A    between atoms: C_23  and  C_24
REMARK   16  A    between atoms: C_24  and  C_25
REMARK   17  A    between atoms: C_25  and  C_26
REMARK   18  A    between atoms: C_26  and  C_27
REMARK   19  A    between atoms: C_27  and  C_28
REMARK                            x       y       z     vdW  Elec       q    Type
REMARK                         _______ _______ _______ _____ _____    ______ ____
ROOT
ATOM      1  C   UNL     1     -35.400  26.091   1.244  0.00  0.00    +0.159 C 
ENDROOT
BRANCH   1   2
ATOM      2  O   UNL     1     -35.591  25.073   0.264  0.00  0.00    -0.380 OA
ATOM      3  H   UNL     1     -35.140  24.262   0.549  0.00  0.00    +0.211 HD
ENDBRANCH   1   2
BRANCH   1   4
ATOM      4  C   UNL     1     -36.612  26.110   2.200  0.00  0.00    +0.168 C 
BRANCH   4   5
ATOM      5  O   UNL     1     -37.201  27.409   2.179  0.00  0.00    -0.379 OA
ATOM      6  H   UNL     1     -36.758  27.953   1.509  0.00  0.00    +0.211 HD
ENDBRANCH   4   5
BRANCH   4   7
ATOM      7  C   UNL     1     -37.694  25.062   1.850  0.00  0.00    +0.169 C 
BRANCH   7   8
ATOM      8  O   UNL     1     -38.582  25.584   0.863  0.00  0.00    -0.379 OA
ATOM      9  H   UNL     1     -38.934  26.437   1.163  0.00  0.00    +0.211 HD
ENDBRANCH   7   8
BRANCH   7  10
ATOM     10  C   UNL     1     -38.531  24.622   3.071  0.00  0.00    +0.169 C 
BRANCH  10  11
ATOM     11  O   UNL     1     -38.668  23.203   3.060  0.00  0.00    -0.379 OA
ATOM     12  H   UNL     1     -39.075  22.911   3.890  0.00  0.00    +0.211 HD
ENDBRANCH  10  11
BRANCH  10  13
ATOM     13  C   UNL     1     -39.926  25.245   3.110  0.00  0.00    +0.169 C 
BRANCH  13  14
ATOM     14  O   UNL     1     -39.840  26.620   3.445  0.00  0.00    -0.379 OA
ATOM     15  H   UNL     1     -40.733  26.985   3.547  0.00  0.00    +0.211 HD
ENDBRANCH  13  14
ENDBRANCH  10  13
ENDBRANCH   7  10
ENDBRANCH   4   7
ENDBRANCH   1   4
BRANCH   1  16
ATOM     16  C   UNL     1     -34.090  25.812   1.985  0.00  0.00    +0.125 C 
BRANCH  16  18
ATOM     17  O   UNL     1     -33.249  27.842   4.927  0.00  0.00    -0.275 OA
ATOM     18  N   UNL     1     -33.714  26.932   2.845  0.00  0.00    -0.275 N 
ATOM     19  C   UNL     1     -33.570  26.871   4.235  0.00  0.00    +0.226 C 
ATOM     20  C   UNL     1     -33.479  28.193   2.153  0.00  0.00    +0.115 C 
BRANCH  19  21
ATOM     21  C   UNL     1     -33.833  25.516   4.880  0.00  0.00    +0.085 C 
BRANCH  21  22
ATOM     22  C   UNL     1     -35.186  25.457   5.592  0.00  0.00    +0.010 C 
BRANCH  22  23
ATOM     23  C   UNL     1     -35.867  24.103   5.374  0.00  0.00    +0.001 C 
BRANCH  23  24
ATOM     24  C   UNL     1     -35.066  22.922   5.930  0.00  0.00    +0.000 C 
BRANCH  24  25
ATOM     25  C   UNL     1     -35.288  21.618   5.159  0.00  0.00    +0.000 C 
BRANCH  25  26
ATOM     26  C   UNL     1     -35.514  21.889   3.670  0.00  0.00    +0.000 C 
BRANCH  26  27
ATOM     27  C   UNL     1     -35.516  20.619   2.813  0.00  0.00    +0.000 C 
BRANCH  27  28
ATOM     28  C   UNL     1     -34.564  20.625   1.614  0.00  0.00    +0.000 C 
ATOM     29  C   UNL     1     -33.838  19.305   1.409  0.00  0.00    +0.000 C 
ENDBRANCH  27  28
ENDBRANCH  26  27
ENDBRANCH  25  26
ENDBRANCH  24  25
ENDBRANCH  23  24
ENDBRANCH  22  23
ENDBRANCH  21  22
ENDBRANCH  19  21
ENDBRANCH  16  18
ENDBRANCH   1  16
TORSDOF 19
ENDMDL
MODEL 3
REMARK VINA RESULT:      -4.9      0.938      2.053
REMARK  Name = 5076631
REMARK  19 active torsions:
REMARK  status: ('A' for Active; 'I' for Inactive)
REMARK    1  A    between atoms: C_1  and  O_2
REMARK    2  A    between atoms: C_1  and  C_4
REMARK    3  A    between atoms: C_1  and  C_16
REMARK    4  A    between atoms: C_4  and  O_5
REMARK    5  A    between atoms: C_4  and  C_7
REMARK    6  A    between atoms: C_7  and  O_8
REMARK    7  A    between atoms: C_7  and  C_10
REMARK    8  A    between atoms: C_10  and  O_11
REMARK    9  A    between atoms: C_10  and  C_13
REMARK   10  A    between atoms: C_13  and  O_14
REMARK   11  A    between atoms: C_16  and  N_18
REMARK   12  A    between atoms: C_19  and  C_21
REMARK   13  A    between atoms: C_21  and  C_22
REMARK   14  A    between atoms: C_22  and  C_23
REMARK   15  A    between atoms: C_23  and  C_24
REMARK   16  A    between atoms: C_24  and  C_25
REMARK   17  A    between atoms: C_25  and  C_26
REMARK   18  A    between atoms: C_26  and  C_27
REMARK   19  A    between atoms: C_27  and  C_28
REMARK                            x       y       z     vdW  Elec       q    Type
REMARK                         _______ _______ _______ _____ _____    ______ ____
ROOT
ATOM      1  C   UNL     1     -36.609  23.140   4.236  0.00  0.00    +0.159 C 
ENDROOT
BRANCH   1   2
ATOM      2  O   UNL     1     -35.977  22.784   5.463  0.00  0.00    -0.380 OA
ATOM      3  H   UNL     1     -36.443  22.032   5.861  0.00  0.00    +0.211 HD
ENDBRANCH   1   2
BRANCH   1   4
ATOM      4  C   UNL     1     -36.700  24.678   4.137  0.00  0.00    +0.168 C 
BRANCH   4   5
ATOM      5  O   UNL     1     -38.069  25.070   4.222  0.00  0.00    -0.379 OA
ATOM      6  H   UNL     1     -38.636  24.295   4.080  0.00  0.00    +0.211 HD
ENDBRANCH   4   5
BRANCH   4   7
ATOM      7  C   UNL     1     -35.897  25.418   5.233  0.00  0.00    +0.169 C 
BRANCH   7   8
ATOM      8  O   UNL     1     -36.630  26.549   5.700  0.00  0.00    -0.379 OA
ATOM      9  H   UNL     1     -36.524  26.628   6.661  0.00  0.00    +0.211 HD
ENDBRANCH   7   8
BRANCH   7  10
ATOM     10  C   UNL     1     -34.513  25.902   4.748  0.00  0.00    +0.169 C 
BRANCH  10  11
ATOM     11  O   UNL     1     -33.910  26.695   5.768  0.00  0.00    -0.379 OA
ATOM     12  H   UNL     1     -34.588  27.238   6.199  0.00  0.00    +0.211 HD
ENDBRANCH  10  11
BRANCH  10  13
ATOM     13  C   UNL     1     -34.573  26.726   3.462  0.00  0.00    +0.169 C 
BRANCH  13  14
ATOM     14  O   UNL     1     -35.317  27.914   3.676  0.00  0.00    -0.379 OA
ATOM     15  H   UNL     1     -34.718  28.677   3.670  0.00  0.00    +0.211 HD
ENDBRANCH  13  14
ENDBRANCH  10  13
ENDBRANCH   7  10
ENDBRANCH   4   7
ENDBRANCH   1   4
BRANCH   1  16
ATOM     16  C   UNL     1     -35.803  22.538   3.082  0.00  0.00    +0.125 C 
BRANCH  16  18
ATOM     17  O   UNL     1     -36.859  19.676   1.038  0.00  0.00    -0.275 OA
ATOM     18  N   UNL     1     -36.611  21.613   2.292  0.00  0.00    -0.275 N 
ATOM     19  C   UNL     1     -36.143  20.435   1.700  0.00  0.00    +0.226 C 
ATOM     20  C   UNL     1     -38.010  21.989   2.136  0.00  0.00    +0.115 C 
BRANCH  19  21
ATOM     21  C   UNL     1     -34.669  20.114   1.911  0.00  0.00    +0.085 C 
BRANCH  21  22
ATOM     22  C   UNL     1     -34.166  19.015   0.973  0.00  0.00    +0.010 C 
BRANCH  22  23
ATOM     23  C   UNL     1     -32.842  18.427   1.470  0.00  0.00    +0.001 C 
BRANCH  23  24
ATOM     24  C   UNL     1     -32.225  17.413   0.502  0.00  0.00    +0.000 C 
BRANCH  24  25
ATOM     25  C   UNL     1     -31.186  18.025  -0.441  0.00  0.00    +0.000 C 
BRANCH  25  26
ATOM     26  C   UNL     1     -30.618  19.325   0.131  0.00  0.00    +0.000 C 
BRANCH  26  27
ATOM     27  C   UNL     1     -30.210  20.337  -0.944  0.00  0.00    +0.000 C 
BRANCH  27  28
ATOM     28  C   UNL     1     -31.347  21.173  -1.535  0.00  0.00    +0.000 C 
ATOM     29  C   UNL     1     -32.250  21.801  -0.485  0.00  0.00    +0.000 C 
ENDBRANCH  27  28
ENDBRANCH  26  27
ENDBRANCH  25  26
ENDBRANCH  24  25
ENDBRANCH  23  24
ENDBRANCH  22  23
ENDBRANCH  21  22
ENDBRANCH  19  21
ENDBRANCH  16  18
ENDBRANCH   1  16
TORSDOF 19
ENDMDL
MODEL 4
REMARK VINA RESULT:      -4.9      2.063      3.923
REMARK  Name = 5076631
REMARK  19 active torsions:
REMARK  status: ('A' for Active; 'I' for Inactive)
REMARK    1  A    between atoms: C_1  and  O_2
REMARK    2  A    between atoms: C_1  and  C_4
REMARK    3  A    between atoms: C_1  and  C_16
REMARK    4  A    between atoms: C_4  and  O_5
REMARK    5  A    between atoms: C_4  and  C_7
REMARK    6  A    between atoms: C_7  and  O_8
REMARK    7  A    between atoms: C_7  and  C_10
REMARK    8  A    between atoms: C_10  and  O_11
REMARK    9  A    between atoms: C_10  and  C_13
REMARK   10  A    between atoms: C_13  and  O_14
REMARK   11  A    between atoms: C_16  and  N_18
REMARK   12  A    between atoms: C_19  and  C_21
REMARK   13  A    between atoms: C_21  and  C_22
REMARK   14  A    between atoms: C_22  and  C_23
REMARK   15  A    between atoms: C_23  and  C_24
REMARK   16  A    between atoms: C_24  and  C_25
REMARK   17  A    between atoms: C_25  and  C_26
REMARK   18  A    between atoms: C_26  and  C_27
REMARK   19  A    between atoms: C_27  and  C_28
REMARK                            x       y       z     vdW  Elec       q    Type
REMARK                         _______ _______ _______ _____ _____    ______ ____
ROOT
ATOM      1  C   UNL     1     -37.537  25.693   2.579  0.00  0.00    +0.159 C 
ENDROOT
BRANCH   1   2
ATOM      2  O   UNL     1     -37.992  27.012   2.288  0.00  0.00    -0.380 OA
ATOM      3  H   UNL     1     -37.449  27.393   1.580  0.00  0.00    +0.211 HD
ENDBRANCH   1   2
BRANCH   1   4
ATOM      4  C   UNL     1     -36.199  25.774   3.345  0.00  0.00    +0.168 C 
BRANCH   4   5
ATOM      5  O   UNL     1     -35.706  27.111   3.280  0.00  0.00    -0.379 OA
ATOM      6  H   UNL     1     -34.738  27.101   3.337  0.00  0.00    +0.211 HD
ENDBRANCH   4   5
BRANCH   4   7
ATOM      7  C   UNL     1     -36.308  25.348   4.828  0.00  0.00    +0.169 C 
BRANCH   7   8
ATOM      8  O   UNL     1     -36.405  26.501   5.663  0.00  0.00    -0.379 OA
ATOM      9  H   UNL     1     -35.637  26.539   6.253  0.00  0.00    +0.211 HD
ENDBRANCH   7   8
BRANCH   7  10
ATOM     10  C   UNL     1     -35.107  24.503   5.306  0.00  0.00    +0.169 C 
BRANCH  10  11
ATOM     11  O   UNL     1     -33.896  25.133   4.896  0.00  0.00    -0.379 OA
ATOM     12  H   UNL     1     -33.457  25.523   5.668  0.00  0.00    +0.211 HD
ENDBRANCH  10  11
BRANCH  10  13
ATOM     13  C   UNL     1     -35.117  23.072   4.767  0.00  0.00    +0.169 C 
BRANCH  13  14
ATOM     14  O   UNL     1     -36.355  22.446   5.062  0.00  0.00    -0.379 OA
ATOM     15  H   UNL     1     -36.663  22.734   5.936  0.00  0.00    +0.211 HD
ENDBRANCH  13  14
ENDBRANCH  10  13
ENDBRANCH   7  10
ENDBRANCH   4   7
ENDBRANCH   1   4
BRANCH   1  16
ATOM     16  C   UNL     1     -38.618  24.973   3.389  0.00  0.00    +0.125 C 
BRANCH  16  18
ATOM     17  O   UNL     1     -40.677  22.843   1.219  0.00  0.00    -0.275 OA
ATOM     18  N   UNL     1     -39.694  24.486   2.529  0.00  0.00    -0.275 N 
ATOM     19  C   UNL     1     -39.747  23.218   1.940  0.00  0.00    +0.226 C 
ATOM     20  C   UNL     1     -40.778  25.432   2.296  0.00  0.00    +0.115 C 
BRANCH  19  21
ATOM     21  C   UNL     1     -38.576  22.290   2.235  0.00  0.00    +0.085 C 
BRANCH  21  22
ATOM     22  C   UNL     1     -38.323  21.287   1.108  0.00  0.00    +0.010 C 
BRANCH  22  23
ATOM     23  C   UNL     1     -36.831  20.966   0.976  0.00  0.00    +0.001 C 
BRANCH  23  24
ATOM     24  C   UNL     1     -36.252  20.249   2.199  0.00  0.00    +0.000 C 
BRANCH  24  25
ATOM     25  C   UNL     1     -34.722  20.261   2.245  0.00  0.00    +0.000 C 
BRANCH  25  26
ATOM     26  C   UNL     1     -34.128  20.277   0.835  0.00  0.00    +0.000 C 
BRANCH  26  27
ATOM     27  C   UNL     1     -32.737  19.641   0.752  0.00  0.00    +0.000 C 
BRANCH  27  28
ATOM     28  C   UNL     1     -32.612  18.236   1.347  0.00  0.00    +0.000 C 
ATOM     29  C   UNL     1     -33.152  17.141   0.440  0.00  0.00    +0.000 C 
ENDBRANCH  27  28
ENDBRANCH  26  27
ENDBRANCH  25  26
ENDBRANCH  24  25
ENDBRANCH  23  24
ENDBRANCH  22  23
ENDBRANCH  21  22
ENDBRANCH  19  21
ENDBRANCH  16  18
ENDBRANCH   1  16
TORSDOF 19
ENDMDL
MODEL 5
REMARK VINA RESULT:      -4.9      1.268      2.232
REMARK  Name = 5076631
REMARK  19 active torsions:
REMARK  status: ('A' for Active; 'I' for Inactive)
REMARK    1  A    between atoms: C_1  and  O_2
REMARK    2  A    between atoms: C_1  and  C_4
REMARK    3  A    between atoms: C_1  and  C_16
REMARK    4  A    between atoms: C_4  and  O_5
REMARK    5  A    between atoms: C_4  and  C_7
REMARK    6  A    between atoms: C_7  and  O_8
REMARK    7  A    between atoms: C_7  and  C_10
REMARK    8  A    between atoms: C_10  and  O_11
REMARK    9  A    between atoms: C_10  and  C_13
REMARK   10  A    between atoms: C_13  and  O_14
REMARK   11  A    between atoms: C_16  and  N_18
REMARK   12  A    between atoms: C_19  and  C_21
REMARK   13  A    between atoms: C_21  and  C_22
REMARK   14  A    between atoms: C_22  and  C_23
REMARK   15  A    between atoms: C_23  and  C_24
REMARK   16  A    between atoms: C_24  and  C_25
REMARK   17  A    between atoms: C_25  and  C_26
REMARK   18  A    between atoms: C_26  and  C_27
REMARK   19  A    between atoms: C_27  and  C_28
REMARK                            x       y       z     vdW  Elec       q    Type
REMARK                         _______ _______ _______ _____ _____    ______ ____
ROOT
ATOM      1  C   UNL     1     -36.890  23.142   3.770  0.00  0.00    +0.159 C 
ENDROOT
BRANCH   1   2
ATOM      2  O   UNL     1     -36.305  22.618   4.960  0.00  0.00    -0.380 OA
ATOM      3  H   UNL     1     -35.747  21.856   4.737  0.00  0.00    +0.211 HD
ENDBRANCH   1   2
BRANCH   1   4
ATOM      4  C   UNL     1     -36.938  24.682   3.862  0.00  0.00    +0.168 C 
BRANCH   4   5
ATOM      5  O   UNL     1     -38.266  25.087   4.189  0.00  0.00    -0.379 OA
ATOM      6  H   UNL     1     -38.800  25.126   3.379  0.00  0.00    +0.211 HD
ENDBRANCH   4   5
BRANCH   4   7
ATOM      7  C   UNL     1     -35.961  25.271   4.906  0.00  0.00    +0.169 C 
BRANCH   7   8
ATOM      8  O   UNL     1     -36.453  26.520   5.388  0.00  0.00    -0.379 OA
ATOM      9  H   UNL     1     -35.716  27.044   5.738  0.00  0.00    +0.211 HD
ENDBRANCH   7   8
BRANCH   7  10
ATOM     10  C   UNL     1     -34.538  25.491   4.349  0.00  0.00    +0.169 C 
BRANCH  10  11
ATOM     11  O   UNL     1     -33.720  24.377   4.699  0.00  0.00    -0.379 OA
ATOM     12  H   UNL     1     -33.999  24.028   5.560  0.00  0.00    +0.211 HD
ENDBRANCH  10  11
BRANCH  10  13
ATOM     13  C   UNL     1     -33.872  26.766   4.868  0.00  0.00    +0.169 C 
BRANCH  13  14
ATOM     14  O   UNL     1     -33.688  26.686   6.272  0.00  0.00    -0.379 OA
ATOM     15  H   UNL     1     -33.508  27.572   6.625  0.00  0.00    +0.211 HD
ENDBRANCH  13  14
ENDBRANCH  10  13
ENDBRANCH   7  10
ENDBRANCH   4   7
ENDBRANCH   1   4
BRANCH   1  16
ATOM     16  C   UNL     1     -36.065  22.664   2.572  0.00  0.00    +0.125 C 
BRANCH  16  18
ATOM     17  O   UNL     1     -36.731  19.410   1.007  0.00  0.00    -0.275 OA
ATOM     18  N   UNL     1     -36.723  21.560   1.876  0.00  0.00    -0.275 N 
ATOM     19  C   UNL     1     -36.141  20.320   1.597  0.00  0.00    +0.226 C 
ATOM     20  C   UNL     1     -38.095  21.819   1.461  0.00  0.00    +0.115 C 
BRANCH  19  21
ATOM     21  C   UNL     1     -34.704  20.130   2.066  0.00  0.00    +0.085 C 
BRANCH  21  22
ATOM     22  C   UNL     1     -33.791  19.592   0.961  0.00  0.00    +0.010 C 
BRANCH  22  23
ATOM     23  C   UNL     1     -32.956  18.410   1.460  0.00  0.00    +0.001 C 
BRANCH  23  24
ATOM     24  C   UNL     1     -32.777  17.306   0.413  0.00  0.00    +0.000 C 
BRANCH  24  25
ATOM     25  C   UNL     1     -31.312  16.947   0.151  0.00  0.00    +0.000 C 
BRANCH  25  26
ATOM     26  C   UNL     1     -30.545  18.141  -0.423  0.00  0.00    +0.000 C 
BRANCH  26  27
ATOM     27  C   UNL     1     -29.273  18.481   0.360  0.00  0.00    +0.000 C 
BRANCH  27  28
ATOM     28  C   UNL     1     -28.725  17.368   1.256  0.00  0.00    +0.000 C 
ATOM     29  C   UNL     1     -27.537  17.797   2.102  0.00  0.00    +0.000 C 
ENDBRANCH  27  28
ENDBRANCH  26  27
ENDBRANCH  25  26
ENDBRANCH  24  25
ENDBRANCH  23  24
ENDBRANCH  22  23
ENDBRANCH  21  22
ENDBRANCH  19  21
ENDBRANCH  16  18
ENDBRANCH   1  16
TORSDOF 19
ENDMDL
MODEL 6
REMARK VINA RESULT:      -4.8      3.481      5.017
REMARK  Name = 5076631
REMARK  19 active torsions:
REMARK  status: ('A' for Active; 'I' for Inactive)
REMARK    1  A    between atoms: C_1  and  O_2
REMARK    2  A    between atoms: C_1  and  C_4
REMARK    3  A    between atoms: C_1  and  C_16
REMARK    4  A    between atoms: C_4  and  O_5
REMARK    5  A    between atoms: C_4  and  C_7
REMARK    6  A    between atoms: C_7  and  O_8
REMARK    7  A    between atoms: C_7  and  C_10
REMARK    8  A    between atoms: C_10  and  O_11
REMARK    9  A    between atoms: C_10  and  C_13
REMARK   10  A    between atoms: C_13  and  O_14
REMARK   11  A    between atoms: C_16  and  N_18
REMARK   12  A    between atoms: C_19  and  C_21
REMARK   13  A    between atoms: C_21  and  C_22
REMARK   14  A    between atoms: C_22  and  C_23
REMARK   15  A    between atoms: C_23  and  C_24
REMARK   16  A    between atoms: C_24  and  C_25
REMARK   17  A    between atoms: C_25  and  C_26
REMARK   18  A    between atoms: C_26  and  C_27
REMARK   19  A    between atoms: C_27  and  C_28
REMARK                            x       y       z     vdW  Elec       q    Type
REMARK                         _______ _______ _______ _____ _____    ______ ____
ROOT
ATOM      1  C   UNL     1     -38.825  25.857   2.328  0.00  0.00    +0.159 C 
ENDROOT
BRANCH   1   2
ATOM      2  O   UNL     1     -39.393  26.554   3.435  0.00  0.00    -0.380 OA
ATOM      3  H   UNL     1     -39.077  26.158   4.262  0.00  0.00    +0.211 HD
ENDBRANCH   1   2
BRANCH   1   4
ATOM      4  C   UNL     1     -37.375  26.341   2.112  0.00  0.00    +0.168 C 
BRANCH   4   5
ATOM      5  O   UNL     1     -37.382  27.751   1.898  0.00  0.00    -0.379 OA
ATOM      6  H   UNL     1     -38.245  28.112   2.157  0.00  0.00    +0.211 HD
ENDBRANCH   4   5
BRANCH   4   7
ATOM      7  C   UNL     1     -36.432  26.016   3.294  0.00  0.00    +0.169 C 
BRANCH   7   8
ATOM      8  O   UNL     1     -37.052  26.370   4.529  0.00  0.00    -0.379 OA
ATOM      9  H   UNL     1     -36.372  26.483   5.211  0.00  0.00    +0.211 HD
ENDBRANCH   7   8
BRANCH   7  10
ATOM     10  C   UNL     1     -35.075  26.747   3.205  0.00  0.00    +0.169 C 
BRANCH  10  11
ATOM     11  O   UNL     1     -34.549  26.603   1.888  0.00  0.00    -0.379 OA
ATOM     12  H   UNL     1     -34.458  25.660   1.677  0.00  0.00    +0.211 HD
ENDBRANCH  10  11
BRANCH  10  13
ATOM     13  C   UNL     1     -34.037  26.229   4.202  0.00  0.00    +0.169 C 
BRANCH  13  14
ATOM     14  O   UNL     1     -34.389  26.615   5.520  0.00  0.00    -0.379 OA
ATOM     15  H   UNL     1     -33.828  26.144   6.156  0.00  0.00    +0.211 HD
ENDBRANCH  13  14
ENDBRANCH  10  13
ENDBRANCH   7  10
ENDBRANCH   4   7
ENDBRANCH   1   4
BRANCH   1  16
ATOM     16  C   UNL     1     -38.892  24.355   2.615  0.00  0.00    +0.125 C 
BRANCH  16  18
ATOM     17  O   UNL     1     -40.667  21.801   0.662  0.00  0.00    -0.275 OA
ATOM     18  N   UNL     1     -39.855  23.687   1.742  0.00  0.00    -0.275 N 
ATOM     19  C   UNL     1     -39.833  22.330   1.403  0.00  0.00    +0.226 C 
ATOM     20  C   UNL     1     -40.905  24.544   1.208  0.00  0.00    +0.115 C 
BRANCH  19  21
ATOM     21  C   UNL     1     -38.703  21.504   2.005  0.00  0.00    +0.085 C 
BRANCH  21  22
ATOM     22  C   UNL     1     -37.768  20.924   0.942  0.00  0.00    +0.010 C 
BRANCH  22  23
ATOM     23  C   UNL     1     -36.771  21.976   0.449  0.00  0.00    +0.001 C 
BRANCH  23  24
ATOM     24  C   UNL     1     -35.555  22.140   1.366  0.00  0.00    +0.000 C 
BRANCH  24  25
ATOM     25  C   UNL     1     -35.228  20.882   2.175  0.00  0.00    +0.000 C 
BRANCH  25  26
ATOM     26  C   UNL     1     -35.322  21.153   3.678  0.00  0.00    +0.000 C 
BRANCH  26  27
ATOM     27  C   UNL     1     -35.732  22.590   4.015  0.00  0.00    +0.000 C 
BRANCH  27  28
ATOM     28  C   UNL     1     -35.394  23.064   5.430  0.00  0.00    +0.000 C 
ATOM     29  C   UNL     1     -35.335  21.937   6.451  0.00  0.00    +0.000 C 
ENDBRANCH  27  28
ENDBRANCH  26  27
ENDBRANCH  25  26
ENDBRANCH  24  25
ENDBRANCH  23  24
ENDBRANCH  22  23
ENDBRANCH  21  22
ENDBRANCH  19  21
ENDBRANCH  16  18
ENDBRANCH   1  16
TORSDOF 19
ENDMDL
MODEL 7
REMARK VINA RESULT:      -4.8      1.846      2.513
REMARK  Name = 5076631
REMARK  19 active torsions:
REMARK  status: ('A' for Active; 'I' for Inactive)
REMARK    1  A    between atoms: C_1  and  O_2
REMARK    2  A    between atoms: C_1  and  C_4
REMARK    3  A    between atoms: C_1  and  C_16
REMARK    4  A    between atoms: C_4  and  O_5
REMARK    5  A    between atoms: C_4  and  C_7
REMARK    6  A    between atoms: C_7  and  O_8
REMARK    7  A    between atoms: C_7  and  C_10
REMARK    8  A    between atoms: C_10  and  O_11
REMARK    9  A    between atoms: C_10  and  C_13
REMARK   10  A    between atoms: C_13  and  O_14
REMARK   11  A    between atoms: C_16  and  N_18
REMARK   12  A    between atoms: C_19  and  C_21
REMARK   13  A    between atoms: C_21  and  C_22
REMARK   14  A    between atoms: C_22  and  C_23
REMARK   15  A    between atoms: C_23  and  C_24
REMARK   16  A    between atoms: C_24  and  C_25
REMARK   17  A    between atoms: C_25  and  C_26
REMARK   18  A    between atoms: C_26  and  C_27
REMARK   19  A    between atoms: C_27  and  C_28
REMARK                            x       y       z     vdW  Elec       q    Type
REMARK                         _______ _______ _______ _____ _____    ______ ____
ROOT
ATOM      1  C   UNL     1     -37.471  22.866   3.001  0.00  0.00    +0.159 C 
ENDROOT
BRANCH   1   2
ATOM      2  O   UNL     1     -36.489  22.001   3.566  0.00  0.00    -0.380 OA
ATOM      3  H   UNL     1     -36.683  21.084   3.315  0.00  0.00    +0.211 HD
ENDBRANCH   1   2
BRANCH   1   4
ATOM      4  C   UNL     1     -37.185  24.318   3.442  0.00  0.00    +0.168 C 
BRANCH   4   5
ATOM      5  O   UNL     1     -38.322  24.826   4.136  0.00  0.00    -0.379 OA
ATOM      6  H   UNL     1     -38.110  24.919   5.078  0.00  0.00    +0.211 HD
ENDBRANCH   4   5
BRANCH   4   7
ATOM      7  C   UNL     1     -35.939  24.455   4.349  0.00  0.00    +0.169 C 
BRANCH   7   8
ATOM      8  O   UNL     1     -36.185  23.847   5.616  0.00  0.00    -0.379 OA
ATOM      9  H   UNL     1     -35.357  23.488   5.968  0.00  0.00    +0.211 HD
ENDBRANCH   7   8
BRANCH   7  10
ATOM     10  C   UNL     1     -35.521  25.922   4.587  0.00  0.00    +0.169 C 
BRANCH  10  11
ATOM     11  O   UNL     1     -36.510  26.568   5.385  0.00  0.00    -0.379 OA
ATOM     12  H   UNL     1     -36.501  26.192   6.279  0.00  0.00    +0.211 HD
ENDBRANCH  10  11
BRANCH  10  13
ATOM     13  C   UNL     1     -35.341  26.721   3.296  0.00  0.00    +0.169 C 
BRANCH  13  14
ATOM     14  O   UNL     1     -35.295  28.110   3.582  0.00  0.00    -0.379 OA
ATOM     15  H   UNL     1     -35.854  28.589   2.950  0.00  0.00    +0.211 HD
ENDBRANCH  13  14
ENDBRANCH  10  13
ENDBRANCH   7  10
ENDBRANCH   4   7
ENDBRANCH   1   4
BRANCH   1  16
ATOM     16  C   UNL     1     -37.434  22.712   1.478  0.00  0.00    +0.125 C 
BRANCH  16  18
ATOM     17  O   UNL     1     -38.747  19.657  -0.080  0.00  0.00    -0.275 OA
ATOM     18  N   UNL     1     -38.334  21.654   1.026  0.00  0.00    -0.275 N 
ATOM     19  C   UNL     1     -37.955  20.532   0.282  0.00  0.00    +0.226 C 
ATOM     20  C   UNL     1     -39.731  21.825   1.406  0.00  0.00    +0.115 C 
BRANCH  19  21
ATOM     21  C   UNL     1     -36.476  20.429  -0.073  0.00  0.00    +0.085 C 
BRANCH  21  22
ATOM     22  C   UNL     1     -35.761  19.320   0.701  0.00  0.00    +0.010 C 
BRANCH  22  23
ATOM     23  C   UNL     1     -34.554  19.869   1.466  0.00  0.00    +0.001 C 
BRANCH  23  24
ATOM     24  C   UNL     1     -33.362  18.908   1.494  0.00  0.00    +0.000 C 
BRANCH  24  25
ATOM     25  C   UNL     1     -32.218  19.328   0.568  0.00  0.00    +0.000 C 
BRANCH  25  26
ATOM     26  C   UNL     1     -32.430  20.748   0.038  0.00  0.00    +0.000 C 
BRANCH  26  27
ATOM     27  C   UNL     1     -32.680  20.804  -1.473  0.00  0.00    +0.000 C 
BRANCH  27  28
ATOM     28  C   UNL     1     -33.021  19.469  -2.140  0.00  0.00    +0.000 C 
ATOM     29  C   UNL     1     -34.272  19.523  -3.004  0.00  0.00    +0.000 C 
ENDBRANCH  27  28
ENDBRANCH  26  27
ENDBRANCH  25  26
ENDBRANCH  24  25
ENDBRANCH  23  24
ENDBRANCH  22  23
ENDBRANCH  21  22
ENDBRANCH  19  21
ENDBRANCH  16  18
ENDBRANCH   1  16
TORSDOF 19
ENDMDL
MODEL 8
REMARK VINA RESULT:      -4.8      3.921      9.145
REMARK  Name = 5076631
REMARK  19 active torsions:
REMARK  status: ('A' for Active; 'I' for Inactive)
REMARK    1  A    between atoms: C_1  and  O_2
REMARK    2  A    between atoms: C_1  and  C_4
REMARK    3  A    between atoms: C_1  and  C_16
REMARK    4  A    between atoms: C_4  and  O_5
REMARK    5  A    between atoms: C_4  and  C_7
REMARK    6  A    between atoms: C_7  and  O_8
REMARK    7  A    between atoms: C_7  and  C_10
REMARK    8  A    between atoms: C_10  and  O_11
REMARK    9  A    between atoms: C_10  and  C_13
REMARK   10  A    between atoms: C_13  and  O_14
REMARK   11  A    between atoms: C_16  and  N_18
REMARK   12  A    between atoms: C_19  and  C_21
REMARK   13  A    between atoms: C_21  and  C_22
REMARK   14  A    between atoms: C_22  and  C_23
REMARK   15  A    between atoms: C_23  and  C_24
REMARK   16  A    between atoms: C_24  and  C_25
REMARK   17  A    between atoms: C_25  and  C_26
REMARK   18  A    between atoms: C_26  and  C_27
REMARK   19  A    between atoms: C_27  and  C_28
REMARK                            x       y       z     vdW  Elec       q    Type
REMARK                         _______ _______ _______ _____ _____    ______ ____
ROOT
ATOM      1  C   UNL     1     -37.225  25.614   3.201  0.00  0.00    +0.159 C 
ENDROOT
BRANCH   1   2
ATOM      2  O   UNL     1     -38.249  26.537   2.838  0.00  0.00    -0.380 OA
ATOM      3  H   UNL     1     -39.031  26.050   2.532  0.00  0.00    +0.211 HD
ENDBRANCH   1   2
BRANCH   1   4
ATOM      4  C   UNL     1     -37.294  24.385   2.269  0.00  0.00    +0.168 C 
BRANCH   4   5
ATOM      5  O   UNL     1     -36.022  24.196   1.654  0.00  0.00    -0.379 OA
ATOM      6  H   UNL     1     -36.084  23.487   0.994  0.00  0.00    +0.211 HD
ENDBRANCH   4   5
BRANCH   4   7
ATOM      7  C   UNL     1     -37.702  23.080   2.993  0.00  0.00    +0.169 C 
BRANCH   7   8
ATOM      8  O   UNL     1     -36.848  22.854   4.114  0.00  0.00    -0.379 OA
ATOM      9  H   UNL     1     -37.296  23.142   4.924  0.00  0.00    +0.211 HD
ENDBRANCH   7   8
BRANCH   7  10
ATOM     10  C   UNL     1     -37.644  21.836   2.080  0.00  0.00    +0.169 C 
BRANCH  10  11
ATOM     11  O   UNL     1     -38.822  21.057   2.274  0.00  0.00    -0.379 OA
ATOM     12  H   UNL     1     -38.807  20.293   1.676  0.00  0.00    +0.211 HD
ENDBRANCH  10  11
BRANCH  10  13
ATOM     13  C   UNL     1     -36.426  20.949   2.337  0.00  0.00    +0.169 C 
BRANCH  13  14
ATOM     14  O   UNL     1     -36.827  19.596   2.482  0.00  0.00    -0.379 OA
ATOM     15  H   UNL     1     -37.316  19.317   1.691  0.00  0.00    +0.211 HD
ENDBRANCH  13  14
ENDBRANCH  10  13
ENDBRANCH   7  10
ENDBRANCH   4   7
ENDBRANCH   1   4
BRANCH   1  16
ATOM     16  C   UNL     1     -35.874  26.327   3.109  0.00  0.00    +0.125 C 
BRANCH  16  18
ATOM     17  O   UNL     1     -33.212  26.441   5.636  0.00  0.00    -0.275 OA
ATOM     18  N   UNL     1     -35.155  26.274   4.380  0.00  0.00    -0.275 N 
ATOM     19  C   UNL     1     -33.783  26.493   4.543  0.00  0.00    +0.226 C 
ATOM     20  C   UNL     1     -35.976  25.968   5.544  0.00  0.00    +0.115 C 
BRANCH  19  21
ATOM     21  C   UNL     1     -32.997  26.809   3.276  0.00  0.00    +0.085 C 
BRANCH  21  22
ATOM     22  C   UNL     1     -32.324  28.182   3.329  0.00  0.00    +0.010 C 
BRANCH  22  23
ATOM     23  C   UNL     1     -33.266  29.280   2.831  0.00  0.00    +0.001 C 
BRANCH  23  24
ATOM     24  C   UNL     1     -33.293  30.516   3.736  0.00  0.00    +0.000 C 
BRANCH  24  25
ATOM     25  C   UNL     1     -32.014  31.354   3.660  0.00  0.00    +0.000 C 
BRANCH  25  26
ATOM     26  C   UNL     1     -31.217  31.265   4.963  0.00  0.00    +0.000 C 
BRANCH  26  27
ATOM     27  C   UNL     1     -32.022  30.689   6.132  0.00  0.00    +0.000 C 
BRANCH  27  28
ATOM     28  C   UNL     1     -31.471  29.403   6.750  0.00  0.00    +0.000 C 
ATOM     29  C   UNL     1     -29.951  29.341   6.772  0.00  0.00    +0.000 C 
ENDBRANCH  27  28
ENDBRANCH  26  27
ENDBRANCH  25  26
ENDBRANCH  24  25
ENDBRANCH  23  24
ENDBRANCH  22  23
ENDBRANCH  21  22
ENDBRANCH  19  21
ENDBRANCH  16  18
ENDBRANCH   1  16
TORSDOF 19
ENDMDL
MODEL 9
REMARK VINA RESULT:      -4.8      1.459      2.265
REMARK  Name = 5076631
REMARK  19 active torsions:
REMARK  status: ('A' for Active; 'I' for Inactive)
REMARK    1  A    between atoms: C_1  and  O_2
REMARK    2  A    between atoms: C_1  and  C_4
REMARK    3  A    between atoms: C_1  and  C_16
REMARK    4  A    between atoms: C_4  and  O_5
REMARK    5  A    between atoms: C_4  and  C_7
REMARK    6  A    between atoms: C_7  and  O_8
REMARK    7  A    between atoms: C_7  and  C_10
REMARK    8  A    between atoms: C_10  and  O_11
REMARK    9  A    between atoms: C_10  and  C_13
REMARK   10  A    between atoms: C_13  and  O_14
REMARK   11  A    between atoms: C_16  and  N_18
REMARK   12  A    between atoms: C_19  and  C_21
REMARK   13  A    between atoms: C_21  and  C_22
REMARK   14  A    between atoms: C_22  and  C_23
REMARK   15  A    between atoms: C_23  and  C_24
REMARK   16  A    between atoms: C_24  and  C_25
REMARK   17  A    between atoms: C_25  and  C_26
REMARK   18  A    between atoms: C_26  and  C_27
REMARK   19  A    between atoms: C_27  and  C_28
REMARK                            x       y       z     vdW  Elec       q    Type
REMARK                         _______ _______ _______ _____ _____    ______ ____
ROOT
ATOM      1  C   UNL     1     -35.974  24.294   4.745  0.00  0.00    +0.159 C 
ENDROOT
BRANCH   1   2
ATOM      2  O   UNL     1     -35.357  23.779   5.922  0.00  0.00    -0.380 OA
ATOM      3  H   UNL     1     -34.585  23.245   5.675  0.00  0.00    +0.211 HD
ENDBRANCH   1   2
BRANCH   1   4
ATOM      4  C   UNL     1     -35.592  25.781   4.580  0.00  0.00    +0.168 C 
BRANCH   4   5
ATOM      5  O   UNL     1     -36.426  26.572   5.425  0.00  0.00    -0.379 OA
ATOM      6  H   UNL     1     -36.318  26.284   6.346  0.00  0.00    +0.211 HD
ENDBRANCH   4   5
BRANCH   4   7
ATOM      7  C   UNL     1     -34.111  26.081   4.911  0.00  0.00    +0.169 C 
BRANCH   7   8
ATOM      8  O   UNL     1     -33.983  26.471   6.278  0.00  0.00    -0.379 OA
ATOM      9  H   UNL     1     -34.722  27.052   6.518  0.00  0.00    +0.211 HD
ENDBRANCH   7   8
BRANCH   7  10
ATOM     10  C   UNL     1     -33.506  27.195   4.030  0.00  0.00    +0.169 C 
BRANCH  10  11
ATOM     11  O   UNL     1     -33.103  28.283   4.858  0.00  0.00    -0.379 OA
ATOM     12  H   UNL     1     -32.266  28.646   4.530  0.00  0.00    +0.211 HD
ENDBRANCH  10  11
BRANCH  10  13
ATOM     13  C   UNL     1     -34.471  27.723   2.968  0.00  0.00    +0.169 C 
BRANCH  13  14
ATOM     14  O   UNL     1     -35.210  28.819   3.480  0.00  0.00    -0.379 OA
ATOM     15  H   UNL     1     -34.598  29.504   3.794  0.00  0.00    +0.211 HD
ENDBRANCH  13  14
ENDBRANCH  10  13
ENDBRANCH   7  10
ENDBRANCH   4   7
ENDBRANCH   1   4
BRANCH   1  16
ATOM     16  C   UNL     1     -35.521  23.451   3.550  0.00  0.00    +0.125 C 
BRANCH  16  18
ATOM     17  O   UNL     1     -37.639  20.973   1.859  0.00  0.00    -0.275 OA
ATOM     18  N   UNL     1     -36.654  22.799   2.897  0.00  0.00    -0.275 N 
ATOM     19  C   UNL     1     -36.660  21.489   2.405  0.00  0.00    +0.226 C 
ATOM     20  C   UNL     1     -37.852  23.619   2.771  0.00  0.00    +0.115 C 
BRANCH  19  21
ATOM     21  C   UNL     1     -35.367  20.701   2.577  0.00  0.00    +0.085 C 
BRANCH  21  22
ATOM     22  C   UNL     1     -35.077  19.782   1.388  0.00  0.00    +0.010 C 
BRANCH  22  23
ATOM     23  C   UNL     1     -33.618  19.318   1.392  0.00  0.00    +0.001 C 
BRANCH  23  24
ATOM     24  C   UNL     1     -32.746  20.041   0.361  0.00  0.00    +0.000 C 
BRANCH  24  25
ATOM     25  C   UNL     1     -31.338  19.454   0.236  0.00  0.00    +0.000 C 
BRANCH  25  26
ATOM     26  C   UNL     1     -31.234  18.108   0.955  0.00  0.00    +0.000 C 
BRANCH  26  27
ATOM     27  C   UNL     1     -30.018  17.280   0.526  0.00  0.00    +0.000 C 
BRANCH  27  28
ATOM     28  C   UNL     1     -28.750  17.480   1.358  0.00  0.00    +0.000 C 
ATOM     29  C   UNL     1     -27.763  18.456   0.737  0.00  0.00    +0.000 C 
ENDBRANCH  27  28
ENDBRANCH  26  27
ENDBRANCH  25  26
ENDBRANCH  24  25
ENDBRANCH  23  24
ENDBRANCH  22  23
ENDBRANCH  21  22
ENDBRANCH  19  21
ENDBRANCH  16  18
ENDBRANCH   1  16
TORSDOF 19
ENDMDL
