MODEL 1
REMARK VINA RESULT:      -7.3      0.000      0.000
REMARK  Name = 5312112
REMARK  8 active torsions:
REMARK  status: ('A' for Active; 'I' for Inactive)
REMARK    1  A    between atoms: N_1  and  C1*_12
REMARK    2  A    between atoms: C2*_11  and  O2*_15
REMARK    3  A    between atoms: C3*_13  and  O3*_17
REMARK    4  A    between atoms: C4*_14  and  C5*_19
REMARK    5  A    between atoms: C5*_19  and  O5*_20
REMARK    6  A    between atoms: N_22  and  C_24
REMARK    7  A    between atoms: C_24  and  C_26
REMARK    8  A    between atoms: C_26  and  C_27
REMARK                            x       y       z     vdW  Elec       q    Type
REMARK                         _______ _______ _______ _____ _____    ______ ____
ROOT
ATOM      1  N   UNL     1     -34.887  26.242   4.263  0.00  0.00    -0.247 N 
ATOM      2  N   UNL     1     -33.706  27.336   2.720  0.00  0.00    -0.242 NA
ATOM      3  N   UNL     1     -33.495  26.643   6.213  0.00  0.00    -0.228 NA
ATOM      4  N   UNL     1     -31.538  27.987   5.644  0.00  0.00    -0.228 NA
ATOM      5  C   UNL     1     -33.802  26.760   4.913  0.00  0.00    +0.152 C 
ATOM      6  C   UNL     1     -34.784  26.615   2.948  0.00  0.00    +0.223 C 
ATOM      7  C   UNL     1     -33.083  27.434   3.938  0.00  0.00    +0.140 C 
ATOM      8  C   UNL     1     -31.911  28.064   4.344  0.00  0.00    +0.146 C 
ATOM      9  C   UNL     1     -32.341  27.291   6.486  0.00  0.00    +0.253 C 
ATOM     10  N   UNL     1     -31.121  28.773   3.424  0.00  0.00    -0.318 N 
ATOM     11  H   UNL     1     -31.415  28.812   2.485  0.00  0.00    +0.148 HD
ENDROOT
BRANCH   1  14
ATOM     12  O4* UNL     1     -35.401  24.484   5.774  0.00  0.00    -0.333 OA
ATOM     13  C2* UNL     1     -36.779  24.660   3.817  0.00  0.00    +0.187 C 
ATOM     14  C1* UNL     1     -35.963  25.439   4.850  0.00  0.00    +0.225 C 
ATOM     15  C3* UNL     1     -36.249  23.246   3.966  0.00  0.00    +0.171 C 
ATOM     16  C4* UNL     1     -35.914  23.182   5.447  0.00  0.00    +0.175 C 
BRANCH  13  17
ATOM     17  O2* UNL     1     -38.161  24.732   4.160  0.00  0.00    -0.378 OA
ATOM     18  H2* UNL     1     -38.255  25.111   5.048  0.00  0.00    +0.211 HD
ENDBRANCH  13  17
BRANCH  15  19
ATOM     19  O3* UNL     1     -37.179  22.254   3.589  0.00  0.00    -0.379 OA
ATOM     20  H3* UNL     1     -36.760  21.381   3.640  0.00  0.00    +0.211 HD
ENDBRANCH  15  19
BRANCH  16  21
ATOM     21  C5* UNL     1     -34.883  22.122   5.789  0.00  0.00    +0.169 C 
BRANCH  21  22
ATOM     22  O5* UNL     1     -35.526  20.860   5.834  0.00  0.00    -0.379 OA
ATOM     23  H5* UNL     1     -35.162  20.286   5.142  0.00  0.00    +0.211 HD
ENDBRANCH  21  22
ENDBRANCH  16  21
ENDBRANCH   1  14
BRANCH  10  24
ATOM     24  C   UNL     1     -29.905  29.439   3.787  0.00  0.00    +0.075 C 
ATOM     25  C   UNL     1     -29.334  30.120   2.548  0.00  0.00    +0.022 C 
BRANCH  24  26
ATOM     26  C   UNL     1     -30.174  30.465   4.898  0.00  0.00    +0.046 C 
BRANCH  26  27
ATOM     27  C   UNL     1     -29.032  30.581   5.881  0.00  0.00    -0.021 C 
ATOM     28  C   UNL     1     -28.085  31.578   5.708  0.00  0.00    -0.004 C 
ATOM     29  C   UNL     1     -28.952  29.687   6.937  0.00  0.00    -0.004 C 
ATOM     30  C   UNL     1     -27.032  31.685   6.615  0.00  0.00    -0.000 C 
ATOM     31  C   UNL     1     -27.898  29.794   7.844  0.00  0.00    -0.000 C 
ATOM     32  C   UNL     1     -26.938  30.793   7.683  0.00  0.00    -0.000 C 
ENDBRANCH  26  27
ENDBRANCH  24  26
ENDBRANCH  10  24
TORSDOF 8
ENDMDL
MODEL 2
REMARK VINA RESULT:      -7.1      1.669      2.892
REMARK  Name = 5312112
REMARK  8 active torsions:
REMARK  status: ('A' for Active; 'I' for Inactive)
REMARK    1  A    between atoms: N_1  and  C1*_12
REMARK    2  A    between atoms: C2*_11  and  O2*_15
REMARK    3  A    between atoms: C3*_13  and  O3*_17
REMARK    4  A    between atoms: C4*_14  and  C5*_19
REMARK    5  A    between atoms: C5*_19  and  O5*_20
REMARK    6  A    between atoms: N_22  and  C_24
REMARK    7  A    between atoms: C_24  and  C_26
REMARK    8  A    between atoms: C_26  and  C_27
REMARK                            x       y       z     vdW  Elec       q    Type
REMARK                         _______ _______ _______ _____ _____    ______ ____
ROOT
ATOM      1  N   UNL     1     -34.888  26.153   4.434  0.00  0.00    -0.247 N 
ATOM      2  N   UNL     1     -33.682  27.300   2.949  0.00  0.00    -0.242 NA
ATOM      3  N   UNL     1     -33.610  26.611   6.449  0.00  0.00    -0.228 NA
ATOM      4  N   UNL     1     -31.689  28.040   5.974  0.00  0.00    -0.228 NA
ATOM      5  C   UNL     1     -33.859  26.717   5.135  0.00  0.00    +0.152 C 
ATOM      6  C   UNL     1     -34.738  26.533   3.125  0.00  0.00    +0.223 C 
ATOM      7  C   UNL     1     -33.124  27.423   4.196  0.00  0.00    +0.140 C 
ATOM      8  C   UNL     1     -32.001  28.103   4.658  0.00  0.00    +0.146 C 
ATOM      9  C   UNL     1     -32.501  27.309   6.776  0.00  0.00    +0.253 C 
ATOM     10  N   UNL     1     -31.199  28.846   3.776  0.00  0.00    -0.318 N 
ATOM     11  H   UNL     1     -31.450  28.875   2.824  0.00  0.00    +0.148 HD
ENDROOT
BRANCH   1  14
ATOM     12  O4* UNL     1     -35.385  24.315   5.853  0.00  0.00    -0.333 OA
ATOM     13  C2* UNL     1     -36.744  24.559   3.890  0.00  0.00    +0.187 C 
ATOM     14  C1* UNL     1     -35.955  25.303   4.969  0.00  0.00    +0.225 C 
ATOM     15  C3* UNL     1     -36.190  23.150   3.978  0.00  0.00    +0.171 C 
ATOM     16  C4* UNL     1     -35.870  23.022   5.458  0.00  0.00    +0.175 C 
BRANCH  13  17
ATOM     17  O2* UNL     1     -38.132  24.590   4.219  0.00  0.00    -0.378 OA
ATOM     18  H2* UNL     1     -38.325  23.898   4.872  0.00  0.00    +0.211 HD
ENDBRANCH  13  17
BRANCH  15  19
ATOM     19  O3* UNL     1     -37.097  22.160   3.542  0.00  0.00    -0.379 OA
ATOM     20  H3* UNL     1     -37.995  22.401   3.818  0.00  0.00    +0.211 HD
ENDBRANCH  15  19
BRANCH  16  21
ATOM     21  C5* UNL     1     -34.823  21.965   5.761  0.00  0.00    +0.169 C 
BRANCH  21  22
ATOM     22  O5* UNL     1     -35.444  20.691   5.745  0.00  0.00    -0.379 OA
ATOM     23  H5* UNL     1     -35.343  20.271   6.613  0.00  0.00    +0.211 HD
ENDBRANCH  21  22
ENDBRANCH  16  21
ENDBRANCH   1  14
BRANCH  10  24
ATOM     24  C   UNL     1     -30.032  29.564   4.197  0.00  0.00    +0.075 C 
ATOM     25  C   UNL     1     -29.151  29.817   2.979  0.00  0.00    +0.022 C 
BRANCH  24  26
ATOM     26  C   UNL     1     -30.436  30.889   4.863  0.00  0.00    +0.046 C 
BRANCH  26  27
ATOM     27  C   UNL     1     -31.107  31.847   3.908  0.00  0.00    -0.021 C 
ATOM     28  C   UNL     1     -32.380  31.562   3.442  0.00  0.00    -0.004 C 
ATOM     29  C   UNL     1     -30.435  32.994   3.513  0.00  0.00    -0.004 C 
ATOM     30  C   UNL     1     -32.999  32.447   2.561  0.00  0.00    -0.000 C 
ATOM     31  C   UNL     1     -31.054  33.879   2.631  0.00  0.00    -0.000 C 
ATOM     32  C   UNL     1     -32.337  33.606   2.154  0.00  0.00    -0.000 C 
ENDBRANCH  26  27
ENDBRANCH  24  26
ENDBRANCH  10  24
TORSDOF 8
ENDMDL
MODEL 3
REMARK VINA RESULT:      -6.9      6.208     11.276
REMARK  Name = 5312112
REMARK  8 active torsions:
REMARK  status: ('A' for Active; 'I' for Inactive)
REMARK    1  A    between atoms: N_1  and  C1*_12
REMARK    2  A    between atoms: C2*_11  and  O2*_15
REMARK    3  A    between atoms: C3*_13  and  O3*_17
REMARK    4  A    between atoms: C4*_14  and  C5*_19
REMARK    5  A    between atoms: C5*_19  and  O5*_20
REMARK    6  A    between atoms: N_22  and  C_24
REMARK    7  A    between atoms: C_24  and  C_26
REMARK    8  A    between atoms: C_26  and  C_27
REMARK                            x       y       z     vdW  Elec       q    Type
REMARK                         _______ _______ _______ _____ _____    ______ ____
ROOT
ATOM      1  N   UNL     1     -38.190  23.006   2.603  0.00  0.00    -0.247 N 
ATOM      2  N   UNL     1     -40.082  22.389   1.596  0.00  0.00    -0.242 NA
ATOM      3  N   UNL     1     -38.669  25.357   2.981  0.00  0.00    -0.228 NA
ATOM      4  N   UNL     1     -40.879  25.959   2.139  0.00  0.00    -0.228 NA
ATOM      5  C   UNL     1     -38.968  24.127   2.536  0.00  0.00    +0.152 C 
ATOM      6  C   UNL     1     -38.903  21.988   2.024  0.00  0.00    +0.223 C 
ATOM      7  C   UNL     1     -40.136  23.723   1.909  0.00  0.00    +0.140 C 
ATOM      8  C   UNL     1     -41.113  24.693   1.715  0.00  0.00    +0.146 C 
ATOM      9  C   UNL     1     -39.689  26.208   2.737  0.00  0.00    +0.253 C 
ATOM     10  N   UNL     1     -42.330  24.372   1.089  0.00  0.00    -0.318 N 
ATOM     11  H   UNL     1     -42.473  23.444   0.791  0.00  0.00    +0.148 HD
ENDROOT
BRANCH   1  14
ATOM     12  O4* UNL     1     -36.851  23.453   4.512  0.00  0.00    -0.333 OA
ATOM     13  C2* UNL     1     -35.774  23.633   2.375  0.00  0.00    +0.187 C 
ATOM     14  C1* UNL     1     -36.848  22.899   3.180  0.00  0.00    +0.225 C 
ATOM     15  C3* UNL     1     -35.539  24.888   3.194  0.00  0.00    +0.171 C 
ATOM     16  C4* UNL     1     -35.772  24.396   4.612  0.00  0.00    +0.175 C 
BRANCH  13  17
ATOM     17  O2* UNL     1     -34.598  22.828   2.316  0.00  0.00    -0.378 OA
ATOM     18  H2* UNL     1     -33.818  23.400   2.242  0.00  0.00    +0.211 HD
ENDBRANCH  13  17
BRANCH  15  19
ATOM     19  O3* UNL     1     -34.249  25.436   3.027  0.00  0.00    -0.379 OA
ATOM     20  H3* UNL     1     -34.063  26.050   3.754  0.00  0.00    +0.211 HD
ENDBRANCH  15  19
BRANCH  16  21
ATOM     21  C5* UNL     1     -36.144  25.501   5.584  0.00  0.00    +0.169 C 
BRANCH  21  22
ATOM     22  O5* UNL     1     -36.511  26.653   4.844  0.00  0.00    -0.379 OA
ATOM     23  H5* UNL     1     -36.199  27.447   5.304  0.00  0.00    +0.211 HD
ENDBRANCH  21  22
ENDBRANCH  16  21
ENDBRANCH   1  14
BRANCH  10  24
ATOM     24  C   UNL     1     -43.370  25.331   0.863  0.00  0.00    +0.075 C 
ATOM     25  C   UNL     1     -43.402  25.674  -0.622  0.00  0.00    +0.022 C 
BRANCH  24  26
ATOM     26  C   UNL     1     -44.723  24.765   1.321  0.00  0.00    +0.046 C 
BRANCH  26  27
ATOM     27  C   UNL     1     -45.157  25.294   2.668  0.00  0.00    -0.021 C 
ATOM     28  C   UNL     1     -44.443  26.327   3.255  0.00  0.00    -0.004 C 
ATOM     29  C   UNL     1     -46.260  24.734   3.293  0.00  0.00    -0.004 C 
ATOM     30  C   UNL     1     -44.844  26.814   4.497  0.00  0.00    -0.000 C 
ATOM     31  C   UNL     1     -46.661  25.223   4.537  0.00  0.00    -0.000 C 
ATOM     32  C   UNL     1     -45.953  26.263   5.139  0.00  0.00    -0.000 C 
ENDBRANCH  26  27
ENDBRANCH  24  26
ENDBRANCH  10  24
TORSDOF 8
ENDMDL
MODEL 4
REMARK VINA RESULT:      -6.9      1.297      2.233
REMARK  Name = 5312112
REMARK  8 active torsions:
REMARK  status: ('A' for Active; 'I' for Inactive)
REMARK    1  A    between atoms: N_1  and  C1*_12
REMARK    2  A    between atoms: C2*_11  and  O2*_15
REMARK    3  A    between atoms: C3*_13  and  O3*_17
REMARK    4  A    between atoms: C4*_14  and  C5*_19
REMARK    5  A    between atoms: C5*_19  and  O5*_20
REMARK    6  A    between atoms: N_22  and  C_24
REMARK    7  A    between atoms: C_24  and  C_26
REMARK    8  A    between atoms: C_26  and  C_27
REMARK                            x       y       z     vdW  Elec       q    Type
REMARK                         _______ _______ _______ _____ _____    ______ ____
ROOT
ATOM      1  N   UNL     1     -34.669  26.044   4.791  0.00  0.00    -0.247 N 
ATOM      2  N   UNL     1     -33.006  27.047   5.887  0.00  0.00    -0.242 NA
ATOM      3  N   UNL     1     -34.560  27.245   2.681  0.00  0.00    -0.228 NA
ATOM      4  N   UNL     1     -32.781  28.915   2.703  0.00  0.00    -0.228 NA
ATOM      5  C   UNL     1     -34.156  26.975   3.932  0.00  0.00    +0.152 C 
ATOM      6  C   UNL     1     -33.944  26.126   5.952  0.00  0.00    +0.223 C 
ATOM      7  C   UNL     1     -33.126  27.586   4.631  0.00  0.00    +0.140 C 
ATOM      8  C   UNL     1     -32.427  28.590   3.970  0.00  0.00    +0.146 C 
ATOM      9  C   UNL     1     -33.810  28.232   2.146  0.00  0.00    +0.253 C 
ATOM     10  N   UNL     1     -31.366  29.261   4.602  0.00  0.00    -0.318 N 
ATOM     11  H   UNL     1     -31.130  29.004   5.523  0.00  0.00    +0.148 HD
ENDROOT
BRANCH   1  14
ATOM     12  O4* UNL     1     -35.980  24.275   5.679  0.00  0.00    -0.333 OA
ATOM     13  C2* UNL     1     -35.560  24.223   3.317  0.00  0.00    +0.187 C 
ATOM     14  C1* UNL     1     -35.781  25.126   4.531  0.00  0.00    +0.225 C 
ATOM     15  C3* UNL     1     -35.197  22.892   3.949  0.00  0.00    +0.171 C 
ATOM     16  C4* UNL     1     -36.013  22.910   5.230  0.00  0.00    +0.175 C 
BRANCH  13  17
ATOM     17  O2* UNL     1     -36.775  24.127   2.575  0.00  0.00    -0.378 OA
ATOM     18  H2* UNL     1     -36.960  23.196   2.377  0.00  0.00    +0.211 HD
ENDBRANCH  13  17
BRANCH  15  19
ATOM     19  O3* UNL     1     -35.507  21.780   3.136  0.00  0.00    -0.379 OA
ATOM     20  H3* UNL     1     -34.734  21.199   3.077  0.00  0.00    +0.211 HD
ENDBRANCH  15  19
BRANCH  16  21
ATOM     21  C5* UNL     1     -35.462  21.999   6.312  0.00  0.00    +0.169 C 
BRANCH  21  22
ATOM     22  O5* UNL     1     -35.345  20.688   5.786  0.00  0.00    -0.379 OA
ATOM     23  H5* UNL     1     -34.768  20.702   5.007  0.00  0.00    +0.211 HD
ENDBRANCH  21  22
ENDBRANCH  16  21
ENDBRANCH   1  14
BRANCH  10  24
ATOM     24  C   UNL     1     -30.613  30.303   3.969  0.00  0.00    +0.075 C 
ATOM     25  C   UNL     1     -30.898  31.616   4.689  0.00  0.00    +0.022 C 
BRANCH  24  26
ATOM     26  C   UNL     1     -29.113  29.973   4.009  0.00  0.00    +0.046 C 
BRANCH  26  27
ATOM     27  C   UNL     1     -28.678  29.373   5.326  0.00  0.00    -0.021 C 
ATOM     28  C   UNL     1     -28.550  27.998   5.436  0.00  0.00    -0.004 C 
ATOM     29  C   UNL     1     -28.416  30.210   6.399  0.00  0.00    -0.004 C 
ATOM     30  C   UNL     1     -28.148  27.445   6.651  0.00  0.00    -0.000 C 
ATOM     31  C   UNL     1     -28.014  29.656   7.614  0.00  0.00    -0.000 C 
ATOM     32  C   UNL     1     -27.880  28.273   7.741  0.00  0.00    -0.000 C 
ENDBRANCH  26  27
ENDBRANCH  24  26
ENDBRANCH  10  24
TORSDOF 8
ENDMDL
MODEL 5
REMARK VINA RESULT:      -6.9      6.847     11.917
REMARK  Name = 5312112
REMARK  8 active torsions:
REMARK  status: ('A' for Active; 'I' for Inactive)
REMARK    1  A    between atoms: N_1  and  C1*_12
REMARK    2  A    between atoms: C2*_11  and  O2*_15
REMARK    3  A    between atoms: C3*_13  and  O3*_17
REMARK    4  A    between atoms: C4*_14  and  C5*_19
REMARK    5  A    between atoms: C5*_19  and  O5*_20
REMARK    6  A    between atoms: N_22  and  C_24
REMARK    7  A    between atoms: C_24  and  C_26
REMARK    8  A    between atoms: C_26  and  C_27
REMARK                            x       y       z     vdW  Elec       q    Type
REMARK                         _______ _______ _______ _____ _____    ______ ____
ROOT
ATOM      1  N   UNL     1     -38.709  24.499   1.961  0.00  0.00    -0.247 N 
ATOM      2  N   UNL     1     -40.445  23.137   1.637  0.00  0.00    -0.242 NA
ATOM      3  N   UNL     1     -39.763  26.636   1.486  0.00  0.00    -0.228 NA
ATOM      4  N   UNL     1     -42.116  26.353   0.900  0.00  0.00    -0.228 NA
ATOM      5  C   UNL     1     -39.760  25.300   1.613  0.00  0.00    +0.152 C 
ATOM      6  C   UNL     1     -39.171  23.208   1.962  0.00  0.00    +0.223 C 
ATOM      7  C   UNL     1     -40.826  24.437   1.416  0.00  0.00    +0.140 C 
ATOM      8  C   UNL     1     -42.039  25.008   1.047  0.00  0.00    +0.146 C 
ATOM      9  C   UNL     1     -40.989  27.072   1.125  0.00  0.00    +0.253 C 
ATOM     10  N   UNL     1     -43.173  24.208   0.829  0.00  0.00    -0.318 N 
ATOM     11  H   UNL     1     -43.089  23.233   0.943  0.00  0.00    +0.148 HD
ENDROOT
BRANCH   1  14
ATOM     12  O4* UNL     1     -36.500  23.766   2.432  0.00  0.00    -0.333 OA
ATOM     13  C2* UNL     1     -37.241  25.749   3.563  0.00  0.00    +0.187 C 
ATOM     14  C1* UNL     1     -37.344  24.927   2.277  0.00  0.00    +0.225 C 
ATOM     15  C3* UNL     1     -36.680  24.750   4.558  0.00  0.00    +0.171 C 
ATOM     16  C4* UNL     1     -35.796  23.883   3.679  0.00  0.00    +0.175 C 
BRANCH  13  17
ATOM     17  O2* UNL     1     -36.338  26.834   3.356  0.00  0.00    -0.378 OA
ATOM     18  H2* UNL     1     -35.480  26.621   3.755  0.00  0.00    +0.211 HD
ENDBRANCH  13  17
BRANCH  15  19
ATOM     19  O3* UNL     1     -35.957  25.351   5.611  0.00  0.00    -0.379 OA
ATOM     20  H3* UNL     1     -36.572  25.621   6.311  0.00  0.00    +0.211 HD
ENDBRANCH  15  19
BRANCH  16  21
ATOM     21  C5* UNL     1     -35.539  22.502   4.255  0.00  0.00    +0.169 C 
BRANCH  21  22
ATOM     22  O5* UNL     1     -36.225  22.389   5.489  0.00  0.00    -0.379 OA
ATOM     23  H5* UNL     1     -36.454  21.460   5.649  0.00  0.00    +0.211 HD
ENDBRANCH  21  22
ENDBRANCH  16  21
ENDBRANCH   1  14
BRANCH  10  24
ATOM     24  C   UNL     1     -44.446  24.744   0.447  0.00  0.00    +0.075 C 
ATOM     25  C   UNL     1     -44.597  24.609  -1.064  0.00  0.00    +0.022 C 
BRANCH  24  26
ATOM     26  C   UNL     1     -45.576  24.000   1.177  0.00  0.00    +0.046 C 
BRANCH  26  27
ATOM     27  C   UNL     1     -45.919  24.617   2.513  0.00  0.00    -0.021 C 
ATOM     28  C   UNL     1     -46.939  24.067   3.272  0.00  0.00    -0.004 C 
ATOM     29  C   UNL     1     -45.207  25.721   2.953  0.00  0.00    -0.004 C 
ATOM     30  C   UNL     1     -47.256  24.636   4.505  0.00  0.00    -0.000 C 
ATOM     31  C   UNL     1     -45.524  26.290   4.186  0.00  0.00    -0.000 C 
ATOM     32  C   UNL     1     -46.549  25.748   4.963  0.00  0.00    -0.000 C 
ENDBRANCH  26  27
ENDBRANCH  24  26
ENDBRANCH  10  24
TORSDOF 8
ENDMDL
MODEL 6
REMARK VINA RESULT:      -6.7      2.020      3.518
REMARK  Name = 5312112
REMARK  8 active torsions:
REMARK  status: ('A' for Active; 'I' for Inactive)
REMARK    1  A    between atoms: N_1  and  C1*_12
REMARK    2  A    between atoms: C2*_11  and  O2*_15
REMARK    3  A    between atoms: C3*_13  and  O3*_17
REMARK    4  A    between atoms: C4*_14  and  C5*_19
REMARK    5  A    between atoms: C5*_19  and  O5*_20
REMARK    6  A    between atoms: N_22  and  C_24
REMARK    7  A    between atoms: C_24  and  C_26
REMARK    8  A    between atoms: C_26  and  C_27
REMARK                            x       y       z     vdW  Elec       q    Type
REMARK                         _______ _______ _______ _____ _____    ______ ____
ROOT
ATOM      1  N   UNL     1     -34.960  25.400   4.102  0.00  0.00    -0.247 N 
ATOM      2  N   UNL     1     -34.161  26.367   5.947  0.00  0.00    -0.242 NA
ATOM      3  N   UNL     1     -33.683  26.599   2.419  0.00  0.00    -0.228 NA
ATOM      4  N   UNL     1     -32.183  28.231   3.440  0.00  0.00    -0.228 NA
ATOM      5  C   UNL     1     -34.042  26.321   3.681  0.00  0.00    +0.152 C 
ATOM      6  C   UNL     1     -34.995  25.466   5.472  0.00  0.00    +0.223 C 
ATOM      7  C   UNL     1     -33.559  26.909   4.840  0.00  0.00    +0.140 C 
ATOM      8  C   UNL     1     -32.593  27.898   4.687  0.00  0.00    +0.146 C 
ATOM      9  C   UNL     1     -32.745  27.571   2.398  0.00  0.00    +0.253 C 
ATOM     10  N   UNL     1     -32.046  28.546   5.807  0.00  0.00    -0.318 N 
ATOM     11  H   UNL     1     -32.362  28.284   6.702  0.00  0.00    +0.148 HD
ENDROOT
BRANCH   1  14
ATOM     12  O4* UNL     1     -36.198  25.218   2.085  0.00  0.00    -0.333 OA
ATOM     13  C2* UNL     1     -37.004  23.957   3.961  0.00  0.00    +0.187 C 
ATOM     14  C1* UNL     1     -35.760  24.507   3.261  0.00  0.00    +0.225 C 
ATOM     15  C3* UNL     1     -38.122  24.790   3.363  0.00  0.00    +0.171 C 
ATOM     16  C4* UNL     1     -37.618  25.041   1.952  0.00  0.00    +0.175 C 
BRANCH  13  17
ATOM     17  O2* UNL     1     -37.156  22.577   3.632  0.00  0.00    -0.378 OA
ATOM     18  H2* UNL     1     -37.574  22.112   4.375  0.00  0.00    +0.211 HD
ENDBRANCH  13  17
BRANCH  15  19
ATOM     19  O3* UNL     1     -39.375  24.139   3.372  0.00  0.00    -0.379 OA
ATOM     20  H3* UNL     1     -40.079  24.793   3.243  0.00  0.00    +0.211 HD
ENDBRANCH  15  19
BRANCH  16  21
ATOM     21  C5* UNL     1     -38.230  26.268   1.300  0.00  0.00    +0.169 C 
BRANCH  21  22
ATOM     22  O5* UNL     1     -37.651  27.426   1.875  0.00  0.00    -0.379 OA
ATOM     23  H5* UNL     1     -38.043  27.585   2.748  0.00  0.00    +0.211 HD
ENDBRANCH  21  22
ENDBRANCH  16  21
ENDBRANCH   1  14
BRANCH  10  24
ATOM     24  C   UNL     1     -31.050  29.572   5.708  0.00  0.00    +0.075 C 
ATOM     25  C   UNL     1     -31.715  30.921   5.958  0.00  0.00    +0.022 C 
BRANCH  24  26
ATOM     26  C   UNL     1     -29.926  29.321   6.726  0.00  0.00    +0.046 C 
BRANCH  26  27
ATOM     27  C   UNL     1     -28.897  28.330   6.234  0.00  0.00    -0.021 C 
ATOM     28  C   UNL     1     -28.592  28.281   4.883  0.00  0.00    -0.004 C 
ATOM     29  C   UNL     1     -28.279  27.486   7.143  0.00  0.00    -0.004 C 
ATOM     30  C   UNL     1     -27.642  27.367   4.430  0.00  0.00    -0.000 C 
ATOM     31  C   UNL     1     -27.329  26.572   6.689  0.00  0.00    -0.000 C 
ATOM     32  C   UNL     1     -27.011  26.512   5.332  0.00  0.00    -0.000 C 
ENDBRANCH  26  27
ENDBRANCH  24  26
ENDBRANCH  10  24
TORSDOF 8
ENDMDL
MODEL 7
REMARK VINA RESULT:      -6.6      5.655      7.646
REMARK  Name = 5312112
REMARK  8 active torsions:
REMARK  status: ('A' for Active; 'I' for Inactive)
REMARK    1  A    between atoms: N_1  and  C1*_12
REMARK    2  A    between atoms: C2*_11  and  O2*_15
REMARK    3  A    between atoms: C3*_13  and  O3*_17
REMARK    4  A    between atoms: C4*_14  and  C5*_19
REMARK    5  A    between atoms: C5*_19  and  O5*_20
REMARK    6  A    between atoms: N_22  and  C_24
REMARK    7  A    between atoms: C_24  and  C_26
REMARK    8  A    between atoms: C_26  and  C_27
REMARK                            x       y       z     vdW  Elec       q    Type
REMARK                         _______ _______ _______ _____ _____    ______ ____
ROOT
ATOM      1  N   UNL     1     -35.186  27.367   2.561  0.00  0.00    -0.247 N 
ATOM      2  N   UNL     1     -36.781  28.279   1.296  0.00  0.00    -0.242 NA
ATOM      3  N   UNL     1     -34.079  29.382   3.349  0.00  0.00    -0.228 NA
ATOM      4  N   UNL     1     -35.146  31.387   2.455  0.00  0.00    -0.228 NA
ATOM      5  C   UNL     1     -35.014  28.721   2.649  0.00  0.00    +0.152 C 
ATOM      6  C   UNL     1     -36.261  27.153   1.737  0.00  0.00    +0.223 C 
ATOM      7  C   UNL     1     -36.012  29.266   1.858  0.00  0.00    +0.140 C 
ATOM      8  C   UNL     1     -36.060  30.654   1.774  0.00  0.00    +0.146 C 
ATOM      9  C   UNL     1     -34.226  30.715   3.189  0.00  0.00    +0.253 C 
ATOM     10  N   UNL     1     -37.040  31.293   0.996  0.00  0.00    -0.318 N 
ATOM     11  H   UNL     1     -37.692  30.735   0.512  0.00  0.00    +0.148 HD
ENDROOT
BRANCH   1  14
ATOM     12  O4* UNL     1     -34.612  25.064   2.573  0.00  0.00    -0.333 OA
ATOM     13  C2* UNL     1     -34.703  26.162   4.704  0.00  0.00    +0.187 C 
ATOM     14  C1* UNL     1     -34.383  26.334   3.219  0.00  0.00    +0.225 C 
ATOM     15  C3* UNL     1     -35.537  24.895   4.725  0.00  0.00    +0.171 C 
ATOM     16  C4* UNL     1     -34.936  24.095   3.583  0.00  0.00    +0.175 C 
BRANCH  13  17
ATOM     17  O2* UNL     1     -33.486  25.990   5.430  0.00  0.00    -0.378 OA
ATOM     18  H2* UNL     1     -32.916  26.763   5.292  0.00  0.00    +0.211 HD
ENDBRANCH  13  17
BRANCH  15  19
ATOM     19  O3* UNL     1     -35.474  24.200   5.952  0.00  0.00    -0.379 OA
ATOM     20  H3* UNL     1     -36.351  23.849   6.169  0.00  0.00    +0.211 HD
ENDBRANCH  15  19
BRANCH  16  21
ATOM     21  C5* UNL     1     -35.881  23.053   3.011  0.00  0.00    +0.169 C 
BRANCH  21  22
ATOM     22  O5* UNL     1     -36.664  22.521   4.066  0.00  0.00    -0.379 OA
ATOM     23  H5* UNL     1     -37.428  22.053   3.698  0.00  0.00    +0.211 HD
ENDBRANCH  21  22
ENDBRANCH  16  21
ENDBRANCH   1  14
BRANCH  10  24
ATOM     24  C   UNL     1     -37.135  32.718   0.874  0.00  0.00    +0.075 C 
ATOM     25  C   UNL     1     -36.022  33.202  -0.049  0.00  0.00    +0.022 C 
BRANCH  24  26
ATOM     26  C   UNL     1     -38.513  33.112   0.320  0.00  0.00    +0.046 C 
BRANCH  26  27
ATOM     27  C   UNL     1     -39.264  34.057   1.230  0.00  0.00    -0.021 C 
ATOM     28  C   UNL     1     -38.554  34.891   2.078  0.00  0.00    -0.004 C 
ATOM     29  C   UNL     1     -40.650  34.069   1.199  0.00  0.00    -0.004 C 
ATOM     30  C   UNL     1     -39.248  35.763   2.916  0.00  0.00    -0.000 C 
ATOM     31  C   UNL     1     -41.343  34.941   2.039  0.00  0.00    -0.000 C 
ATOM     32  C   UNL     1     -40.642  35.788   2.898  0.00  0.00    -0.000 C 
ENDBRANCH  26  27
ENDBRANCH  24  26
ENDBRANCH  10  24
TORSDOF 8
ENDMDL
MODEL 8
REMARK VINA RESULT:      -6.6      1.740      3.004
REMARK  Name = 5312112
REMARK  8 active torsions:
REMARK  status: ('A' for Active; 'I' for Inactive)
REMARK    1  A    between atoms: N_1  and  C1*_12
REMARK    2  A    between atoms: C2*_11  and  O2*_15
REMARK    3  A    between atoms: C3*_13  and  O3*_17
REMARK    4  A    between atoms: C4*_14  and  C5*_19
REMARK    5  A    between atoms: C5*_19  and  O5*_20
REMARK    6  A    between atoms: N_22  and  C_24
REMARK    7  A    between atoms: C_24  and  C_26
REMARK    8  A    between atoms: C_26  and  C_27
REMARK                            x       y       z     vdW  Elec       q    Type
REMARK                         _______ _______ _______ _____ _____    ______ ____
ROOT
ATOM      1  N   UNL     1     -34.943  25.173   3.424  0.00  0.00    -0.247 N 
ATOM      2  N   UNL     1     -34.394  25.815   5.488  0.00  0.00    -0.242 NA
ATOM      3  N   UNL     1     -33.528  26.668   2.134  0.00  0.00    -0.228 NA
ATOM      4  N   UNL     1     -32.213  28.120   3.590  0.00  0.00    -0.228 NA
ATOM      5  C   UNL     1     -34.017  26.168   3.279  0.00  0.00    +0.152 C 
ATOM      6  C   UNL     1     -35.136  24.998   4.770  0.00  0.00    +0.223 C 
ATOM      7  C   UNL     1     -33.690  26.551   4.570  0.00  0.00    +0.140 C 
ATOM      8  C   UNL     1     -32.750  27.567   4.704  0.00  0.00    +0.146 C 
ATOM      9  C   UNL     1     -32.629  27.644   2.392  0.00  0.00    +0.253 C 
ATOM     10  N   UNL     1     -32.357  28.018   5.976  0.00  0.00    -0.318 N 
ATOM     11  H   UNL     1     -32.763  27.598   6.769  0.00  0.00    +0.148 HD
ENDROOT
BRANCH   1  14
ATOM     12  O4* UNL     1     -36.971  24.889   2.222  0.00  0.00    -0.333 OA
ATOM     13  C2* UNL     1     -35.652  22.918   2.592  0.00  0.00    +0.187 C 
ATOM     14  C1* UNL     1     -35.610  24.428   2.353  0.00  0.00    +0.225 C 
ATOM     15  C3* UNL     1     -37.085  22.688   3.034  0.00  0.00    +0.171 C 
ATOM     16  C4* UNL     1     -37.839  23.744   2.246  0.00  0.00    +0.175 C 
BRANCH  13  17
ATOM     17  O2* UNL     1     -35.375  22.241   1.367  0.00  0.00    -0.378 OA
ATOM     18  H2* UNL     1     -36.141  22.315   0.776  0.00  0.00    +0.211 HD
ENDBRANCH  13  17
BRANCH  15  19
ATOM     19  O3* UNL     1     -37.555  21.385   2.761  0.00  0.00    -0.379 OA
ATOM     20  H3* UNL     1     -38.492  21.425   2.516  0.00  0.00    +0.211 HD
ENDBRANCH  15  19
BRANCH  16  21
ATOM     21  C5* UNL     1     -39.172  24.124   2.865  0.00  0.00    +0.169 C 
BRANCH  21  22
ATOM     22  O5* UNL     1     -38.932  24.952   3.990  0.00  0.00    -0.379 OA
ATOM     23  H5* UNL     1     -39.092  25.878   3.751  0.00  0.00    +0.211 HD
ENDBRANCH  21  22
ENDBRANCH  16  21
ENDBRANCH   1  14
BRANCH  10  24
ATOM     24  C   UNL     1     -31.394  29.061   6.173  0.00  0.00    +0.075 C 
ATOM     25  C   UNL     1     -31.769  29.839   7.430  0.00  0.00    +0.022 C 
BRANCH  24  26
ATOM     26  C   UNL     1     -29.984  28.464   6.301  0.00  0.00    +0.046 C 
BRANCH  26  27
ATOM     27  C   UNL     1     -28.924  29.509   6.562  0.00  0.00    -0.021 C 
ATOM     28  C   UNL     1     -28.723  30.519   5.634  0.00  0.00    -0.004 C 
ATOM     29  C   UNL     1     -28.171  29.436   7.723  0.00  0.00    -0.004 C 
ATOM     30  C   UNL     1     -27.745  31.482   5.876  0.00  0.00    -0.000 C 
ATOM     31  C   UNL     1     -27.193  30.401   7.964  0.00  0.00    -0.000 C 
ATOM     32  C   UNL     1     -26.979  31.424   7.040  0.00  0.00    -0.000 C 
ENDBRANCH  26  27
ENDBRANCH  24  26
ENDBRANCH  10  24
TORSDOF 8
ENDMDL
MODEL 9
REMARK VINA RESULT:      -6.6      7.386      9.982
REMARK  Name = 5312112
REMARK  8 active torsions:
REMARK  status: ('A' for Active; 'I' for Inactive)
REMARK    1  A    between atoms: N_1  and  C1*_12
REMARK    2  A    between atoms: C2*_11  and  O2*_15
REMARK    3  A    between atoms: C3*_13  and  O3*_17
REMARK    4  A    between atoms: C4*_14  and  C5*_19
REMARK    5  A    between atoms: C5*_19  and  O5*_20
REMARK    6  A    between atoms: N_22  and  C_24
REMARK    7  A    between atoms: C_24  and  C_26
REMARK    8  A    between atoms: C_26  and  C_27
REMARK                            x       y       z     vdW  Elec       q    Type
REMARK                         _______ _______ _______ _____ _____    ______ ____
ROOT
ATOM      1  N   UNL     1     -43.219  26.542   2.693  0.00  0.00    -0.247 N 
ATOM      2  N   UNL     1     -41.461  27.277   3.853  0.00  0.00    -0.242 NA
ATOM      3  N   UNL     1     -42.135  24.855   1.322  0.00  0.00    -0.228 NA
ATOM      4  N   UNL     1     -39.745  24.724   1.800  0.00  0.00    -0.228 NA
ATOM      5  C   UNL     1     -42.146  25.816   2.257  0.00  0.00    +0.152 C 
ATOM      6  C   UNL     1     -42.755  27.407   3.652  0.00  0.00    +0.223 C 
ATOM      7  C   UNL     1     -41.067  26.287   2.989  0.00  0.00    +0.140 C 
ATOM      8  C   UNL     1     -39.831  25.703   2.733  0.00  0.00    +0.146 C 
ATOM      9  C   UNL     1     -40.886  24.366   1.162  0.00  0.00    +0.253 C 
ATOM     10  N   UNL     1     -38.683  26.117   3.430  0.00  0.00    -0.318 N 
ATOM     11  H   UNL     1     -38.774  26.830   4.103  0.00  0.00    +0.148 HD
ENDROOT
BRANCH   1  14
ATOM     12  O4* UNL     1     -45.392  27.491   2.809  0.00  0.00    -0.333 OA
ATOM     13  C2* UNL     1     -45.268  25.103   2.608  0.00  0.00    +0.187 C 
ATOM     14  C1* UNL     1     -44.604  26.428   2.232  0.00  0.00    +0.225 C 
ATOM     15  C3* UNL     1     -46.159  25.490   3.773  0.00  0.00    +0.171 C 
ATOM     16  C4* UNL     1     -46.560  26.911   3.413  0.00  0.00    +0.175 C 
BRANCH  13  17
ATOM     17  O2* UNL     1     -46.039  24.633   1.503  0.00  0.00    -0.378 OA
ATOM     18  H2* UNL     1     -45.647  24.956   0.676  0.00  0.00    +0.211 HD
ENDBRANCH  13  17
BRANCH  15  19
ATOM     19  O3* UNL     1     -47.279  24.646   3.930  0.00  0.00    -0.379 OA
ATOM     20  H3* UNL     1     -48.050  25.049   3.502  0.00  0.00    +0.211 HD
ENDBRANCH  15  19
BRANCH  16  21
ATOM     21  C5* UNL     1     -46.985  27.741   4.610  0.00  0.00    +0.169 C 
BRANCH  21  22
ATOM     22  O5* UNL     1     -46.767  26.986   5.789  0.00  0.00    -0.379 OA
ATOM     23  H5* UNL     1     -45.838  26.712   5.831  0.00  0.00    +0.211 HD
ENDBRANCH  21  22
ENDBRANCH  16  21
ENDBRANCH   1  14
BRANCH  10  24
ATOM     24  C   UNL     1     -37.386  25.550   3.206  0.00  0.00    +0.075 C 
ATOM     25  C   UNL     1     -36.589  26.497   2.314  0.00  0.00    +0.022 C 
BRANCH  24  26
ATOM     26  C   UNL     1     -36.666  25.326   4.544  0.00  0.00    +0.046 C 
BRANCH  26  27
ATOM     27  C   UNL     1     -36.102  23.932   4.684  0.00  0.00    -0.021 C 
ATOM     28  C   UNL     1     -36.171  23.061   3.608  0.00  0.00    -0.004 C 
ATOM     29  C   UNL     1     -35.528  23.549   5.885  0.00  0.00    -0.004 C 
ATOM     30  C   UNL     1     -35.650  21.774   3.737  0.00  0.00    -0.000 C 
ATOM     31  C   UNL     1     -35.007  22.261   6.014  0.00  0.00    -0.000 C 
ATOM     32  C   UNL     1     -35.068  21.373   4.939  0.00  0.00    -0.000 C 
ENDBRANCH  26  27
ENDBRANCH  24  26
ENDBRANCH  10  24
TORSDOF 8
ENDMDL
