MODEL 1
REMARK VINA RESULT:      -6.9      0.000      0.000
REMARK  Name = 54676882
REMARK  6 active torsions:
REMARK  status: ('A' for Active; 'I' for Inactive)
REMARK    1  A    between atoms: C_5  and  O_30
REMARK    2  A    between atoms: C_7  and  N_26
REMARK    3  A    between atoms: C_11  and  O_32
REMARK    4  A    between atoms: C_13  and  C_23
REMARK    5  A    between atoms: C_14  and  O_34
REMARK    6  A    between atoms: C_17  and  O_36
REMARK                            x       y       z     vdW  Elec       q    Type
REMARK                         _______ _______ _______ _____ _____    ______ ____
ROOT
ATOM      1  S   UNL     1     -33.599  23.009   0.137  0.00  0.00    -0.091 S 
ATOM      2  O   UNL     1     -34.656  24.199   4.889  0.00  0.00    -0.288 OA
ATOM      3  O   UNL     1     -37.978  27.757   0.508  0.00  0.00    -0.293 OA
ATOM      4  C   UNL     1     -35.007  26.412   2.078  0.00  0.00    +0.032 C 
ATOM      5  C   UNL     1     -35.638  25.836   3.370  0.00  0.00    +0.192 C 
ATOM      6  C   UNL     1     -34.824  25.348   0.959  0.00  0.00    +0.035 C 
ATOM      7  C   UNL     1     -35.824  27.594   1.529  0.00  0.00    +0.009 C 
ATOM      8  C   UNL     1     -34.049  24.135   1.483  0.00  0.00    +0.013 C 
ATOM      9  C   UNL     1     -34.986  24.494   3.743  0.00  0.00    +0.207 C 
ATOM     10  C   UNL     1     -34.804  23.529   2.615  0.00  0.00    +0.073 C 
ATOM     11  C   UNL     1     -37.145  25.669   3.286  0.00  0.00    +0.149 C 
ATOM     12  C   UNL     1     -37.289  27.227   1.380  0.00  0.00    +0.161 C 
ATOM     13  C   UNL     1     -37.910  26.261   2.345  0.00  0.00    +0.118 C 
ATOM     14  C   UNL     1     -35.378  22.321   2.707  0.00  0.00    +0.136 C 
ATOM     15  C   UNL     1     -35.407  21.374   1.570  0.00  0.00    +0.048 C 
ATOM     16  C   UNL     1     -34.661  21.600   0.399  0.00  0.00    +0.031 C 
ATOM     17  C   UNL     1     -36.226  20.226   1.614  0.00  0.00    +0.158 C 
ATOM     18  C   UNL     1     -34.716  20.675  -0.661  0.00  0.00    +0.006 C 
ATOM     19  C   UNL     1     -36.278  19.318   0.554  0.00  0.00    +0.007 C 
ATOM     20  C   UNL     1     -35.517  19.540  -0.584  0.00  0.00    -0.001 C 
ENDROOT
BRANCH  13  23
ATOM     21  O   UNL     1     -40.136  26.423   3.109  0.00  0.00    -0.270 OA
ATOM     22  N   UNL     1     -39.708  25.246   1.169  0.00  0.00    -0.325 N 
ATOM     23  C   UNL     1     -39.359  25.996   2.263  0.00  0.00    +0.248 C 
ATOM     24  H   UNL     1     -40.653  25.010   1.015  0.00  0.00    +0.145 HD
ATOM     25  H   UNL     1     -39.017  24.944   0.537  0.00  0.00    +0.145 HD
ENDBRANCH  13  23
BRANCH   7  26
ATOM     26  N   UNL     1     -35.762  28.781   2.379  0.00  0.00    +0.390 N 
ATOM     27  C   UNL     1     -36.279  29.949   1.668  0.00  0.00    -0.100 C 
ATOM     28  C   UNL     1     -34.388  29.021   2.823  0.00  0.00    -0.100 C 
ATOM     29  H   UNL     1     -36.344  28.618   3.201  0.00  0.00    -0.079 HD
ENDBRANCH   7  26
BRANCH   5  30
ATOM     30  O   UNL     1     -35.346  26.722   4.453  0.00  0.00    -0.373 OA
ATOM     31  H   UNL     1     -36.070  27.359   4.554  0.00  0.00    +0.211 HD
ENDBRANCH   5  30
BRANCH  11  32
ATOM     32  O   UNL     1     -37.651  24.860   4.291  0.00  0.00    -0.507 OA
ATOM     33  H   UNL     1     -37.074  24.312   4.786  0.00  0.00    +0.292 HD
ENDBRANCH  11  32
BRANCH  14  34
ATOM     34  O   UNL     1     -36.026  21.944   3.874  0.00  0.00    -0.506 OA
ATOM     35  H   UNL     1     -36.489  21.131   3.911  0.00  0.00    +0.292 HD
ENDBRANCH  14  34
BRANCH  17  36
ATOM     36  O   UNL     1     -36.996  19.898   2.698  0.00  0.00    -0.375 OA
ATOM     37  H   UNL     1     -36.590  19.580   3.480  0.00  0.00    +0.211 HD
ENDBRANCH  17  36
TORSDOF 6
ENDMDL
MODEL 2
REMARK VINA RESULT:      -6.5      3.352      6.973
REMARK  Name = 54676882
REMARK  6 active torsions:
REMARK  status: ('A' for Active; 'I' for Inactive)
REMARK    1  A    between atoms: C_5  and  O_30
REMARK    2  A    between atoms: C_7  and  N_26
REMARK    3  A    between atoms: C_11  and  O_32
REMARK    4  A    between atoms: C_13  and  C_23
REMARK    5  A    between atoms: C_14  and  O_34
REMARK    6  A    between atoms: C_17  and  O_36
REMARK                            x       y       z     vdW  Elec       q    Type
REMARK                         _______ _______ _______ _____ _____    ______ ____
ROOT
ATOM      1  S   UNL     1     -36.232  25.418   0.661  0.00  0.00    -0.091 S 
ATOM      2  O   UNL     1     -39.098  21.718   2.457  0.00  0.00    -0.288 OA
ATOM      3  O   UNL     1     -34.584  19.678  -1.829  0.00  0.00    -0.293 OA
ATOM      4  C   UNL     1     -37.397  21.663  -0.710  0.00  0.00    +0.032 C 
ATOM      5  C   UNL     1     -37.739  20.909   0.598  0.00  0.00    +0.192 C 
ATOM      6  C   UNL     1     -36.501  22.913  -0.480  0.00  0.00    +0.035 C 
ATOM      7  C   UNL     1     -36.725  20.736  -1.737  0.00  0.00    +0.009 C 
ATOM      8  C   UNL     1     -37.119  23.840   0.570  0.00  0.00    +0.013 C 
ATOM      9  C   UNL     1     -38.140  21.896   1.708  0.00  0.00    +0.207 C 
ATOM     10  C   UNL     1     -37.259  23.097   1.852  0.00  0.00    +0.073 C 
ATOM     11  C   UNL     1     -36.618  20.011   1.091  0.00  0.00    +0.149 C 
ATOM     12  C   UNL     1     -35.542  20.007  -1.127  0.00  0.00    +0.161 C 
ATOM     13  C   UNL     1     -35.575  19.630   0.325  0.00  0.00    +0.118 C 
ATOM     14  C   UNL     1     -36.660  23.312   3.033  0.00  0.00    +0.136 C 
ATOM     15  C   UNL     1     -35.634  24.362   3.215  0.00  0.00    +0.048 C 
ATOM     16  C   UNL     1     -35.375  25.325   2.223  0.00  0.00    +0.031 C 
ATOM     17  C   UNL     1     -34.848  24.402   4.387  0.00  0.00    +0.158 C 
ATOM     18  C   UNL     1     -34.390  26.308   2.434  0.00  0.00    +0.006 C 
ATOM     19  C   UNL     1     -33.868  25.377   4.584  0.00  0.00    +0.007 C 
ATOM     20  C   UNL     1     -33.642  26.336   3.608  0.00  0.00    -0.001 C 
ENDROOT
BRANCH  13  23
ATOM     21  O   UNL     1     -33.724  19.273   1.742  0.00  0.00    -0.270 OA
ATOM     22  N   UNL     1     -34.397  17.566   0.340  0.00  0.00    -0.325 N 
ATOM     23  C   UNL     1     -34.473  18.824   0.882  0.00  0.00    +0.248 C 
ATOM     24  H   UNL     1     -33.696  16.942   0.640  0.00  0.00    +0.145 HD
ATOM     25  H   UNL     1     -35.042  17.287  -0.349  0.00  0.00    +0.145 HD
ENDBRANCH  13  23
BRANCH   7  26
ATOM     26  N   UNL     1     -37.628  19.720  -2.272  0.00  0.00    +0.390 N 
ATOM     27  C   UNL     1     -36.902  18.794  -3.140  0.00  0.00    -0.100 C 
ATOM     28  C   UNL     1     -38.730  20.347  -3.003  0.00  0.00    -0.100 C 
ATOM     29  H   UNL     1     -38.018  19.192  -1.491  0.00  0.00    -0.079 HD
ENDBRANCH   7  26
BRANCH   5  30
ATOM     30  O   UNL     1     -38.894  20.098   0.368  0.00  0.00    -0.373 OA
ATOM     31  H   UNL     1     -38.615  19.205   0.112  0.00  0.00    +0.211 HD
ENDBRANCH   5  30
BRANCH  11  32
ATOM     32  O   UNL     1     -36.793  19.609   2.405  0.00  0.00    -0.507 OA
ATOM     33  H   UNL     1     -36.053  19.545   2.978  0.00  0.00    +0.292 HD
ENDBRANCH  11  32
BRANCH  14  34
ATOM     34  O   UNL     1     -36.949  22.500   4.119  0.00  0.00    -0.506 OA
ATOM     35  H   UNL     1     -37.811  22.152   4.227  0.00  0.00    +0.292 HD
ENDBRANCH  14  34
BRANCH  17  36
ATOM     36  O   UNL     1     -35.007  23.521   5.423  0.00  0.00    -0.375 OA
ATOM     37  H   UNL     1     -34.775  23.775   6.294  0.00  0.00    +0.211 HD
ENDBRANCH  17  36
TORSDOF 6
ENDMDL
MODEL 3
REMARK VINA RESULT:      -6.4      2.704      6.395
REMARK  Name = 54676882
REMARK  6 active torsions:
REMARK  status: ('A' for Active; 'I' for Inactive)
REMARK    1  A    between atoms: C_5  and  O_30
REMARK    2  A    between atoms: C_7  and  N_26
REMARK    3  A    between atoms: C_11  and  O_32
REMARK    4  A    between atoms: C_13  and  C_23
REMARK    5  A    between atoms: C_14  and  O_34
REMARK    6  A    between atoms: C_17  and  O_36
REMARK                            x       y       z     vdW  Elec       q    Type
REMARK                         _______ _______ _______ _____ _____    ______ ____
ROOT
ATOM      1  S   UNL     1     -32.674  26.022   0.533  0.00  0.00    -0.091 S 
ATOM      2  O   UNL     1     -37.266  26.619   2.452  0.00  0.00    -0.288 OA
ATOM      3  O   UNL     1     -34.860  20.582   3.271  0.00  0.00    -0.293 OA
ATOM      4  C   UNL     1     -35.872  23.489   1.365  0.00  0.00    +0.032 C 
ATOM      5  C   UNL     1     -36.646  24.259   2.462  0.00  0.00    +0.192 C 
ATOM      6  C   UNL     1     -34.402  23.968   1.201  0.00  0.00    +0.035 C 
ATOM      7  C   UNL     1     -35.888  21.972   1.621  0.00  0.00    +0.009 C 
ATOM      8  C   UNL     1     -34.344  25.483   0.986  0.00  0.00    +0.013 C 
ATOM      9  C   UNL     1     -36.382  25.771   2.356  0.00  0.00    +0.207 C 
ATOM     10  C   UNL     1     -34.952  26.164   2.162  0.00  0.00    +0.073 C 
ATOM     11  C   UNL     1     -36.336  23.781   3.870  0.00  0.00    +0.149 C 
ATOM     12  C   UNL     1     -35.429  21.648   3.030  0.00  0.00    +0.161 C 
ATOM     13  C   UNL     1     -35.731  22.607   4.144  0.00  0.00    +0.118 C 
ATOM     14  C   UNL     1     -34.383  26.977   3.066  0.00  0.00    +0.136 C 
ATOM     15  C   UNL     1     -32.933  27.271   3.058  0.00  0.00    +0.048 C 
ATOM     16  C   UNL     1     -32.105  26.883   1.989  0.00  0.00    +0.031 C 
ATOM     17  C   UNL     1     -32.327  27.918   4.155  0.00  0.00    +0.158 C 
ATOM     18  C   UNL     1     -30.729  27.181   2.019  0.00  0.00    +0.006 C 
ATOM     19  C   UNL     1     -30.960  28.204   4.178  0.00  0.00    +0.007 C 
ATOM     20  C   UNL     1     -30.161  27.839   3.105  0.00  0.00    -0.001 C 
ENDROOT
BRANCH  13  23
ATOM     21  O   UNL     1     -34.907  23.049   6.310  0.00  0.00    -0.270 OA
ATOM     22  N   UNL     1     -35.642  20.917   5.813  0.00  0.00    -0.325 N 
ATOM     23  C   UNL     1     -35.381  22.233   5.527  0.00  0.00    +0.248 C 
ATOM     24  H   UNL     1     -35.446  20.559   6.710  0.00  0.00    +0.145 HD
ATOM     25  H   UNL     1     -36.025  20.330   5.122  0.00  0.00    +0.145 HD
ENDBRANCH  13  23
BRANCH   7  26
ATOM     26  N   UNL     1     -37.210  21.374   1.450  0.00  0.00    +0.390 N 
ATOM     27  C   UNL     1     -37.133  19.919   1.568  0.00  0.00    -0.100 C 
ATOM     28  C   UNL     1     -37.780  21.751   0.156  0.00  0.00    -0.100 C 
ATOM     29  H   UNL     1     -37.820  21.727   2.187  0.00  0.00    -0.079 HD
ENDBRANCH   7  26
BRANCH   5  30
ATOM     30  O   UNL     1     -38.047  24.094   2.232  0.00  0.00    -0.373 OA
ATOM     31  H   UNL     1     -38.411  24.910   1.854  0.00  0.00    +0.211 HD
ENDBRANCH   5  30
BRANCH  11  32
ATOM     32  O   UNL     1     -36.761  24.672   4.843  0.00  0.00    -0.507 OA
ATOM     33  H   UNL     1     -36.175  25.329   5.164  0.00  0.00    +0.292 HD
ENDBRANCH  11  32
BRANCH  14  34
ATOM     34  O   UNL     1     -35.145  27.524   4.087  0.00  0.00    -0.506 OA
ATOM     35  H   UNL     1     -35.484  26.973   4.765  0.00  0.00    +0.292 HD
ENDBRANCH  14  34
BRANCH  17  36
ATOM     36  O   UNL     1     -33.028  28.344   5.251  0.00  0.00    -0.375 OA
ATOM     37  H   UNL     1     -33.617  27.760   5.686  0.00  0.00    +0.211 HD
ENDBRANCH  17  36
TORSDOF 6
ENDMDL
MODEL 4
REMARK VINA RESULT:      -6.4      4.429      7.619
REMARK  Name = 54676882
REMARK  6 active torsions:
REMARK  status: ('A' for Active; 'I' for Inactive)
REMARK    1  A    between atoms: C_5  and  O_30
REMARK    2  A    between atoms: C_7  and  N_26
REMARK    3  A    between atoms: C_11  and  O_32
REMARK    4  A    between atoms: C_13  and  C_23
REMARK    5  A    between atoms: C_14  and  O_34
REMARK    6  A    between atoms: C_17  and  O_36
REMARK                            x       y       z     vdW  Elec       q    Type
REMARK                         _______ _______ _______ _____ _____    ______ ____
ROOT
ATOM      1  S   UNL     1     -35.260  24.125   1.491  0.00  0.00    -0.091 S 
ATOM      2  O   UNL     1     -37.164  19.613   0.425  0.00  0.00    -0.288 OA
ATOM      3  O   UNL     1     -30.863  20.248  -1.248  0.00  0.00    -0.293 OA
ATOM      4  C   UNL     1     -34.375  21.129  -1.261  0.00  0.00    +0.032 C 
ATOM      5  C   UNL     1     -34.960  19.862  -0.591  0.00  0.00    +0.192 C 
ATOM      6  C   UNL     1     -34.147  22.299  -0.263  0.00  0.00    +0.035 C 
ATOM      7  C   UNL     1     -33.059  20.823  -1.997  0.00  0.00    +0.009 C 
ATOM      8  C   UNL     1     -35.427  22.605   0.519  0.00  0.00    +0.013 C 
ATOM      9  C   UNL     1     -36.103  20.231   0.368  0.00  0.00    +0.207 C 
ATOM     10  C   UNL     1     -35.835  21.390   1.276  0.00  0.00    +0.073 C 
ATOM     11  C   UNL     1     -33.922  19.030   0.142  0.00  0.00    +0.149 C 
ATOM     12  C   UNL     1     -32.076  20.105  -1.090  0.00  0.00    +0.161 C 
ATOM     13  C   UNL     1     -32.592  19.167  -0.038  0.00  0.00    +0.118 C 
ATOM     14  C   UNL     1     -35.908  21.194   2.601  0.00  0.00    +0.136 C 
ATOM     15  C   UNL     1     -35.482  22.225   3.574  0.00  0.00    +0.048 C 
ATOM     16  C   UNL     1     -35.172  23.537   3.173  0.00  0.00    +0.031 C 
ATOM     17  C   UNL     1     -35.334  21.905   4.940  0.00  0.00    +0.158 C 
ATOM     18  C   UNL     1     -34.771  24.490   4.129  0.00  0.00    +0.006 C 
ATOM     19  C   UNL     1     -34.929  22.855   5.879  0.00  0.00    +0.007 C 
ATOM     20  C   UNL     1     -34.652  24.152   5.474  0.00  0.00    -0.001 C 
ENDROOT
BRANCH  13  23
ATOM     21  O   UNL     1     -31.930  17.936   1.862  0.00  0.00    -0.270 OA
ATOM     22  N   UNL     1     -30.411  18.242   0.150  0.00  0.00    -0.325 N 
ATOM     23  C   UNL     1     -31.629  18.389   0.763  0.00  0.00    +0.248 C 
ATOM     24  H   UNL     1     -29.692  17.738   0.597  0.00  0.00    +0.145 HD
ATOM     25  H   UNL     1     -30.255  18.640  -0.737  0.00  0.00    +0.145 HD
ENDBRANCH  13  23
BRANCH   7  26
ATOM     26  N   UNL     1     -33.242  19.987  -3.180  0.00  0.00    +0.390 N 
ATOM     27  C   UNL     1     -31.949  19.628  -3.761  0.00  0.00    -0.100 C 
ATOM     28  C   UNL     1     -34.072  20.675  -4.170  0.00  0.00    -0.100 C 
ATOM     29  H   UNL     1     -33.719  19.130  -2.898  0.00  0.00    -0.079 HD
ENDBRANCH   7  26
BRANCH   5  30
ATOM     30  O   UNL     1     -35.553  19.045  -1.604  0.00  0.00    -0.373 OA
ATOM     31  H   UNL     1     -36.050  18.325  -1.187  0.00  0.00    +0.211 HD
ENDBRANCH   5  30
BRANCH  11  32
ATOM     32  O   UNL     1     -34.489  18.103   1.001  0.00  0.00    -0.507 OA
ATOM     33  H   UNL     1     -33.994  17.771   1.725  0.00  0.00    +0.292 HD
ENDBRANCH  11  32
BRANCH  14  34
ATOM     34  O   UNL     1     -36.333  19.974   3.103  0.00  0.00    -0.506 OA
ATOM     35  H   UNL     1     -37.246  19.762   3.108  0.00  0.00    +0.292 HD
ENDBRANCH  14  34
BRANCH  17  36
ATOM     36  O   UNL     1     -35.607  20.664   5.450  0.00  0.00    -0.375 OA
ATOM     37  H   UNL     1     -36.488  20.346   5.463  0.00  0.00    +0.211 HD
ENDBRANCH  17  36
TORSDOF 6
ENDMDL
MODEL 5
REMARK VINA RESULT:      -6.3      2.226      3.195
REMARK  Name = 54676882
REMARK  6 active torsions:
REMARK  status: ('A' for Active; 'I' for Inactive)
REMARK    1  A    between atoms: C_5  and  O_30
REMARK    2  A    between atoms: C_7  and  N_26
REMARK    3  A    between atoms: C_11  and  O_32
REMARK    4  A    between atoms: C_13  and  C_23
REMARK    5  A    between atoms: C_14  and  O_34
REMARK    6  A    between atoms: C_17  and  O_36
REMARK                            x       y       z     vdW  Elec       q    Type
REMARK                         _______ _______ _______ _____ _____    ______ ____
ROOT
ATOM      1  S   UNL     1     -34.331  24.309   0.524  0.00  0.00    -0.091 S 
ATOM      2  O   UNL     1     -37.437  25.097   4.377  0.00  0.00    -0.288 OA
ATOM      3  O   UNL     1     -40.423  25.232  -1.451  0.00  0.00    -0.293 OA
ATOM      4  C   UNL     1     -37.978  26.253   1.017  0.00  0.00    +0.032 C 
ATOM      5  C   UNL     1     -38.572  25.561   2.268  0.00  0.00    +0.192 C 
ATOM      6  C   UNL     1     -36.854  25.425   0.334  0.00  0.00    +0.035 C 
ATOM      7  C   UNL     1     -39.069  26.583  -0.017  0.00  0.00    +0.009 C 
ATOM      8  C   UNL     1     -35.769  25.043   1.345  0.00  0.00    +0.013 C 
ATOM      9  C   UNL     1     -37.455  24.985   3.154  0.00  0.00    +0.207 C 
ATOM     10  C   UNL     1     -36.383  24.231   2.432  0.00  0.00    +0.073 C 
ATOM     11  C   UNL     1     -39.579  24.472   1.938  0.00  0.00    +0.149 C 
ATOM     12  C   UNL     1     -39.907  25.360  -0.339  0.00  0.00    +0.161 C 
ATOM     13  C   UNL     1     -40.161  24.337   0.729  0.00  0.00    +0.118 C 
ATOM     14  C   UNL     1     -36.163  22.951   2.769  0.00  0.00    +0.136 C 
ATOM     15  C   UNL     1     -35.257  22.076   1.992  0.00  0.00    +0.048 C 
ATOM     16  C   UNL     1     -34.421  22.587   0.982  0.00  0.00    +0.031 C 
ATOM     17  C   UNL     1     -35.238  20.684   2.216  0.00  0.00    +0.158 C 
ATOM     18  C   UNL     1     -33.574  21.722   0.264  0.00  0.00    +0.006 C 
ATOM     19  C   UNL     1     -34.398  19.833   1.494  0.00  0.00    +0.007 C 
ATOM     20  C   UNL     1     -33.560  20.354   0.520  0.00  0.00    -0.001 C 
ENDROOT
BRANCH  13  23
ATOM     21  O   UNL     1     -40.695  22.047   0.537  0.00  0.00    -0.270 OA
ATOM     22  N   UNL     1     -42.327  23.612   0.071  0.00  0.00    -0.325 N 
ATOM     23  C   UNL     1     -41.069  23.210   0.441  0.00  0.00    +0.248 C 
ATOM     24  H   UNL     1     -43.015  22.941  -0.144  0.00  0.00    +0.145 HD
ATOM     25  H   UNL     1     -42.543  24.571   0.020  0.00  0.00    +0.145 HD
ENDBRANCH  13  23
BRANCH   7  26
ATOM     26  N   UNL     1     -39.986  27.630   0.427  0.00  0.00    +0.390 N 
ATOM     27  C   UNL     1     -41.374  27.201   0.259  0.00  0.00    -0.100 C 
ATOM     28  C   UNL     1     -39.743  28.870  -0.311  0.00  0.00    -0.100 C 
ATOM     29  H   UNL     1     -39.818  27.805   1.418  0.00  0.00    -0.079 HD
ENDBRANCH   7  26
BRANCH   5  30
ATOM     30  O   UNL     1     -39.228  26.549   3.067  0.00  0.00    -0.373 OA
ATOM     31  H   UNL     1     -40.116  26.712   2.714  0.00  0.00    +0.211 HD
ENDBRANCH   5  30
BRANCH  11  32
ATOM     32  O   UNL     1     -39.848  23.647   3.018  0.00  0.00    -0.507 OA
ATOM     33  H   UNL     1     -39.761  23.976   3.891  0.00  0.00    +0.292 HD
ENDBRANCH  11  32
BRANCH  14  34
ATOM     34  O   UNL     1     -36.839  22.387   3.840  0.00  0.00    -0.506 OA
ATOM     35  H   UNL     1     -37.714  22.658   4.036  0.00  0.00    +0.292 HD
ENDBRANCH  14  34
BRANCH  17  36
ATOM     36  O   UNL     1     -36.004  20.071   3.171  0.00  0.00    -0.375 OA
ATOM     37  H   UNL     1     -36.844  20.421   3.393  0.00  0.00    +0.211 HD
ENDBRANCH  17  36
TORSDOF 6
ENDMDL
MODEL 6
REMARK VINA RESULT:      -6.2      2.839      6.702
REMARK  Name = 54676882
REMARK  6 active torsions:
REMARK  status: ('A' for Active; 'I' for Inactive)
REMARK    1  A    between atoms: C_5  and  O_30
REMARK    2  A    between atoms: C_7  and  N_26
REMARK    3  A    between atoms: C_11  and  O_32
REMARK    4  A    between atoms: C_13  and  C_23
REMARK    5  A    between atoms: C_14  and  O_34
REMARK    6  A    between atoms: C_17  and  O_36
REMARK                            x       y       z     vdW  Elec       q    Type
REMARK                         _______ _______ _______ _____ _____    ______ ____
ROOT
ATOM      1  S   UNL     1     -37.894  27.086  -0.224  0.00  0.00    -0.091 S 
ATOM      2  O   UNL     1     -39.755  24.511   3.651  0.00  0.00    -0.288 OA
ATOM      3  O   UNL     1     -36.468  20.787  -0.618  0.00  0.00    -0.293 OA
ATOM      4  C   UNL     1     -39.027  23.131   0.413  0.00  0.00    +0.032 C 
ATOM      5  C   UNL     1     -38.908  22.982   1.949  0.00  0.00    +0.192 C 
ATOM      6  C   UNL     1     -38.229  24.342  -0.148  0.00  0.00    +0.035 C 
ATOM      7  C   UNL     1     -38.587  21.849  -0.315  0.00  0.00    +0.009 C 
ATOM      8  C   UNL     1     -38.612  25.632   0.584  0.00  0.00    +0.013 C 
ATOM      9  C   UNL     1     -39.072  24.344   2.644  0.00  0.00    +0.207 C 
ATOM     10  C   UNL     1     -38.308  25.476   2.033  0.00  0.00    +0.073 C 
ATOM     11  C   UNL     1     -37.611  22.330   2.397  0.00  0.00    +0.149 C 
ATOM     12  C   UNL     1     -37.215  21.398   0.148  0.00  0.00    +0.161 C 
ATOM     13  C   UNL     1     -36.797  21.643   1.568  0.00  0.00    +0.118 C 
ATOM     14  C   UNL     1     -37.422  26.135   2.795  0.00  0.00    +0.136 C 
ATOM     15  C   UNL     1     -36.494  27.141   2.233  0.00  0.00    +0.048 C 
ATOM     16  C   UNL     1     -36.623  27.611   0.913  0.00  0.00    +0.031 C 
ATOM     17  C   UNL     1     -35.416  27.630   3.000  0.00  0.00    +0.158 C 
ATOM     18  C   UNL     1     -35.719  28.568   0.414  0.00  0.00    +0.006 C 
ATOM     19  C   UNL     1     -34.521  28.575   2.493  0.00  0.00    +0.007 C 
ATOM     20  C   UNL     1     -34.676  29.049   1.200  0.00  0.00    -0.001 C 
ENDROOT
BRANCH  13  23
ATOM     21  O   UNL     1     -35.447  20.342   3.000  0.00  0.00    -0.270 OA
ATOM     22  N   UNL     1     -34.438  21.540   1.303  0.00  0.00    -0.325 N 
ATOM     23  C   UNL     1     -35.509  21.103   2.041  0.00  0.00    +0.248 C 
ATOM     24  H   UNL     1     -33.527  21.240   1.532  0.00  0.00    +0.145 HD
ATOM     25  H   UNL     1     -34.578  22.153   0.546  0.00  0.00    +0.145 HD
ENDBRANCH  13  23
BRANCH   7  26
ATOM     26  N   UNL     1     -39.501  20.729  -0.109  0.00  0.00    +0.390 N 
ATOM     27  C   UNL     1     -38.984  19.520  -0.750  0.00  0.00    -0.100 C 
ATOM     28  C   UNL     1     -40.832  21.051  -0.627  0.00  0.00    -0.100 C 
ATOM     29  H   UNL     1     -39.578  20.556   0.893  0.00  0.00    -0.079 HD
ENDBRANCH   7  26
BRANCH   5  30
ATOM     30  O   UNL     1     -39.996  22.178   2.414  0.00  0.00    -0.373 OA
ATOM     31  H   UNL     1     -39.898  22.021   3.366  0.00  0.00    +0.211 HD
ENDBRANCH   5  30
BRANCH  11  32
ATOM     32  O   UNL     1     -37.365  22.500   3.749  0.00  0.00    -0.507 OA
ATOM     33  H   UNL     1     -36.678  22.017   4.164  0.00  0.00    +0.292 HD
ENDBRANCH  11  32
BRANCH  14  34
ATOM     34  O   UNL     1     -37.310  25.840   4.145  0.00  0.00    -0.506 OA
ATOM     35  H   UNL     1     -37.990  26.092   4.738  0.00  0.00    +0.292 HD
ENDBRANCH  14  34
BRANCH  17  36
ATOM     36  O   UNL     1     -35.188  27.249   4.295  0.00  0.00    -0.375 OA
ATOM     37  H   UNL     1     -35.909  27.120   4.879  0.00  0.00    +0.211 HD
ENDBRANCH  17  36
TORSDOF 6
ENDMDL
MODEL 7
REMARK VINA RESULT:      -6.2      2.627      3.786
REMARK  Name = 54676882
REMARK  6 active torsions:
REMARK  status: ('A' for Active; 'I' for Inactive)
REMARK    1  A    between atoms: C_5  and  O_30
REMARK    2  A    between atoms: C_7  and  N_26
REMARK    3  A    between atoms: C_11  and  O_32
REMARK    4  A    between atoms: C_13  and  C_23
REMARK    5  A    between atoms: C_14  and  O_34
REMARK    6  A    between atoms: C_17  and  O_36
REMARK                            x       y       z     vdW  Elec       q    Type
REMARK                         _______ _______ _______ _____ _____    ______ ____
ROOT
ATOM      1  S   UNL     1     -35.597  22.642   0.809  0.00  0.00    -0.091 S 
ATOM      2  O   UNL     1     -34.619  24.626   5.307  0.00  0.00    -0.288 OA
ATOM      3  O   UNL     1     -33.598  28.778   0.345  0.00  0.00    -0.293 OA
ATOM      4  C   UNL     1     -33.152  25.707   2.208  0.00  0.00    +0.032 C 
ATOM      5  C   UNL     1     -33.833  26.112   3.538  0.00  0.00    +0.192 C 
ATOM      6  C   UNL     1     -34.092  24.920   1.254  0.00  0.00    +0.035 C 
ATOM      7  C   UNL     1     -32.582  26.930   1.470  0.00  0.00    +0.009 C 
ATOM      8  C   UNL     1     -34.711  23.715   1.970  0.00  0.00    +0.013 C 
ATOM      9  C   UNL     1     -34.638  24.937   4.118  0.00  0.00    +0.207 C 
ATOM     10  C   UNL     1     -35.495  24.197   3.140  0.00  0.00    +0.073 C 
ATOM     11  C   UNL     1     -34.725  27.335   3.414  0.00  0.00    +0.149 C 
ATOM     12  C   UNL     1     -33.634  28.013   1.310  0.00  0.00    +0.161 C 
ATOM     13  C   UNL     1     -34.680  28.189   2.371  0.00  0.00    +0.118 C 
ATOM     14  C   UNL     1     -36.814  24.125   3.372  0.00  0.00    +0.136 C 
ATOM     15  C   UNL     1     -37.760  23.576   2.374  0.00  0.00    +0.048 C 
ATOM     16  C   UNL     1     -37.313  22.915   1.216  0.00  0.00    +0.031 C 
ATOM     17  C   UNL     1     -39.151  23.741   2.539  0.00  0.00    +0.158 C 
ATOM     18  C   UNL     1     -38.244  22.408   0.290  0.00  0.00    +0.006 C 
ATOM     19  C   UNL     1     -40.067  23.240   1.611  0.00  0.00    +0.007 C 
ATOM     20  C   UNL     1     -39.613  22.567   0.487  0.00  0.00    -0.001 C 
ENDROOT
BRANCH  13  23
ATOM     21  O   UNL     1     -36.542  29.304   1.447  0.00  0.00    -0.270 OA
ATOM     22  N   UNL     1     -35.369  30.324   3.155  0.00  0.00    -0.325 N 
ATOM     23  C   UNL     1     -35.628  29.313   2.264  0.00  0.00    +0.248 C 
ATOM     24  H   UNL     1     -35.942  31.125   3.171  0.00  0.00    +0.145 HD
ATOM     25  H   UNL     1     -34.611  30.248   3.778  0.00  0.00    +0.145 HD
ENDBRANCH  13  23
BRANCH   7  26
ATOM     26  N   UNL     1     -31.441  27.535   2.152  0.00  0.00    +0.390 N 
ATOM     27  C   UNL     1     -31.100  28.819   1.541  0.00  0.00    -0.100 C 
ATOM     28  C   UNL     1     -30.289  26.634   2.120  0.00  0.00    -0.100 C 
ATOM     29  H   UNL     1     -31.698  27.698   3.126  0.00  0.00    -0.079 HD
ENDBRANCH   7  26
BRANCH   5  30
ATOM     30  O   UNL     1     -32.816  26.396   4.503  0.00  0.00    -0.373 OA
ATOM     31  H   UNL     1     -32.965  27.277   4.879  0.00  0.00    +0.211 HD
ENDBRANCH   5  30
BRANCH  11  32
ATOM     32  O   UNL     1     -35.575  27.489   4.498  0.00  0.00    -0.507 OA
ATOM     33  H   UNL     1     -36.117  28.251   4.562  0.00  0.00    +0.292 HD
ENDBRANCH  11  32
BRANCH  14  34
ATOM     34  O   UNL     1     -37.343  24.628   4.550  0.00  0.00    -0.506 OA
ATOM     35  H   UNL     1     -36.812  25.155   5.114  0.00  0.00    +0.292 HD
ENDBRANCH  14  34
BRANCH  17  36
ATOM     36  O   UNL     1     -39.706  24.365   3.624  0.00  0.00    -0.375 OA
ATOM     37  H   UNL     1     -39.155  24.782   4.257  0.00  0.00    +0.211 HD
ENDBRANCH  17  36
TORSDOF 6
ENDMDL
MODEL 8
REMARK VINA RESULT:      -6.2      2.853      5.682
REMARK  Name = 54676882
REMARK  6 active torsions:
REMARK  status: ('A' for Active; 'I' for Inactive)
REMARK    1  A    between atoms: C_5  and  O_30
REMARK    2  A    between atoms: C_7  and  N_26
REMARK    3  A    between atoms: C_11  and  O_32
REMARK    4  A    between atoms: C_13  and  C_23
REMARK    5  A    between atoms: C_14  and  O_34
REMARK    6  A    between atoms: C_17  and  O_36
REMARK                            x       y       z     vdW  Elec       q    Type
REMARK                         _______ _______ _______ _____ _____    ______ ____
ROOT
ATOM      1  S   UNL     1     -34.694  28.137   0.407  0.00  0.00    -0.091 S 
ATOM      2  O   UNL     1     -35.237  26.575   5.138  0.00  0.00    -0.288 OA
ATOM      3  O   UNL     1     -37.524  22.327   0.709  0.00  0.00    -0.293 OA
ATOM      4  C   UNL     1     -37.281  25.534   2.371  0.00  0.00    +0.032 C 
ATOM      5  C   UNL     1     -36.467  25.114   3.619  0.00  0.00    +0.192 C 
ATOM      6  C   UNL     1     -36.400  26.124   1.235  0.00  0.00    +0.035 C 
ATOM      7  C   UNL     1     -38.110  24.361   1.817  0.00  0.00    +0.009 C 
ATOM      8  C   UNL     1     -35.529  27.268   1.760  0.00  0.00    +0.013 C 
ATOM      9  C   UNL     1     -35.437  26.196   3.987  0.00  0.00    +0.207 C 
ATOM     10  C   UNL     1     -34.648  26.750   2.843  0.00  0.00    +0.073 C 
ATOM     11  C   UNL     1     -35.771  23.773   3.467  0.00  0.00    +0.149 C 
ATOM     12  C   UNL     1     -37.245  23.134   1.596  0.00  0.00    +0.161 C 
ATOM     13  C   UNL     1     -36.083  22.875   2.510  0.00  0.00    +0.118 C 
ATOM     14  C   UNL     1     -33.311  26.649   2.880  0.00  0.00    +0.136 C 
ATOM     15  C   UNL     1     -32.462  27.000   1.720  0.00  0.00    +0.048 C 
ATOM     16  C   UNL     1     -32.987  27.650   0.588  0.00  0.00    +0.031 C 
ATOM     17  C   UNL     1     -31.095  26.651   1.700  0.00  0.00    +0.158 C 
ATOM     18  C   UNL     1     -32.147  27.966  -0.496  0.00  0.00    +0.006 C 
ATOM     19  C   UNL     1     -30.272  26.964   0.616  0.00  0.00    +0.007 C 
ATOM     20  C   UNL     1     -30.797  27.628  -0.482  0.00  0.00    -0.001 C 
ENDROOT
BRANCH  13  23
ATOM     21  O   UNL     1     -35.353  20.745   3.212  0.00  0.00    -0.270 OA
ATOM     22  N   UNL     1     -34.592  21.572   1.195  0.00  0.00    -0.325 N 
ATOM     23  C   UNL     1     -35.317  21.624   2.359  0.00  0.00    +0.248 C 
ATOM     24  H   UNL     1     -34.043  20.780   0.991  0.00  0.00    +0.145 HD
ATOM     25  H   UNL     1     -34.621  22.326   0.563  0.00  0.00    +0.145 HD
ENDBRANCH  13  23
BRANCH   7  26
ATOM     26  N   UNL     1     -39.205  23.964   2.698  0.00  0.00    +0.390 N 
ATOM     27  C   UNL     1     -39.929  22.825   2.135  0.00  0.00    -0.100 C 
ATOM     28  C   UNL     1     -40.116  25.087   2.923  0.00  0.00    -0.100 C 
ATOM     29  H   UNL     1     -38.810  23.684   3.596  0.00  0.00    -0.079 HD
ENDBRANCH   7  26
BRANCH   5  30
ATOM     30  O   UNL     1     -37.356  25.032   4.736  0.00  0.00    -0.373 OA
ATOM     31  H   UNL     1     -37.680  24.123   4.826  0.00  0.00    +0.211 HD
ENDBRANCH   5  30
BRANCH  11  32
ATOM     32  O   UNL     1     -34.796  23.564   4.428  0.00  0.00    -0.507 OA
ATOM     33  H   UNL     1     -34.693  24.175   5.132  0.00  0.00    +0.292 HD
ENDBRANCH  11  32
BRANCH  14  34
ATOM     34  O   UNL     1     -32.681  26.146   4.009  0.00  0.00    -0.506 OA
ATOM     35  H   UNL     1     -32.124  25.396   3.938  0.00  0.00    +0.292 HD
ENDBRANCH  14  34
BRANCH  17  36
ATOM     36  O   UNL     1     -30.470  26.019   2.741  0.00  0.00    -0.375 OA
ATOM     37  H   UNL     1     -30.464  26.413   3.592  0.00  0.00    +0.211 HD
ENDBRANCH  17  36
TORSDOF 6
ENDMDL
MODEL 9
REMARK VINA RESULT:      -6.2      2.846      4.130
REMARK  Name = 54676882
REMARK  6 active torsions:
REMARK  status: ('A' for Active; 'I' for Inactive)
REMARK    1  A    between atoms: C_5  and  O_30
REMARK    2  A    between atoms: C_7  and  N_26
REMARK    3  A    between atoms: C_11  and  O_32
REMARK    4  A    between atoms: C_13  and  C_23
REMARK    5  A    between atoms: C_14  and  O_34
REMARK    6  A    between atoms: C_17  and  O_36
REMARK                            x       y       z     vdW  Elec       q    Type
REMARK                         _______ _______ _______ _____ _____    ______ ____
ROOT
ATOM      1  S   UNL     1     -34.094  23.929   0.198  0.00  0.00    -0.091 S 
ATOM      2  O   UNL     1     -37.037  22.905   4.124  0.00  0.00    -0.288 OA
ATOM      3  O   UNL     1     -40.300  23.356  -1.537  0.00  0.00    -0.293 OA
ATOM      4  C   UNL     1     -38.114  24.525   1.101  0.00  0.00    +0.032 C 
ATOM      5  C   UNL     1     -38.393  23.437   2.167  0.00  0.00    +0.192 C 
ATOM      6  C   UNL     1     -36.841  24.240   0.254  0.00  0.00    +0.035 C 
ATOM      7  C   UNL     1     -39.318  24.718   0.163  0.00  0.00    +0.009 C 
ATOM      8  C   UNL     1     -35.629  24.001   1.159  0.00  0.00    +0.013 C 
ATOM      9  C   UNL     1     -37.100  23.053   2.906  0.00  0.00    +0.207 C 
ATOM     10  C   UNL     1     -35.902  22.830   2.038  0.00  0.00    +0.073 C 
ATOM     11  C   UNL     1     -39.051  22.190   1.602  0.00  0.00    +0.149 C 
ATOM     12  C   UNL     1     -39.775  23.395  -0.423  0.00  0.00    +0.161 C 
ATOM     13  C   UNL     1     -39.645  22.142   0.391  0.00  0.00    +0.118 C 
ATOM     14  C   UNL     1     -35.292  21.637   2.084  0.00  0.00    +0.136 C 
ATOM     15  C   UNL     1     -34.220  21.263   1.135  0.00  0.00    +0.048 C 
ATOM     16  C   UNL     1     -33.640  22.204   0.265  0.00  0.00    +0.031 C 
ATOM     17  C   UNL     1     -33.774  19.927   1.046  0.00  0.00    +0.158 C 
ATOM     18  C   UNL     1     -32.623  21.809  -0.624  0.00  0.00    +0.006 C 
ATOM     19  C   UNL     1     -32.769  19.545   0.156  0.00  0.00    +0.007 C 
ATOM     20  C   UNL     1     -32.188  20.488  -0.677  0.00  0.00    -0.001 C 
ENDROOT
BRANCH  13  23
ATOM     21  O   UNL     1     -39.480  19.904  -0.336  0.00  0.00    -0.270 OA
ATOM     22  N   UNL     1     -41.545  20.937  -0.374  0.00  0.00    -0.325 N 
ATOM     23  C   UNL     1     -40.194  20.881  -0.140  0.00  0.00    +0.248 C 
ATOM     24  H   UNL     1     -42.016  20.149  -0.730  0.00  0.00    +0.145 HD
ATOM     25  H   UNL     1     -42.043  21.765  -0.187  0.00  0.00    +0.145 HD
ENDBRANCH  13  23
BRANCH   7  26
ATOM     26  N   UNL     1     -40.473  25.319   0.825  0.00  0.00    +0.390 N 
ATOM     27  C   UNL     1     -41.630  25.325  -0.068  0.00  0.00    -0.100 C 
ATOM     28  C   UNL     1     -40.161  26.680   1.265  0.00  0.00    -0.100 C 
ATOM     29  H   UNL     1     -40.700  24.758   1.646  0.00  0.00    -0.079 HD
ENDBRANCH   7  26
BRANCH   5  30
ATOM     30  O   UNL     1     -39.259  23.987   3.163  0.00  0.00    -0.373 OA
ATOM     31  H   UNL     1     -39.441  24.916   2.955  0.00  0.00    +0.211 HD
ENDBRANCH   5  30
BRANCH  11  32
ATOM     32  O   UNL     1     -38.993  21.113   2.472  0.00  0.00    -0.507 OA
ATOM     33  H   UNL     1     -38.185  20.896   2.895  0.00  0.00    +0.292 HD
ENDBRANCH  11  32
BRANCH  14  34
ATOM     34  O   UNL     1     -35.699  20.681   3.003  0.00  0.00    -0.506 OA
ATOM     35  H   UNL     1     -35.671  19.773   2.777  0.00  0.00    +0.292 HD
ENDBRANCH  14  34
BRANCH  17  36
ATOM     36  O   UNL     1     -34.260  18.924   1.840  0.00  0.00    -0.375 OA
ATOM     37  H   UNL     1     -34.114  18.028   1.606  0.00  0.00    +0.211 HD
ENDBRANCH  17  36
TORSDOF 6
ENDMDL
