MODEL 1
REMARK VINA RESULT:      -7.4      0.000      0.000
REMARK  Name = 5488285
REMARK  7 active torsions:
REMARK  status: ('A' for Active; 'I' for Inactive)
REMARK    1  A    between atoms: O_1  and  C_4
REMARK    2  A    between atoms: O_1  and  C_21
REMARK    3  A    between atoms: C_18  and  O_23
REMARK    4  A    between atoms: C_19  and  O_25
REMARK    5  A    between atoms: C_20  and  O_27
REMARK    6  A    between atoms: C_22  and  C_30
REMARK    7  A    between atoms: C_30  and  O_31
REMARK                            x       y       z     vdW  Elec       q    Type
REMARK                         _______ _______ _______ _____ _____    ______ ____
ROOT
ATOM      1  O   UNL     1     -35.899  22.443   2.728  0.00  0.00    -0.451 OA
ENDROOT
BRANCH   1   4
ATOM      2  N   UNL     1     -33.519  26.676   3.280  0.00  0.00    -0.352 N 
ATOM      3  N   UNL     1     -31.985  28.965   5.733  0.00  0.00    -0.247 NA
ATOM      4  C   UNL     1     -35.283  23.410   3.475  0.00  0.00    +0.143 C 
ATOM      5  C   UNL     1     -34.126  25.493   3.633  0.00  0.00    +0.060 A 
ATOM      6  C   UNL     1     -34.029  25.376   5.020  0.00  0.00    +0.017 A 
ATOM      7  C   UNL     1     -33.339  26.534   5.499  0.00  0.00    +0.020 A 
ATOM      8  C   UNL     1     -34.747  24.527   2.833  0.00  0.00    +0.054 C 
ATOM      9  C   UNL     1     -33.037  27.324   4.391  0.00  0.00    +0.070 A 
ATOM     10  C   UNL     1     -35.204  23.261   4.855  0.00  0.00    +0.037 C 
ATOM     11  C   UNL     1     -34.579  24.235   5.641  0.00  0.00    +0.005 C 
ATOM     12  C   UNL     1     -32.363  28.533   4.508  0.00  0.00    +0.075 C 
ATOM     13  C   UNL     1     -32.946  26.986   6.769  0.00  0.00    +0.022 C 
ATOM     14  C   UNL     1     -32.276  28.201   6.810  0.00  0.00    +0.099 C 
ATOM     15  C   UNL     1     -32.025  29.400   3.344  0.00  0.00    +0.054 C 
ATOM     16  H   UNL     1     -33.442  27.012   2.359  0.00  0.00    +0.166 HD
ENDBRANCH   1   4
BRANCH   1  21
ATOM     17  O   UNL     1     -37.628  24.008   2.666  0.00  0.00    -0.307 OA
ATOM     18  C   UNL     1     -39.489  22.040   1.710  0.00  0.00    +0.173 C 
ATOM     19  C   UNL     1     -38.112  21.666   2.259  0.00  0.00    +0.210 C 
ATOM     20  C   UNL     1     -39.940  23.409   2.221  0.00  0.00    +0.178 C 
ATOM     21  C   UNL     1     -37.116  22.813   2.081  0.00  0.00    +0.318 C 
ATOM     22  C   UNL     1     -38.834  24.441   2.047  0.00  0.00    +0.246 C 
BRANCH  18  23
ATOM     23  O   UNL     1     -40.450  21.072   2.135  0.00  0.00    -0.379 OA
ATOM     24  H   UNL     1     -40.570  21.136   3.096  0.00  0.00    +0.211 HD
ENDBRANCH  18  23
BRANCH  19  25
ATOM     25  O   UNL     1     -37.615  20.528   1.553  0.00  0.00    -0.377 OA
ATOM     26  H   UNL     1     -38.172  20.361   0.777  0.00  0.00    +0.211 HD
ENDBRANCH  19  25
BRANCH  20  27
ATOM     27  O   UNL     1     -41.082  23.831   1.476  0.00  0.00    -0.379 OA
ATOM     28  H   UNL     1     -41.882  23.441   1.862  0.00  0.00    +0.211 HD
ENDBRANCH  20  27
BRANCH  22  30
ATOM     29  O   UNL     1     -40.158  26.386   2.587  0.00  0.00    -0.247 OA
ATOM     30  C   UNL     1     -39.161  25.704   2.776  0.00  0.00    +0.344 C 
BRANCH  30  31
ATOM     31  O   UNL     1     -38.196  25.998   3.681  0.00  0.00    -0.478 OA
ATOM     32  H   UNL     1     -38.043  25.422   4.406  0.00  0.00    +0.295 HD
ENDBRANCH  30  31
ENDBRANCH  22  30
ENDBRANCH   1  21
TORSDOF 7
ENDMDL
MODEL 2
REMARK VINA RESULT:      -7.3      6.406      8.144
REMARK  Name = 5488285
REMARK  7 active torsions:
REMARK  status: ('A' for Active; 'I' for Inactive)
REMARK    1  A    between atoms: O_1  and  C_4
REMARK    2  A    between atoms: O_1  and  C_21
REMARK    3  A    between atoms: C_18  and  O_23
REMARK    4  A    between atoms: C_19  and  O_25
REMARK    5  A    between atoms: C_20  and  O_27
REMARK    6  A    between atoms: C_22  and  C_30
REMARK    7  A    between atoms: C_30  and  O_31
REMARK                            x       y       z     vdW  Elec       q    Type
REMARK                         _______ _______ _______ _____ _____    ______ ____
ROOT
ATOM      1  O   UNL     1     -34.735  19.534   1.524  0.00  0.00    -0.451 OA
ENDROOT
BRANCH   1   4
ATOM      2  N   UNL     1     -30.532  17.096   0.991  0.00  0.00    -0.352 N 
ATOM      3  N   UNL     1     -27.136  17.238  -0.440  0.00  0.00    -0.247 NA
ATOM      4  C   UNL     1     -33.451  19.397   1.074  0.00  0.00    +0.143 C 
ATOM      5  C   UNL     1     -31.442  18.121   0.871  0.00  0.00    +0.060 A 
ATOM      6  C   UNL     1     -30.825  19.138   0.143  0.00  0.00    +0.017 A 
ATOM      7  C   UNL     1     -29.503  18.694  -0.177  0.00  0.00    +0.020 A 
ATOM      8  C   UNL     1     -32.754  18.221   1.350  0.00  0.00    +0.054 C 
ATOM      9  C   UNL     1     -29.353  17.418   0.365  0.00  0.00    +0.070 A 
ATOM     10  C   UNL     1     -32.866  20.432   0.351  0.00  0.00    +0.037 C 
ATOM     11  C   UNL     1     -31.554  20.317  -0.121  0.00  0.00    +0.005 C 
ATOM     12  C   UNL     1     -28.175  16.694   0.234  0.00  0.00    +0.075 C 
ATOM     13  C   UNL     1     -28.423  19.254  -0.876  0.00  0.00    +0.022 C 
ATOM     14  C   UNL     1     -27.277  18.475  -0.967  0.00  0.00    +0.099 C 
ATOM     15  C   UNL     1     -27.982  15.330   0.802  0.00  0.00    +0.054 C 
ATOM     16  H   UNL     1     -30.703  16.249   1.461  0.00  0.00    +0.166 HD
ENDBRANCH   1   4
BRANCH   1  21
ATOM     17  O   UNL     1     -35.214  20.843   3.395  0.00  0.00    -0.307 OA
ATOM     18  C   UNL     1     -37.025  22.486   1.888  0.00  0.00    +0.173 C 
ATOM     19  C   UNL     1     -36.477  21.164   1.349  0.00  0.00    +0.210 C 
ATOM     20  C   UNL     1     -36.955  22.538   3.415  0.00  0.00    +0.178 C 
ATOM     21  C   UNL     1     -35.120  20.833   1.972  0.00  0.00    +0.318 C 
ATOM     22  C   UNL     1     -35.575  22.122   3.905  0.00  0.00    +0.246 C 
BRANCH  18  23
ATOM     23  O   UNL     1     -38.394  22.625   1.505  0.00  0.00    -0.379 OA
ATOM     24  H   UNL     1     -38.502  22.345   0.582  0.00  0.00    +0.211 HD
ENDBRANCH  18  23
BRANCH  19  25
ATOM     25  O   UNL     1     -36.306  21.265  -0.065  0.00  0.00    -0.377 OA
ATOM     26  H   UNL     1     -37.149  21.516  -0.475  0.00  0.00    +0.211 HD
ENDBRANCH  19  25
BRANCH  20  27
ATOM     27  O   UNL     1     -37.212  23.873   3.848  0.00  0.00    -0.379 OA
ATOM     28  H   UNL     1     -37.780  24.319   3.201  0.00  0.00    +0.211 HD
ENDBRANCH  20  27
BRANCH  22  30
ATOM     29  O   UNL     1     -35.880  22.760   6.214  0.00  0.00    -0.247 OA
ATOM     30  C   UNL     1     -35.573  21.914   5.386  0.00  0.00    +0.344 C 
BRANCH  30  31
ATOM     31  O   UNL     1     -35.182  20.653   5.692  0.00  0.00    -0.478 OA
ATOM     32  H   UNL     1     -34.269  20.440   5.722  0.00  0.00    +0.295 HD
ENDBRANCH  30  31
ENDBRANCH  22  30
ENDBRANCH   1  21
TORSDOF 7
ENDMDL
MODEL 3
REMARK VINA RESULT:      -7.1      4.173      8.059
REMARK  Name = 5488285
REMARK  7 active torsions:
REMARK  status: ('A' for Active; 'I' for Inactive)
REMARK    1  A    between atoms: O_1  and  C_4
REMARK    2  A    between atoms: O_1  and  C_21
REMARK    3  A    between atoms: C_18  and  O_23
REMARK    4  A    between atoms: C_19  and  O_25
REMARK    5  A    between atoms: C_20  and  O_27
REMARK    6  A    between atoms: C_22  and  C_30
REMARK    7  A    between atoms: C_30  and  O_31
REMARK                            x       y       z     vdW  Elec       q    Type
REMARK                         _______ _______ _______ _____ _____    ______ ____
ROOT
ATOM      1  O   UNL     1     -33.725  25.776   6.092  0.00  0.00    -0.451 OA
ENDROOT
BRANCH   1   4
ATOM      2  N   UNL     1     -38.095  25.722   3.902  0.00  0.00    -0.352 N 
ATOM      3  N   UNL     1     -40.406  23.703   1.856  0.00  0.00    -0.247 NA
ATOM      4  C   UNL     1     -34.709  25.191   5.344  0.00  0.00    +0.143 C 
ATOM      5  C   UNL     1     -36.861  25.269   4.311  0.00  0.00    +0.060 A 
ATOM      6  C   UNL     1     -36.709  23.976   3.811  0.00  0.00    +0.017 A 
ATOM      7  C   UNL     1     -37.898  23.657   3.081  0.00  0.00    +0.020 A 
ATOM      8  C   UNL     1     -35.879  25.904   5.081  0.00  0.00    +0.054 C 
ATOM      9  C   UNL     1     -38.739  24.766   3.156  0.00  0.00    +0.070 A 
ATOM     10  C   UNL     1     -34.524  23.900   4.861  0.00  0.00    +0.037 C 
ATOM     11  C   UNL     1     -35.515  23.279   4.093  0.00  0.00    +0.005 C 
ATOM     12  C   UNL     1     -39.987  24.789   2.547  0.00  0.00    +0.075 C 
ATOM     13  C   UNL     1     -38.336  22.534   2.362  0.00  0.00    +0.022 C 
ATOM     14  C   UNL     1     -39.593  22.626   1.780  0.00  0.00    +0.099 C 
ATOM     15  C   UNL     1     -40.910  25.957   2.609  0.00  0.00    +0.054 C 
ATOM     16  H   UNL     1     -38.463  26.609   4.115  0.00  0.00    +0.166 HD
ENDBRANCH   1   4
BRANCH   1  21
ATOM     17  O   UNL     1     -32.535  26.702   4.311  0.00  0.00    -0.307 OA
ATOM     18  C   UNL     1     -31.350  28.683   6.022  0.00  0.00    +0.173 C 
ATOM     19  C   UNL     1     -32.111  27.475   6.572  0.00  0.00    +0.210 C 
ATOM     20  C   UNL     1     -30.846  28.425   4.601  0.00  0.00    +0.178 C 
ATOM     21  C   UNL     1     -33.150  26.973   5.568  0.00  0.00    +0.318 C 
ATOM     22  C   UNL     1     -31.961  27.866   3.727  0.00  0.00    +0.246 C 
BRANCH  18  23
ATOM     23  O   UNL     1     -30.217  28.950   6.850  0.00  0.00    -0.379 OA
ATOM     24  H   UNL     1     -30.308  28.467   7.687  0.00  0.00    +0.211 HD
ENDBRANCH  18  23
BRANCH  19  25
ATOM     25  O   UNL     1     -32.790  27.850   7.770  0.00  0.00    -0.377 OA
ATOM     26  H   UNL     1     -32.276  27.556   8.538  0.00  0.00    +0.211 HD
ENDBRANCH  19  25
BRANCH  20  27
ATOM     27  O   UNL     1     -30.395  29.656   4.037  0.00  0.00    -0.379 OA
ATOM     28  H   UNL     1     -29.493  29.545   3.699  0.00  0.00    +0.211 HD
ENDBRANCH  20  27
BRANCH  22  30
ATOM     29  O   UNL     1     -31.211  28.059   1.440  0.00  0.00    -0.247 OA
ATOM     30  C   UNL     1     -31.420  27.366   2.426  0.00  0.00    +0.344 C 
BRANCH  30  31
ATOM     31  O   UNL     1     -31.193  26.032   2.483  0.00  0.00    -0.478 OA
ATOM     32  H   UNL     1     -31.650  25.453   1.903  0.00  0.00    +0.295 HD
ENDBRANCH  30  31
ENDBRANCH  22  30
ENDBRANCH   1  21
TORSDOF 7
ENDMDL
MODEL 4
REMARK VINA RESULT:      -7.1      5.809      7.326
REMARK  Name = 5488285
REMARK  7 active torsions:
REMARK  status: ('A' for Active; 'I' for Inactive)
REMARK    1  A    between atoms: O_1  and  C_4
REMARK    2  A    between atoms: O_1  and  C_21
REMARK    3  A    between atoms: C_18  and  O_23
REMARK    4  A    between atoms: C_19  and  O_25
REMARK    5  A    between atoms: C_20  and  O_27
REMARK    6  A    between atoms: C_22  and  C_30
REMARK    7  A    between atoms: C_30  and  O_31
REMARK                            x       y       z     vdW  Elec       q    Type
REMARK                         _______ _______ _______ _____ _____    ______ ____
ROOT
ATOM      1  O   UNL     1     -34.869  19.605   1.424  0.00  0.00    -0.451 OA
ENDROOT
BRANCH   1   4
ATOM      2  N   UNL     1     -30.681  20.926  -0.723  0.00  0.00    -0.352 N 
ATOM      3  N   UNL     1     -27.208  19.898  -1.425  0.00  0.00    -0.247 NA
ATOM      4  C   UNL     1     -33.565  19.406   1.065  0.00  0.00    +0.143 C 
ATOM      5  C   UNL     1     -31.567  20.147  -0.015  0.00  0.00    +0.060 A 
ATOM      6  C   UNL     1     -30.896  18.977   0.341  0.00  0.00    +0.017 A 
ATOM      7  C   UNL     1     -29.566  19.072  -0.178  0.00  0.00    +0.020 A 
ATOM      8  C   UNL     1     -32.901  20.391   0.332  0.00  0.00    +0.054 C 
ATOM      9  C   UNL     1     -29.464  20.298  -0.833  0.00  0.00    +0.070 A 
ATOM     10  C   UNL     1     -32.926  18.227   1.436  0.00  0.00    +0.037 C 
ATOM     11  C   UNL     1     -31.592  17.998   1.081  0.00  0.00    +0.005 C 
ATOM     12  C   UNL     1     -28.291  20.709  -1.454  0.00  0.00    +0.075 C 
ATOM     13  C   UNL     1     -28.440  18.235  -0.149  0.00  0.00    +0.022 C 
ATOM     14  C   UNL     1     -27.303  18.709  -0.790  0.00  0.00    +0.099 C 
ATOM     15  C   UNL     1     -28.151  22.012  -2.163  0.00  0.00    +0.054 C 
ATOM     16  H   UNL     1     -30.891  21.811  -1.098  0.00  0.00    +0.166 HD
ENDBRANCH   1   4
BRANCH   1  21
ATOM     17  O   UNL     1     -35.275  20.859   3.348  0.00  0.00    -0.307 OA
ATOM     18  C   UNL     1     -37.052  22.617   1.932  0.00  0.00    +0.173 C 
ATOM     19  C   UNL     1     -36.557  21.298   1.336  0.00  0.00    +0.210 C 
ATOM     20  C   UNL     1     -36.957  22.610   3.458  0.00  0.00    +0.178 C 
ATOM     21  C   UNL     1     -35.203  20.899   1.925  0.00  0.00    +0.318 C 
ATOM     22  C   UNL     1     -35.584  22.130   3.911  0.00  0.00    +0.246 C 
BRANCH  18  23
ATOM     23  O   UNL     1     -38.421  22.816   1.576  0.00  0.00    -0.379 OA
ATOM     24  H   UNL     1     -38.947  22.059   1.878  0.00  0.00    +0.211 HD
ENDBRANCH  18  23
BRANCH  19  25
ATOM     25  O   UNL     1     -36.404  21.445  -0.076  0.00  0.00    -0.377 OA
ATOM     26  H   UNL     1     -36.997  22.144  -0.394  0.00  0.00    +0.211 HD
ENDBRANCH  19  25
BRANCH  20  27
ATOM     27  O   UNL     1     -37.162  23.936   3.943  0.00  0.00    -0.379 OA
ATOM     28  H   UNL     1     -37.797  24.395   3.372  0.00  0.00    +0.211 HD
ENDBRANCH  20  27
BRANCH  22  30
ATOM     29  O   UNL     1     -35.861  22.684   6.244  0.00  0.00    -0.247 OA
ATOM     30  C   UNL     1     -35.568  21.868   5.382  0.00  0.00    +0.344 C 
BRANCH  30  31
ATOM     31  O   UNL     1     -35.179  20.595   5.638  0.00  0.00    -0.478 OA
ATOM     32  H   UNL     1     -35.571  19.883   5.170  0.00  0.00    +0.295 HD
ENDBRANCH  30  31
ENDBRANCH  22  30
ENDBRANCH   1  21
TORSDOF 7
ENDMDL
MODEL 5
REMARK VINA RESULT:      -6.9      5.092      7.872
REMARK  Name = 5488285
REMARK  7 active torsions:
REMARK  status: ('A' for Active; 'I' for Inactive)
REMARK    1  A    between atoms: O_1  and  C_4
REMARK    2  A    between atoms: O_1  and  C_21
REMARK    3  A    between atoms: C_18  and  O_23
REMARK    4  A    between atoms: C_19  and  O_25
REMARK    5  A    between atoms: C_20  and  O_27
REMARK    6  A    between atoms: C_22  and  C_30
REMARK    7  A    between atoms: C_30  and  O_31
REMARK                            x       y       z     vdW  Elec       q    Type
REMARK                         _______ _______ _______ _____ _____    ______ ____
ROOT
ATOM      1  O   UNL     1     -36.141  22.415   1.030  0.00  0.00    -0.451 OA
ENDROOT
BRANCH   1   4
ATOM      2  N   UNL     1     -32.249  19.468   0.797  0.00  0.00    -0.352 N 
ATOM      3  N   UNL     1     -31.129  16.014   0.145  0.00  0.00    -0.247 NA
ATOM      4  C   UNL     1     -35.535  21.207   0.825  0.00  0.00    +0.143 C 
ATOM      5  C   UNL     1     -33.568  19.854   0.738  0.00  0.00    +0.060 A 
ATOM      6  C   UNL     1     -34.315  18.725   0.401  0.00  0.00    +0.017 A 
ATOM      7  C   UNL     1     -33.399  17.634   0.256  0.00  0.00    +0.020 A 
ATOM      8  C   UNL     1     -34.149  21.109   0.956  0.00  0.00    +0.054 C 
ATOM      9  C   UNL     1     -32.122  18.130   0.510  0.00  0.00    +0.070 A 
ATOM     10  C   UNL     1     -36.310  20.102   0.490  0.00  0.00    +0.037 C 
ATOM     11  C   UNL     1     -35.714  18.854   0.274  0.00  0.00    +0.005 C 
ATOM     12  C   UNL     1     -30.992  17.325   0.455  0.00  0.00    +0.075 C 
ATOM     13  C   UNL     1     -33.537  16.275  -0.064  0.00  0.00    +0.022 C 
ATOM     14  C   UNL     1     -32.366  15.530  -0.103  0.00  0.00    +0.099 C 
ATOM     15  C   UNL     1     -29.613  17.824   0.720  0.00  0.00    +0.054 C 
ATOM     16  H   UNL     1     -31.500  20.068   1.014  0.00  0.00    +0.166 HD
ENDBRANCH   1   4
BRANCH   1  21
ATOM     17  O   UNL     1     -35.807  22.344   3.338  0.00  0.00    -0.307 OA
ATOM     18  C   UNL     1     -36.320  25.160   3.585  0.00  0.00    +0.173 C 
ATOM     19  C   UNL     1     -36.624  24.381   2.304  0.00  0.00    +0.210 C 
ATOM     20  C   UNL     1     -36.255  24.232   4.800  0.00  0.00    +0.178 C 
ATOM     21  C   UNL     1     -35.715  23.158   2.171  0.00  0.00    +0.318 C 
ATOM     22  C   UNL     1     -35.373  23.025   4.510  0.00  0.00    +0.246 C 
BRANCH  18  23
ATOM     23  O   UNL     1     -37.353  26.119   3.817  0.00  0.00    -0.379 OA
ATOM     24  H   UNL     1     -37.351  26.775   3.102  0.00  0.00    +0.211 HD
ENDBRANCH  18  23
BRANCH  19  25
ATOM     25  O   UNL     1     -36.406  25.226   1.174  0.00  0.00    -0.377 OA
ATOM     26  H   UNL     1     -36.578  24.727   0.360  0.00  0.00    +0.211 HD
ENDBRANCH  19  25
BRANCH  20  27
ATOM     27  O   UNL     1     -35.703  24.949   5.903  0.00  0.00    -0.379 OA
ATOM     28  H   UNL     1     -35.793  25.902   5.748  0.00  0.00    +0.211 HD
ENDBRANCH  20  27
BRANCH  22  30
ATOM     29  O   UNL     1     -35.954  22.197   6.702  0.00  0.00    -0.247 OA
ATOM     30  C   UNL     1     -35.514  21.991   5.580  0.00  0.00    +0.344 C 
BRANCH  30  31
ATOM     31  O   UNL     1     -35.084  20.784   5.140  0.00  0.00    -0.478 OA
ATOM     32  H   UNL     1     -35.297  20.007   5.619  0.00  0.00    +0.295 HD
ENDBRANCH  30  31
ENDBRANCH  22  30
ENDBRANCH   1  21
TORSDOF 7
ENDMDL
MODEL 6
REMARK VINA RESULT:      -6.9      4.539      6.702
REMARK  Name = 5488285
REMARK  7 active torsions:
REMARK  status: ('A' for Active; 'I' for Inactive)
REMARK    1  A    between atoms: O_1  and  C_4
REMARK    2  A    between atoms: O_1  and  C_21
REMARK    3  A    between atoms: C_18  and  O_23
REMARK    4  A    between atoms: C_19  and  O_25
REMARK    5  A    between atoms: C_20  and  O_27
REMARK    6  A    between atoms: C_22  and  C_30
REMARK    7  A    between atoms: C_30  and  O_31
REMARK                            x       y       z     vdW  Elec       q    Type
REMARK                         _______ _______ _______ _____ _____    ______ ____
ROOT
ATOM      1  O   UNL     1     -36.687  22.849   1.158  0.00  0.00    -0.451 OA
ENDROOT
BRANCH   1   4
ATOM      2  N   UNL     1     -32.256  21.325  -0.232  0.00  0.00    -0.352 N 
ATOM      3  N   UNL     1     -29.861  18.522  -0.095  0.00  0.00    -0.247 NA
ATOM      4  C   UNL     1     -35.675  21.931   1.096  0.00  0.00    +0.143 C 
ATOM      5  C   UNL     1     -33.494  21.285   0.366  0.00  0.00    +0.060 A 
ATOM      6  C   UNL     1     -33.617  20.039   0.981  0.00  0.00    +0.017 A 
ATOM      7  C   UNL     1     -32.404  19.320   0.735  0.00  0.00    +0.020 A 
ATOM      8  C   UNL     1     -34.506  22.252   0.406  0.00  0.00    +0.054 C 
ATOM      9  C   UNL     1     -31.577  20.149  -0.021  0.00  0.00    +0.070 A 
ATOM     10  C   UNL     1     -35.831  20.698   1.720  0.00  0.00    +0.037 C 
ATOM     11  C   UNL     1     -34.811  19.741   1.672  0.00  0.00    +0.005 C 
ATOM     12  C   UNL     1     -30.312  19.752  -0.434  0.00  0.00    +0.075 C 
ATOM     13  C   UNL     1     -31.932  18.045   1.086  0.00  0.00    +0.022 C 
ATOM     14  C   UNL     1     -30.659  17.715   0.639  0.00  0.00    +0.099 C 
ATOM     15  C   UNL     1     -29.405  20.613  -1.244  0.00  0.00    +0.054 C 
ATOM     16  H   UNL     1     -31.904  22.090  -0.740  0.00  0.00    +0.166 HD
ENDBRANCH   1   4
BRANCH   1  21
ATOM     17  O   UNL     1     -36.051  23.545   3.292  0.00  0.00    -0.307 OA
ATOM     18  C   UNL     1     -37.683  25.902   3.102  0.00  0.00    +0.173 C 
ATOM     19  C   UNL     1     -37.791  24.748   2.104  0.00  0.00    +0.210 C 
ATOM     20  C   UNL     1     -37.067  25.440   4.423  0.00  0.00    +0.178 C 
ATOM     21  C   UNL     1     -36.473  23.980   2.002  0.00  0.00    +0.318 C 
ATOM     22  C   UNL     1     -35.800  24.633   4.175  0.00  0.00    +0.246 C 
BRANCH  18  23
ATOM     23  O   UNL     1     -38.986  26.416   3.378  0.00  0.00    -0.379 OA
ATOM     24  H   UNL     1     -38.938  27.034   4.125  0.00  0.00    +0.211 HD
ENDBRANCH  18  23
BRANCH  19  25
ATOM     25  O   UNL     1     -38.108  25.267   0.813  0.00  0.00    -0.377 OA
ATOM     26  H   UNL     1     -37.737  26.160   0.724  0.00  0.00    +0.211 HD
ENDBRANCH  19  25
BRANCH  20  27
ATOM     27  O   UNL     1     -36.734  26.586   5.207  0.00  0.00    -0.379 OA
ATOM     28  H   UNL     1     -36.328  26.301   6.040  0.00  0.00    +0.211 HD
ENDBRANCH  20  27
BRANCH  22  30
ATOM     29  O   UNL     1     -35.797  22.915   5.871  0.00  0.00    -0.247 OA
ATOM     30  C   UNL     1     -35.341  23.959   5.428  0.00  0.00    +0.344 C 
BRANCH  30  31
ATOM     31  O   UNL     1     -34.346  24.667   6.015  0.00  0.00    -0.478 OA
ATOM     32  H   UNL     1     -34.430  24.943   6.908  0.00  0.00    +0.295 HD
ENDBRANCH  30  31
ENDBRANCH  22  30
ENDBRANCH   1  21
TORSDOF 7
ENDMDL
MODEL 7
REMARK VINA RESULT:      -6.7      4.011      8.891
REMARK  Name = 5488285
REMARK  7 active torsions:
REMARK  status: ('A' for Active; 'I' for Inactive)
REMARK    1  A    between atoms: O_1  and  C_4
REMARK    2  A    between atoms: O_1  and  C_21
REMARK    3  A    between atoms: C_18  and  O_23
REMARK    4  A    between atoms: C_19  and  O_25
REMARK    5  A    between atoms: C_20  and  O_27
REMARK    6  A    between atoms: C_22  and  C_30
REMARK    7  A    between atoms: C_30  and  O_31
REMARK                            x       y       z     vdW  Elec       q    Type
REMARK                         _______ _______ _______ _____ _____    ______ ____
ROOT
ATOM      1  O   UNL     1     -38.976  24.119   3.314  0.00  0.00    -0.451 OA
ENDROOT
BRANCH   1   4
ATOM      2  N   UNL     1     -39.310  20.372   0.194  0.00  0.00    -0.352 N 
ATOM      3  N   UNL     1     -40.965  19.147  -2.867  0.00  0.00    -0.247 NA
ATOM      4  C   UNL     1     -39.476  23.494   2.205  0.00  0.00    +0.143 C 
ATOM      5  C   UNL     1     -39.563  21.608   0.743  0.00  0.00    +0.060 A 
ATOM      6  C   UNL     1     -40.513  22.232  -0.067  0.00  0.00    +0.017 A 
ATOM      7  C   UNL     1     -40.828  21.329  -1.131  0.00  0.00    +0.020 A 
ATOM      8  C   UNL     1     -39.026  22.212   1.885  0.00  0.00    +0.054 C 
ATOM      9  C   UNL     1     -40.064  20.180  -0.939  0.00  0.00    +0.070 A 
ATOM     10  C   UNL     1     -40.421  24.146   1.421  0.00  0.00    +0.037 C 
ATOM     11  C   UNL     1     -40.949  23.528   0.281  0.00  0.00    +0.005 C 
ATOM     12  C   UNL     1     -40.131  19.094  -1.802  0.00  0.00    +0.075 C 
ATOM     13  C   UNL     1     -41.692  21.379  -2.236  0.00  0.00    +0.022 C 
ATOM     14  C   UNL     1     -41.708  20.259  -3.057  0.00  0.00    +0.099 C 
ATOM     15  C   UNL     1     -39.327  17.852  -1.625  0.00  0.00    +0.054 C 
ATOM     16  H   UNL     1     -38.676  19.716   0.562  0.00  0.00    +0.166 HD
ENDBRANCH   1   4
BRANCH   1  21
ATOM     17  O   UNL     1     -37.038  23.252   4.281  0.00  0.00    -0.307 OA
ATOM     18  C   UNL     1     -35.730  25.806   4.155  0.00  0.00    +0.173 C 
ATOM     19  C   UNL     1     -37.231  25.642   3.911  0.00  0.00    +0.210 C 
ATOM     20  C   UNL     1     -35.166  24.640   4.968  0.00  0.00    +0.178 C 
ATOM     21  C   UNL     1     -37.556  24.240   3.394  0.00  0.00    +0.318 C 
ATOM     22  C   UNL     1     -35.620  23.308   4.386  0.00  0.00    +0.246 C 
BRANCH  18  23
ATOM     23  O   UNL     1     -35.496  27.009   4.889  0.00  0.00    -0.379 OA
ATOM     24  H   UNL     1     -35.421  26.802   5.834  0.00  0.00    +0.211 HD
ENDBRANCH  18  23
BRANCH  19  25
ATOM     25  O   UNL     1     -37.657  26.590   2.933  0.00  0.00    -0.377 OA
ATOM     26  H   UNL     1     -37.012  27.312   2.880  0.00  0.00    +0.211 HD
ENDBRANCH  19  25
BRANCH  20  27
ATOM     27  O   UNL     1     -33.740  24.693   4.931  0.00  0.00    -0.379 OA
ATOM     28  H   UNL     1     -33.377  24.097   5.604  0.00  0.00    +0.211 HD
ENDBRANCH  20  27
BRANCH  22  30
ATOM     29  O   UNL     1     -34.964  22.309   6.483  0.00  0.00    -0.247 OA
ATOM     30  C   UNL     1     -35.299  22.181   5.314  0.00  0.00    +0.344 C 
BRANCH  30  31
ATOM     31  O   UNL     1     -35.427  20.989   4.683  0.00  0.00    -0.478 OA
ATOM     32  H   UNL     1     -34.808  20.304   4.845  0.00  0.00    +0.295 HD
ENDBRANCH  30  31
ENDBRANCH  22  30
ENDBRANCH   1  21
TORSDOF 7
ENDMDL
MODEL 8
REMARK VINA RESULT:      -6.7      4.954      8.783
REMARK  Name = 5488285
REMARK  7 active torsions:
REMARK  status: ('A' for Active; 'I' for Inactive)
REMARK    1  A    between atoms: O_1  and  C_4
REMARK    2  A    between atoms: O_1  and  C_21
REMARK    3  A    between atoms: C_18  and  O_23
REMARK    4  A    between atoms: C_19  and  O_25
REMARK    5  A    between atoms: C_20  and  O_27
REMARK    6  A    between atoms: C_22  and  C_30
REMARK    7  A    between atoms: C_30  and  O_31
REMARK                            x       y       z     vdW  Elec       q    Type
REMARK                         _______ _______ _______ _____ _____    ______ ____
ROOT
ATOM      1  O   UNL     1     -33.258  27.674   5.731  0.00  0.00    -0.451 OA
ENDROOT
BRANCH   1   4
ATOM      2  N   UNL     1     -34.060  24.737   1.906  0.00  0.00    -0.352 N 
ATOM      3  N   UNL     1     -35.526  21.525   0.838  0.00  0.00    -0.247 NA
ATOM      4  C   UNL     1     -33.739  26.535   5.144  0.00  0.00    +0.143 C 
ATOM      5  C   UNL     1     -34.079  25.176   3.210  0.00  0.00    +0.060 A 
ATOM      6  C   UNL     1     -34.730  24.200   3.965  0.00  0.00    +0.017 A 
ATOM      7  C   UNL     1     -35.108  23.149   3.070  0.00  0.00    +0.020 A 
ATOM      8  C   UNL     1     -33.572  26.354   3.771  0.00  0.00    +0.054 C 
ATOM      9  C   UNL     1     -34.675  23.514   1.797  0.00  0.00    +0.070 A 
ATOM     10  C   UNL     1     -34.383  25.583   5.927  0.00  0.00    +0.037 C 
ATOM     11  C   UNL     1     -34.884  24.410   5.352  0.00  0.00    +0.005 C 
ATOM     12  C   UNL     1     -34.883  22.706   0.686  0.00  0.00    +0.075 C 
ATOM     13  C   UNL     1     -35.773  21.923   3.224  0.00  0.00    +0.022 C 
ATOM     14  C   UNL     1     -35.948  21.168   2.072  0.00  0.00    +0.099 C 
ATOM     15  C   UNL     1     -34.434  23.068  -0.688  0.00  0.00    +0.054 C 
ATOM     16  H   UNL     1     -33.661  25.233   1.156  0.00  0.00    +0.166 HD
ENDBRANCH   1   4
BRANCH   1  21
ATOM     17  O   UNL     1     -30.962  27.771   6.132  0.00  0.00    -0.307 OA
ATOM     18  C   UNL     1     -30.748  30.301   4.788  0.00  0.00    +0.173 C 
ATOM     19  C   UNL     1     -32.096  29.688   5.170  0.00  0.00    +0.210 C 
ATOM     20  C   UNL     1     -29.614  29.733   5.644  0.00  0.00    +0.178 C 
ATOM     21  C   UNL     1     -32.008  28.163   5.246  0.00  0.00    +0.318 C 
ATOM     22  C   UNL     1     -29.683  28.212   5.690  0.00  0.00    +0.246 C 
BRANCH  18  23
ATOM     23  O   UNL     1     -30.791  31.714   4.995  0.00  0.00    -0.379 OA
ATOM     24  H   UNL     1     -29.963  32.111   4.685  0.00  0.00    +0.211 HD
ENDBRANCH  18  23
BRANCH  19  25
ATOM     25  O   UNL     1     -33.068  30.031   4.183  0.00  0.00    -0.377 OA
ATOM     26  H   UNL     1     -33.004  30.978   3.982  0.00  0.00    +0.211 HD
ENDBRANCH  19  25
BRANCH  20  27
ATOM     27  O   UNL     1     -28.364  30.118   5.075  0.00  0.00    -0.379 OA
ATOM     28  H   UNL     1     -27.781  30.457   5.773  0.00  0.00    +0.211 HD
ENDBRANCH  20  27
BRANCH  22  30
ATOM     29  O   UNL     1     -28.229  26.562   6.685  0.00  0.00    -0.247 OA
ATOM     30  C   UNL     1     -28.753  27.666   6.725  0.00  0.00    +0.344 C 
BRANCH  30  31
ATOM     31  O   UNL     1     -28.569  28.562   7.724  0.00  0.00    -0.478 OA
ATOM     32  H   UNL     1     -28.985  28.431   8.554  0.00  0.00    +0.295 HD
ENDBRANCH  30  31
ENDBRANCH  22  30
ENDBRANCH   1  21
TORSDOF 7
ENDMDL
MODEL 9
REMARK VINA RESULT:      -6.7      2.398      4.219
REMARK  Name = 5488285
REMARK  7 active torsions:
REMARK  status: ('A' for Active; 'I' for Inactive)
REMARK    1  A    between atoms: O_1  and  C_4
REMARK    2  A    between atoms: O_1  and  C_21
REMARK    3  A    between atoms: C_18  and  O_23
REMARK    4  A    between atoms: C_19  and  O_25
REMARK    5  A    between atoms: C_20  and  O_27
REMARK    6  A    between atoms: C_22  and  C_30
REMARK    7  A    between atoms: C_30  and  O_31
REMARK                            x       y       z     vdW  Elec       q    Type
REMARK                         _______ _______ _______ _____ _____    ______ ____
ROOT
ATOM      1  O   UNL     1     -36.400  22.849   2.101  0.00  0.00    -0.451 OA
ENDROOT
BRANCH   1   4
ATOM      2  N   UNL     1     -33.691  26.779   3.151  0.00  0.00    -0.352 N 
ATOM      3  N   UNL     1     -32.039  28.654   5.865  0.00  0.00    -0.247 NA
ATOM      4  C   UNL     1     -35.726  23.674   2.958  0.00  0.00    +0.143 C 
ATOM      5  C   UNL     1     -34.404  25.622   3.362  0.00  0.00    +0.060 A 
ATOM      6  C   UNL     1     -34.355  25.350   4.730  0.00  0.00    +0.017 A 
ATOM      7  C   UNL     1     -33.584  26.388   5.345  0.00  0.00    +0.020 A 
ATOM      8  C   UNL     1     -35.081  24.803   2.451  0.00  0.00    +0.054 C 
ATOM      9  C   UNL     1     -33.187  27.262   4.335  0.00  0.00    +0.070 A 
ATOM     10  C   UNL     1     -35.698  23.374   4.316  0.00  0.00    +0.037 C 
ATOM     11  C   UNL     1     -35.017  24.202   5.214  0.00  0.00    +0.005 C 
ATOM     12  C   UNL     1     -32.418  28.389   4.593  0.00  0.00    +0.075 C 
ATOM     13  C   UNL     1     -33.190  26.666   6.663  0.00  0.00    +0.022 C 
ATOM     14  C   UNL     1     -32.423  27.809   6.848  0.00  0.00    +0.099 C 
ATOM     15  C   UNL     1     -31.976  29.342   3.536  0.00  0.00    +0.054 C 
ATOM     16  H   UNL     1     -33.560  27.203   2.273  0.00  0.00    +0.166 HD
ENDBRANCH   1   4
BRANCH   1  21
ATOM     17  O   UNL     1     -34.727  21.428   1.310  0.00  0.00    -0.307 OA
ATOM     18  C   UNL     1     -36.573  19.237   1.094  0.00  0.00    +0.173 C 
ATOM     19  C   UNL     1     -37.034  20.676   1.327  0.00  0.00    +0.210 C 
ATOM     20  C   UNL     1     -35.177  19.192   0.470  0.00  0.00    +0.178 C 
ATOM     21  C   UNL     1     -35.953  21.495   2.035  0.00  0.00    +0.318 C 
ATOM     22  C   UNL     1     -34.218  20.101   1.228  0.00  0.00    +0.246 C 
BRANCH  18  23
ATOM     23  O   UNL     1     -37.477  18.586   0.199  0.00  0.00    -0.379 OA
ATOM     24  H   UNL     1     -37.424  17.626   0.328  0.00  0.00    +0.211 HD
ENDBRANCH  18  23
BRANCH  19  25
ATOM     25  O   UNL     1     -38.201  20.671   2.149  0.00  0.00    -0.377 OA
ATOM     26  H   UNL     1     -37.953  20.452   3.061  0.00  0.00    +0.211 HD
ENDBRANCH  19  25
BRANCH  20  27
ATOM     27  O   UNL     1     -34.683  17.855   0.528  0.00  0.00    -0.379 OA
ATOM     28  H   UNL     1     -33.790  17.855   0.906  0.00  0.00    +0.211 HD
ENDBRANCH  20  27
BRANCH  22  30
ATOM     29  O   UNL     1     -32.713  21.149  -0.341  0.00  0.00    -0.247 OA
ATOM     30  C   UNL     1     -32.936  20.270   0.478  0.00  0.00    +0.344 C 
BRANCH  30  31
ATOM     31  O   UNL     1     -32.047  19.309   0.828  0.00  0.00    -0.478 OA
ATOM     32  H   UNL     1     -31.142  19.404   0.601  0.00  0.00    +0.295 HD
ENDBRANCH  30  31
ENDBRANCH  22  30
ENDBRANCH   1  21
TORSDOF 7
ENDMDL
