MODEL 1
REMARK VINA RESULT:      -6.5      0.000      0.000
REMARK  Name = 53492750
REMARK  10 active torsions:
REMARK  status: ('A' for Active; 'I' for Inactive)
REMARK    1  A    between atoms: N_1  and  C_30
REMARK    2  A    between atoms: C_9  and  C_16
REMARK    3  A    between atoms: C_17  and  C_18
REMARK    4  A    between atoms: C_21  and  O_26
REMARK    5  A    between atoms: C_22  and  C_25
REMARK    6  A    between atoms: O_26  and  C_27
REMARK    7  A    between atoms: C_30  and  C_31
REMARK    8  A    between atoms: C_30  and  C_34
REMARK    9  A    between atoms: C_31  and  O_32
REMARK   10  A    between atoms: C_34  and  O_35
REMARK                            x       y       z     vdW  Elec       q    Type
REMARK                         _______ _______ _______ _____ _____    ______ ____
ROOT
ATOM      1  N   UNL     1     -32.628  28.140   5.440  0.00  0.00    +0.394 N 
ATOM      2  C   UNL     1     -32.078  27.723   4.145  0.00  0.00    -0.072 C 
ATOM      3  C   UNL     1     -33.102  26.966   6.193  0.00  0.00    -0.050 C 
ATOM      4  C   UNL     1     -33.195  27.146   3.268  0.00  0.00    +0.003 C 
ATOM      5  C   UNL     1     -34.047  26.137   3.994  0.00  0.00    -0.033 C 
ATOM      6  C   UNL     1     -34.036  26.082   5.398  0.00  0.00    -0.047 C 
ATOM      7  C   UNL     1     -34.900  25.291   3.274  0.00  0.00    -0.016 C 
ATOM      8  C   UNL     1     -34.852  25.154   6.059  0.00  0.00    -0.006 C 
ATOM      9  C   UNL     1     -35.716  24.378   3.942  0.00  0.00    +0.073 C 
ATOM     10  C   UNL     1     -35.690  24.309   5.333  0.00  0.00    +0.010 C 
ATOM     11  C   UNL     1     -34.946  25.370   1.777  0.00  0.00    +0.031 C 
ATOM     12  H   UNL     1     -33.417  28.762   5.270  0.00  0.00    -0.079 HD
ENDROOT
BRANCH   9  16
ATOM     13  O   UNL     1     -38.355  22.579   2.428  0.00  0.00    -0.311 OA
ATOM     14  N   UNL     1     -36.118  22.470   2.462  0.00  0.00    -0.309 NA
ATOM     15  N   UNL     1     -37.927  23.627   3.252  0.00  0.00    -0.007 NA
ATOM     16  C   UNL     1     -36.597  23.498   3.222  0.00  0.00    +0.127 C 
ATOM     17  C   UNL     1     -37.228  21.949   2.005  0.00  0.00    +0.317 C 
BRANCH  17  18
ATOM     18  C   UNL     1     -37.434  20.826   1.135  0.00  0.00    +0.070 C 
ATOM     19  C   UNL     1     -38.562  20.773   0.317  0.00  0.00    +0.019 C 
ATOM     20  C   UNL     1     -36.504  19.787   1.108  0.00  0.00    +0.009 C 
ATOM     21  C   UNL     1     -37.829  18.643  -0.555  0.00  0.00    +0.148 C 
ATOM     22  C   UNL     1     -38.760  19.681  -0.529  0.00  0.00    +0.102 C 
ATOM     23  C   UNL     1     -36.701  18.695   0.263  0.00  0.00    +0.038 C 
BRANCH  22  25
ATOM     24  N   UNL     1     -40.868  19.617  -2.034  0.00  0.00    -0.191 NA
ATOM     25  C   UNL     1     -39.924  19.646  -1.361  0.00  0.00    +0.103 C 
ENDBRANCH  22  25
BRANCH  21  26
ATOM     26  O   UNL     1     -38.000  17.564  -1.372  0.00  0.00    -0.478 OA
BRANCH  26  27
ATOM     27  C   UNL     1     -38.191  16.300  -0.740  0.00  0.00    +0.166 C 
ATOM     28  C   UNL     1     -37.244  15.282  -1.357  0.00  0.00    +0.047 C 
ATOM     29  C   UNL     1     -39.646  15.882  -0.887  0.00  0.00    +0.047 C 
ENDBRANCH  26  27
ENDBRANCH  21  26
ENDBRANCH  17  18
ENDBRANCH   9  16
BRANCH   1  30
ATOM     30  C   UNL     1     -31.627  28.873   6.217  0.00  0.00    +0.002 C 
BRANCH  30  31
ATOM     31  C   UNL     1     -31.835  30.372   6.009  0.00  0.00    +0.119 C 
BRANCH  31  32
ATOM     32  O   UNL     1     -33.031  30.590   5.268  0.00  0.00    -0.384 OA
ATOM     33  H   UNL     1     -33.318  31.510   5.382  0.00  0.00    +0.210 HD
ENDBRANCH  31  32
ENDBRANCH  30  31
BRANCH  30  34
ATOM     34  C   UNL     1     -30.223  28.429   5.792  0.00  0.00    +0.119 C 
BRANCH  34  35
ATOM     35  O   UNL     1     -29.703  27.511   6.747  0.00  0.00    -0.384 OA
ATOM     36  H   UNL     1     -28.950  27.036   6.363  0.00  0.00    +0.210 HD
ENDBRANCH  34  35
ENDBRANCH  30  34
ENDBRANCH   1  30
TORSDOF 10
ENDMDL
MODEL 2
REMARK VINA RESULT:      -6.5      1.250      1.719
REMARK  Name = 53492750
REMARK  10 active torsions:
REMARK  status: ('A' for Active; 'I' for Inactive)
REMARK    1  A    between atoms: N_1  and  C_30
REMARK    2  A    between atoms: C_9  and  C_16
REMARK    3  A    between atoms: C_17  and  C_18
REMARK    4  A    between atoms: C_21  and  O_26
REMARK    5  A    between atoms: C_22  and  C_25
REMARK    6  A    between atoms: O_26  and  C_27
REMARK    7  A    between atoms: C_30  and  C_31
REMARK    8  A    between atoms: C_30  and  C_34
REMARK    9  A    between atoms: C_31  and  O_32
REMARK   10  A    between atoms: C_34  and  O_35
REMARK                            x       y       z     vdW  Elec       q    Type
REMARK                         _______ _______ _______ _____ _____    ______ ____
ROOT
ATOM      1  N   UNL     1     -32.638  28.130   5.456  0.00  0.00    +0.394 N 
ATOM      2  C   UNL     1     -32.107  27.737   4.145  0.00  0.00    -0.072 C 
ATOM      3  C   UNL     1     -33.104  26.942   6.193  0.00  0.00    -0.050 C 
ATOM      4  C   UNL     1     -33.237  27.178   3.273  0.00  0.00    +0.003 C 
ATOM      5  C   UNL     1     -34.080  26.157   3.992  0.00  0.00    -0.033 C 
ATOM      6  C   UNL     1     -34.050  26.074   5.394  0.00  0.00    -0.047 C 
ATOM      7  C   UNL     1     -34.944  25.325   3.267  0.00  0.00    -0.016 C 
ATOM      8  C   UNL     1     -34.858  25.135   6.049  0.00  0.00    -0.006 C 
ATOM      9  C   UNL     1     -35.752  24.401   3.929  0.00  0.00    +0.073 C 
ATOM     10  C   UNL     1     -35.707  24.305   5.317  0.00  0.00    +0.010 C 
ATOM     11  C   UNL     1     -35.010  25.433   1.773  0.00  0.00    +0.031 C 
ATOM     12  H   UNL     1     -33.429  28.756   5.309  0.00  0.00    -0.079 HD
ENDROOT
BRANCH   9  16
ATOM     13  O   UNL     1     -38.414  22.630   2.422  0.00  0.00    -0.311 OA
ATOM     14  N   UNL     1     -36.176  22.529   2.410  0.00  0.00    -0.309 NA
ATOM     15  N   UNL     1     -37.973  23.659   3.263  0.00  0.00    -0.007 NA
ATOM     16  C   UNL     1     -36.643  23.535   3.205  0.00  0.00    +0.127 C 
ATOM     17  C   UNL     1     -37.293  22.014   1.962  0.00  0.00    +0.317 C 
BRANCH  17  18
ATOM     18  C   UNL     1     -37.512  20.913   1.068  0.00  0.00    +0.070 C 
ATOM     19  C   UNL     1     -36.512  19.961   0.873  0.00  0.00    +0.019 C 
ATOM     20  C   UNL     1     -38.728  20.795   0.393  0.00  0.00    +0.009 C 
ATOM     21  C   UNL     1     -37.942  18.774  -0.669  0.00  0.00    +0.148 C 
ATOM     22  C   UNL     1     -36.727  18.891   0.004  0.00  0.00    +0.102 C 
ATOM     23  C   UNL     1     -38.943  19.726  -0.475  0.00  0.00    +0.038 C 
BRANCH  22  25
ATOM     24  N   UNL     1     -34.845  17.142  -0.333  0.00  0.00    -0.191 NA
ATOM     25  C   UNL     1     -35.688  17.925  -0.182  0.00  0.00    +0.103 C 
ENDBRANCH  22  25
BRANCH  21  26
ATOM     26  O   UNL     1     -38.178  17.738  -1.525  0.00  0.00    -0.478 OA
BRANCH  26  27
ATOM     27  C   UNL     1     -39.191  16.808  -1.148  0.00  0.00    +0.166 C 
ATOM     28  C   UNL     1     -38.538  15.514  -0.687  0.00  0.00    +0.047 C 
ATOM     29  C   UNL     1     -40.126  16.582  -2.327  0.00  0.00    +0.047 C 
ENDBRANCH  26  27
ENDBRANCH  21  26
ENDBRANCH  17  18
ENDBRANCH   9  16
BRANCH   1  30
ATOM     30  C   UNL     1     -31.626  28.847   6.232  0.00  0.00    +0.002 C 
BRANCH  30  31
ATOM     31  C   UNL     1     -31.801  30.349   6.013  0.00  0.00    +0.119 C 
BRANCH  31  32
ATOM     32  O   UNL     1     -33.001  30.589   5.286  0.00  0.00    -0.384 OA
ATOM     33  H   UNL     1     -32.839  31.266   4.610  0.00  0.00    +0.210 HD
ENDBRANCH  31  32
ENDBRANCH  30  31
BRANCH  30  34
ATOM     34  C   UNL     1     -30.230  28.371   5.818  0.00  0.00    +0.119 C 
BRANCH  34  35
ATOM     35  O   UNL     1     -29.717  27.482   6.805  0.00  0.00    -0.384 OA
ATOM     36  H   UNL     1     -29.708  26.578   6.453  0.00  0.00    +0.210 HD
ENDBRANCH  34  35
ENDBRANCH  30  34
ENDBRANCH   1  30
TORSDOF 10
ENDMDL
MODEL 3
REMARK VINA RESULT:      -6.3      3.003     12.105
REMARK  Name = 53492750
REMARK  10 active torsions:
REMARK  status: ('A' for Active; 'I' for Inactive)
REMARK    1  A    between atoms: N_1  and  C_30
REMARK    2  A    between atoms: C_9  and  C_16
REMARK    3  A    between atoms: C_17  and  C_18
REMARK    4  A    between atoms: C_21  and  O_26
REMARK    5  A    between atoms: C_22  and  C_25
REMARK    6  A    between atoms: O_26  and  C_27
REMARK    7  A    between atoms: C_30  and  C_31
REMARK    8  A    between atoms: C_30  and  C_34
REMARK    9  A    between atoms: C_31  and  O_32
REMARK   10  A    between atoms: C_34  and  O_35
REMARK                            x       y       z     vdW  Elec       q    Type
REMARK                         _______ _______ _______ _____ _____    ______ ____
ROOT
ATOM      1  N   UNL     1     -36.593  21.973   2.382  0.00  0.00    +0.394 N 
ATOM      2  C   UNL     1     -35.984  22.626   1.217  0.00  0.00    -0.072 C 
ATOM      3  C   UNL     1     -37.164  22.982   3.290  0.00  0.00    -0.050 C 
ATOM      4  C   UNL     1     -34.774  23.455   1.659  0.00  0.00    +0.003 C 
ATOM      5  C   UNL     1     -35.070  24.336   2.846  0.00  0.00    -0.033 C 
ATOM      6  C   UNL     1     -36.191  24.080   3.654  0.00  0.00    -0.047 C 
ATOM      7  C   UNL     1     -34.194  25.375   3.184  0.00  0.00    -0.016 C 
ATOM      8  C   UNL     1     -36.440  24.893   4.767  0.00  0.00    -0.006 C 
ATOM      9  C   UNL     1     -34.444  26.172   4.301  0.00  0.00    +0.073 C 
ATOM     10  C   UNL     1     -35.567  25.932   5.090  0.00  0.00    +0.010 C 
ATOM     11  C   UNL     1     -32.975  25.630   2.349  0.00  0.00    +0.031 C 
ATOM     12  H   UNL     1     -35.866  21.458   2.878  0.00  0.00    -0.079 HD
ENDROOT
BRANCH   9  16
ATOM     13  O   UNL     1     -32.182  28.473   5.743  0.00  0.00    -0.311 OA
ATOM     14  N   UNL     1     -33.349  28.311   3.837  0.00  0.00    -0.309 NA
ATOM     15  N   UNL     1     -32.897  27.272   5.825  0.00  0.00    -0.007 NA
ATOM     16  C   UNL     1     -33.561  27.247   4.665  0.00  0.00    +0.127 C 
ATOM     17  C   UNL     1     -32.506  29.022   4.542  0.00  0.00    +0.317 C 
BRANCH  17  18
ATOM     18  C   UNL     1     -31.877  30.277   4.243  0.00  0.00    +0.070 C 
ATOM     19  C   UNL     1     -30.608  30.560   4.747  0.00  0.00    +0.019 C 
ATOM     20  C   UNL     1     -32.537  31.214   3.448  0.00  0.00    +0.009 C 
ATOM     21  C   UNL     1     -30.658  32.717   3.659  0.00  0.00    +0.148 C 
ATOM     22  C   UNL     1     -29.998  31.781   4.455  0.00  0.00    +0.102 C 
ATOM     23  C   UNL     1     -31.928  32.434   3.157  0.00  0.00    +0.038 C 
BRANCH  22  25
ATOM     24  N   UNL     1     -27.639  32.273   5.408  0.00  0.00    -0.191 NA
ATOM     25  C   UNL     1     -28.695  32.052   4.980  0.00  0.00    +0.103 C 
ENDBRANCH  22  25
BRANCH  21  26
ATOM     26  O   UNL     1     -30.085  33.918   3.360  0.00  0.00    -0.478 OA
BRANCH  26  27
ATOM     27  C   UNL     1     -30.713  34.697   2.343  0.00  0.00    +0.166 C 
ATOM     28  C   UNL     1     -29.778  34.809   1.148  0.00  0.00    +0.047 C 
ATOM     29  C   UNL     1     -31.074  36.062   2.910  0.00  0.00    +0.047 C 
ENDBRANCH  26  27
ENDBRANCH  21  26
ENDBRANCH  17  18
ENDBRANCH   9  16
BRANCH   1  30
ATOM     30  C   UNL     1     -37.623  21.021   1.965  0.00  0.00    +0.002 C 
BRANCH  30  31
ATOM     31  C   UNL     1     -37.119  20.242   0.750  0.00  0.00    +0.119 C 
BRANCH  31  32
ATOM     32  O   UNL     1     -36.925  18.877   1.105  0.00  0.00    -0.384 OA
ATOM     33  H   UNL     1     -36.430  18.827   1.938  0.00  0.00    +0.210 HD
ENDBRANCH  31  32
ENDBRANCH  30  31
BRANCH  30  34
ATOM     34  C   UNL     1     -38.922  21.773   1.658  0.00  0.00    +0.119 C 
BRANCH  34  35
ATOM     35  O   UNL     1     -40.034  21.010   2.113  0.00  0.00    -0.384 OA
ATOM     36  H   UNL     1     -39.717  20.262   2.643  0.00  0.00    +0.210 HD
ENDBRANCH  34  35
ENDBRANCH  30  34
ENDBRANCH   1  30
TORSDOF 10
ENDMDL
MODEL 4
REMARK VINA RESULT:      -6.3      4.951     12.483
REMARK  Name = 53492750
REMARK  10 active torsions:
REMARK  status: ('A' for Active; 'I' for Inactive)
REMARK    1  A    between atoms: N_1  and  C_30
REMARK    2  A    between atoms: C_9  and  C_16
REMARK    3  A    between atoms: C_17  and  C_18
REMARK    4  A    between atoms: C_21  and  O_26
REMARK    5  A    between atoms: C_22  and  C_25
REMARK    6  A    between atoms: O_26  and  C_27
REMARK    7  A    between atoms: C_30  and  C_31
REMARK    8  A    between atoms: C_30  and  C_34
REMARK    9  A    between atoms: C_31  and  O_32
REMARK   10  A    between atoms: C_34  and  O_35
REMARK                            x       y       z     vdW  Elec       q    Type
REMARK                         _______ _______ _______ _____ _____    ______ ____
ROOT
ATOM      1  N   UNL     1     -35.207  23.378   3.407  0.00  0.00    +0.394 N 
ATOM      2  C   UNL     1     -36.084  24.067   2.453  0.00  0.00    -0.072 C 
ATOM      3  C   UNL     1     -34.866  24.276   4.525  0.00  0.00    -0.050 C 
ATOM      4  C   UNL     1     -35.323  25.218   1.786  0.00  0.00    +0.003 C 
ATOM      5  C   UNL     1     -34.590  26.087   2.776  0.00  0.00    -0.033 C 
ATOM      6  C   UNL     1     -34.332  25.616   4.074  0.00  0.00    -0.047 C 
ATOM      7  C   UNL     1     -34.110  27.344   2.385  0.00  0.00    -0.016 C 
ATOM      8  C   UNL     1     -33.629  26.427   4.975  0.00  0.00    -0.006 C 
ATOM      9  C   UNL     1     -33.403  28.138   3.286  0.00  0.00    +0.073 C 
ATOM     10  C   UNL     1     -33.164  27.681   4.580  0.00  0.00    +0.010 C 
ATOM     11  C   UNL     1     -34.349  27.837   0.989  0.00  0.00    +0.031 C 
ATOM     12  H   UNL     1     -34.348  23.114   2.924  0.00  0.00    -0.079 HD
ENDROOT
BRANCH   9  16
ATOM     13  O   UNL     1     -31.602  31.018   2.308  0.00  0.00    -0.311 OA
ATOM     14  N   UNL     1     -33.722  30.523   2.838  0.00  0.00    -0.309 NA
ATOM     15  N   UNL     1     -31.619  29.650   2.605  0.00  0.00    -0.007 NA
ATOM     16  C   UNL     1     -32.903  29.433   2.908  0.00  0.00    +0.127 C 
ATOM     17  C   UNL     1     -32.879  31.455   2.469  0.00  0.00    +0.317 C 
BRANCH  17  18
ATOM     18  C   UNL     1     -33.096  32.850   2.212  0.00  0.00    +0.070 C 
ATOM     19  C   UNL     1     -32.201  33.799   2.705  0.00  0.00    +0.019 C 
ATOM     20  C   UNL     1     -34.204  33.256   1.468  0.00  0.00    +0.009 C 
ATOM     21  C   UNL     1     -33.520  35.560   1.708  0.00  0.00    +0.148 C 
ATOM     22  C   UNL     1     -32.413  35.154   2.453  0.00  0.00    +0.102 C 
ATOM     23  C   UNL     1     -34.416  34.611   1.216  0.00  0.00    +0.038 C 
BRANCH  22  25
ATOM     24  N   UNL     1     -30.729  36.891   3.384  0.00  0.00    -0.191 NA
ATOM     25  C   UNL     1     -31.483  36.113   2.967  0.00  0.00    +0.103 C 
ENDBRANCH  22  25
BRANCH  21  26
ATOM     26  O   UNL     1     -33.751  36.879   1.449  0.00  0.00    -0.478 OA
BRANCH  26  27
ATOM     27  C   UNL     1     -34.298  37.199   0.171  0.00  0.00    +0.166 C 
ATOM     28  C   UNL     1     -33.196  37.746  -0.724  0.00  0.00    +0.047 C 
ATOM     29  C   UNL     1     -35.432  38.198   0.347  0.00  0.00    +0.047 C 
ENDBRANCH  26  27
ENDBRANCH  21  26
ENDBRANCH  17  18
ENDBRANCH   9  16
BRANCH   1  30
ATOM     30  C   UNL     1     -35.842  22.159   3.909  0.00  0.00    +0.002 C 
BRANCH  30  31
ATOM     31  C   UNL     1     -35.447  21.956   5.371  0.00  0.00    +0.119 C 
BRANCH  31  32
ATOM     32  O   UNL     1     -35.151  20.583   5.600  0.00  0.00    -0.384 OA
ATOM     33  H   UNL     1     -34.605  20.244   4.873  0.00  0.00    +0.210 HD
ENDBRANCH  31  32
ENDBRANCH  30  31
BRANCH  30  34
ATOM     34  C   UNL     1     -35.426  20.969   3.038  0.00  0.00    +0.119 C 
BRANCH  34  35
ATOM     35  O   UNL     1     -36.503  20.041   2.952  0.00  0.00    -0.384 OA
ATOM     36  H   UNL     1     -36.573  19.550   3.786  0.00  0.00    +0.210 HD
ENDBRANCH  34  35
ENDBRANCH  30  34
ENDBRANCH   1  30
TORSDOF 10
ENDMDL
MODEL 5
REMARK VINA RESULT:      -6.3      5.334      8.664
REMARK  Name = 53492750
REMARK  10 active torsions:
REMARK  status: ('A' for Active; 'I' for Inactive)
REMARK    1  A    between atoms: N_1  and  C_30
REMARK    2  A    between atoms: C_9  and  C_16
REMARK    3  A    between atoms: C_17  and  C_18
REMARK    4  A    between atoms: C_21  and  O_26
REMARK    5  A    between atoms: C_22  and  C_25
REMARK    6  A    between atoms: O_26  and  C_27
REMARK    7  A    between atoms: C_30  and  C_31
REMARK    8  A    between atoms: C_30  and  C_34
REMARK    9  A    between atoms: C_31  and  O_32
REMARK   10  A    between atoms: C_34  and  O_35
REMARK                            x       y       z     vdW  Elec       q    Type
REMARK                         _______ _______ _______ _____ _____    ______ ____
ROOT
ATOM      1  N   UNL     1     -31.869  19.928   0.246  0.00  0.00    +0.394 N 
ATOM      2  C   UNL     1     -32.191  20.973  -0.733  0.00  0.00    -0.072 C 
ATOM      3  C   UNL     1     -33.104  19.298   0.744  0.00  0.00    -0.050 C 
ATOM      4  C   UNL     1     -32.939  22.118  -0.042  0.00  0.00    +0.003 C 
ATOM      5  C   UNL     1     -34.072  21.638   0.827  0.00  0.00    -0.033 C 
ATOM      6  C   UNL     1     -34.126  20.295   1.241  0.00  0.00    -0.047 C 
ATOM      7  C   UNL     1     -35.044  22.541   1.277  0.00  0.00    -0.016 C 
ATOM      8  C   UNL     1     -35.173  19.869   2.069  0.00  0.00    -0.006 C 
ATOM      9  C   UNL     1     -36.076  22.109   2.109  0.00  0.00    +0.073 C 
ATOM     10  C   UNL     1     -36.141  20.774   2.503  0.00  0.00    +0.010 C 
ATOM     11  C   UNL     1     -34.972  23.983   0.871  0.00  0.00    +0.031 C 
ATOM     12  H   UNL     1     -31.381  20.361   1.030  0.00  0.00    -0.079 HD
ENDROOT
BRANCH   9  16
ATOM     13  O   UNL     1     -38.177  24.401   3.790  0.00  0.00    -0.311 OA
ATOM     14  N   UNL     1     -38.198  23.298   1.840  0.00  0.00    -0.309 NA
ATOM     15  N   UNL     1     -37.002  23.640   3.760  0.00  0.00    -0.007 NA
ATOM     16  C   UNL     1     -37.086  23.018   2.580  0.00  0.00    +0.127 C 
ATOM     17  C   UNL     1     -38.823  24.142   2.622  0.00  0.00    +0.317 C 
BRANCH  17  18
ATOM     18  C   UNL     1     -40.070  24.827   2.437  0.00  0.00    +0.070 C 
ATOM     19  C   UNL     1     -40.387  25.928   3.231  0.00  0.00    +0.019 C 
ATOM     20  C   UNL     1     -40.966  24.389   1.461  0.00  0.00    +0.009 C 
ATOM     21  C   UNL     1     -42.495  26.155   2.074  0.00  0.00    +0.148 C 
ATOM     22  C   UNL     1     -41.600  26.593   3.050  0.00  0.00    +0.102 C 
ATOM     23  C   UNL     1     -42.178  25.053   1.280  0.00  0.00    +0.038 C 
BRANCH  22  25
ATOM     24  N   UNL     1     -42.156  28.637   4.543  0.00  0.00    -0.191 NA
ATOM     25  C   UNL     1     -41.907  27.721   3.875  0.00  0.00    +0.103 C 
ENDBRANCH  22  25
BRANCH  21  26
ATOM     26  O   UNL     1     -43.688  26.787   1.876  0.00  0.00    -0.478 OA
BRANCH  26  27
ATOM     27  C   UNL     1     -44.868  26.006   2.052  0.00  0.00    +0.166 C 
ATOM     28  C   UNL     1     -45.966  26.546   1.148  0.00  0.00    +0.047 C 
ATOM     29  C   UNL     1     -45.275  26.038   3.518  0.00  0.00    +0.047 C 
ENDBRANCH  26  27
ENDBRANCH  21  26
ENDBRANCH  17  18
ENDBRANCH   9  16
BRANCH   1  30
ATOM     30  C   UNL     1     -30.985  18.921  -0.343  0.00  0.00    +0.002 C 
BRANCH  30  31
ATOM     31  C   UNL     1     -31.354  17.547   0.216  0.00  0.00    +0.119 C 
BRANCH  31  32
ATOM     32  O   UNL     1     -30.259  17.024   0.960  0.00  0.00    -0.384 OA
ATOM     33  H   UNL     1     -30.265  16.055   0.906  0.00  0.00    +0.210 HD
ENDBRANCH  31  32
ENDBRANCH  30  31
BRANCH  30  34
ATOM     34  C   UNL     1     -29.526  19.282  -0.045  0.00  0.00    +0.119 C 
BRANCH  34  35
ATOM     35  O   UNL     1     -28.672  18.627  -0.977  0.00  0.00    -0.384 OA
ATOM     36  H   UNL     1     -27.757  18.666  -0.660  0.00  0.00    +0.210 HD
ENDBRANCH  34  35
ENDBRANCH  30  34
ENDBRANCH   1  30
TORSDOF 10
ENDMDL
MODEL 6
REMARK VINA RESULT:      -6.2      4.027      7.660
REMARK  Name = 53492750
REMARK  10 active torsions:
REMARK  status: ('A' for Active; 'I' for Inactive)
REMARK    1  A    between atoms: N_1  and  C_30
REMARK    2  A    between atoms: C_9  and  C_16
REMARK    3  A    between atoms: C_17  and  C_18
REMARK    4  A    between atoms: C_21  and  O_26
REMARK    5  A    between atoms: C_22  and  C_25
REMARK    6  A    between atoms: O_26  and  C_27
REMARK    7  A    between atoms: C_30  and  C_31
REMARK    8  A    between atoms: C_30  and  C_34
REMARK    9  A    between atoms: C_31  and  O_32
REMARK   10  A    between atoms: C_34  and  O_35
REMARK                            x       y       z     vdW  Elec       q    Type
REMARK                         _______ _______ _______ _____ _____    ______ ____
ROOT
ATOM      1  N   UNL     1     -30.589  34.786   2.917  0.00  0.00    +0.394 N 
ATOM      2  C   UNL     1     -31.564  34.327   1.921  0.00  0.00    -0.072 C 
ATOM      3  C   UNL     1     -29.708  33.675   3.319  0.00  0.00    -0.050 C 
ATOM      4  C   UNL     1     -32.516  33.309   2.557  0.00  0.00    +0.003 C 
ATOM      5  C   UNL     1     -31.795  32.239   3.337  0.00  0.00    -0.033 C 
ATOM      6  C   UNL     1     -30.463  32.435   3.740  0.00  0.00    -0.047 C 
ATOM      7  C   UNL     1     -32.470  31.072   3.715  0.00  0.00    -0.016 C 
ATOM      8  C   UNL     1     -29.814  31.442   4.485  0.00  0.00    -0.006 C 
ATOM      9  C   UNL     1     -31.818  30.093   4.465  0.00  0.00    +0.073 C 
ATOM     10  C   UNL     1     -30.492  30.278   4.848  0.00  0.00    +0.010 C 
ATOM     11  C   UNL     1     -33.903  30.872   3.321  0.00  0.00    +0.031 C 
ATOM     12  H   UNL     1     -31.098  35.115   3.738  0.00  0.00    -0.079 HD
ENDROOT
BRANCH   9  16
ATOM     13  O   UNL     1     -33.171  27.218   6.011  0.00  0.00    -0.311 OA
ATOM     14  N   UNL     1     -33.307  28.206   4.005  0.00  0.00    -0.309 NA
ATOM     15  N   UNL     1     -32.358  28.355   6.082  0.00  0.00    -0.007 NA
ATOM     16  C   UNL     1     -32.490  28.885   4.862  0.00  0.00    +0.127 C 
ATOM     17  C   UNL     1     -33.692  27.205   4.755  0.00  0.00    +0.317 C 
BRANCH  17  18
ATOM     18  C   UNL     1     -34.570  26.109   4.458  0.00  0.00    +0.070 C 
ATOM     19  C   UNL     1     -34.651  25.022   5.328  0.00  0.00    +0.019 C 
ATOM     20  C   UNL     1     -35.343  26.132   3.297  0.00  0.00    +0.009 C 
ATOM     21  C   UNL     1     -36.278  23.983   3.877  0.00  0.00    +0.148 C 
ATOM     22  C   UNL     1     -35.506  23.959   5.037  0.00  0.00    +0.102 C 
ATOM     23  C   UNL     1     -36.197  25.069   3.006  0.00  0.00    +0.038 C 
BRANCH  22  25
ATOM     24  N   UNL     1     -35.631  21.955   6.676  0.00  0.00    -0.191 NA
ATOM     25  C   UNL     1     -35.575  22.853   5.943  0.00  0.00    +0.103 C 
ENDBRANCH  22  25
BRANCH  21  26
ATOM     26  O   UNL     1     -37.121  22.955   3.568  0.00  0.00    -0.478 OA
BRANCH  26  27
ATOM     27  C   UNL     1     -36.870  22.258   2.350  0.00  0.00    +0.166 C 
ATOM     28  C   UNL     1     -38.166  21.637   1.851  0.00  0.00    +0.047 C 
ATOM     29  C   UNL     1     -35.794  21.209   2.587  0.00  0.00    +0.047 C 
ENDBRANCH  26  27
ENDBRANCH  21  26
ENDBRANCH  17  18
ENDBRANCH   9  16
BRANCH   1  30
ATOM     30  C   UNL     1     -29.797  35.900   2.394  0.00  0.00    +0.002 C 
BRANCH  30  31
ATOM     31  C   UNL     1     -28.643  36.185   3.353  0.00  0.00    +0.119 C 
BRANCH  31  32
ATOM     32  O   UNL     1     -29.051  37.146   4.320  0.00  0.00    -0.384 OA
ATOM     33  H   UNL     1     -28.444  37.120   5.078  0.00  0.00    +0.210 HD
ENDBRANCH  31  32
ENDBRANCH  30  31
BRANCH  30  34
ATOM     34  C   UNL     1     -30.698  37.126   2.208  0.00  0.00    +0.119 C 
BRANCH  34  35
ATOM     35  O   UNL     1     -29.933  38.203   1.676  0.00  0.00    -0.384 OA
ATOM     36  H   UNL     1     -29.114  37.857   1.289  0.00  0.00    +0.210 HD
ENDBRANCH  34  35
ENDBRANCH  30  34
ENDBRANCH   1  30
TORSDOF 10
ENDMDL
MODEL 7
REMARK VINA RESULT:      -6.2      3.073     12.111
REMARK  Name = 53492750
REMARK  10 active torsions:
REMARK  status: ('A' for Active; 'I' for Inactive)
REMARK    1  A    between atoms: N_1  and  C_30
REMARK    2  A    between atoms: C_9  and  C_16
REMARK    3  A    between atoms: C_17  and  C_18
REMARK    4  A    between atoms: C_21  and  O_26
REMARK    5  A    between atoms: C_22  and  C_25
REMARK    6  A    between atoms: O_26  and  C_27
REMARK    7  A    between atoms: C_30  and  C_31
REMARK    8  A    between atoms: C_30  and  C_34
REMARK    9  A    between atoms: C_31  and  O_32
REMARK   10  A    between atoms: C_34  and  O_35
REMARK                            x       y       z     vdW  Elec       q    Type
REMARK                         _______ _______ _______ _____ _____    ______ ____
ROOT
ATOM      1  N   UNL     1     -37.567  23.130   1.362  0.00  0.00    +0.394 N 
ATOM      2  C   UNL     1     -38.166  24.461   1.518  0.00  0.00    -0.072 C 
ATOM      3  C   UNL     1     -36.993  22.677   2.641  0.00  0.00    -0.050 C 
ATOM      4  C   UNL     1     -37.072  25.491   1.820  0.00  0.00    +0.003 C 
ATOM      5  C   UNL     1     -36.131  25.044   2.909  0.00  0.00    -0.033 C 
ATOM      6  C   UNL     1     -36.062  23.688   3.271  0.00  0.00    -0.047 C 
ATOM      7  C   UNL     1     -35.279  25.970   3.523  0.00  0.00    -0.016 C 
ATOM      8  C   UNL     1     -35.165  23.285   4.269  0.00  0.00    -0.006 C 
ATOM      9  C   UNL     1     -34.382  25.557   4.508  0.00  0.00    +0.073 C 
ATOM     10  C   UNL     1     -34.327  24.217   4.882  0.00  0.00    +0.010 C 
ATOM     11  C   UNL     1     -35.320  27.413   3.115  0.00  0.00    +0.031 C 
ATOM     12  H   UNL     1     -36.820  23.192   0.670  0.00  0.00    -0.079 HD
ENDROOT
BRANCH   9  16
ATOM     13  O   UNL     1     -32.587  27.750   6.619  0.00  0.00    -0.311 OA
ATOM     14  N   UNL     1     -32.458  27.070   4.489  0.00  0.00    -0.309 NA
ATOM     15  N   UNL     1     -33.642  26.849   6.435  0.00  0.00    -0.007 NA
ATOM     16  C   UNL     1     -33.500  26.491   5.154  0.00  0.00    +0.127 C 
ATOM     17  C   UNL     1     -31.940  27.823   5.426  0.00  0.00    +0.317 C 
BRANCH  17  18
ATOM     18  C   UNL     1     -30.806  28.702   5.386  0.00  0.00    +0.070 C 
ATOM     19  C   UNL     1     -30.029  28.892   6.528  0.00  0.00    +0.019 C 
ATOM     20  C   UNL     1     -30.482  29.367   4.203  0.00  0.00    +0.009 C 
ATOM     21  C   UNL     1     -28.604  30.411   5.304  0.00  0.00    +0.148 C 
ATOM     22  C   UNL     1     -28.927  29.747   6.487  0.00  0.00    +0.102 C 
ATOM     23  C   UNL     1     -29.381  30.221   4.162  0.00  0.00    +0.038 C 
BRANCH  22  25
ATOM     24  N   UNL     1     -27.506  30.077   8.629  0.00  0.00    -0.191 NA
ATOM     25  C   UNL     1     -28.142  29.929   7.670  0.00  0.00    +0.103 C 
ENDBRANCH  22  25
BRANCH  21  26
ATOM     26  O   UNL     1     -27.532  31.252   5.237  0.00  0.00    -0.478 OA
BRANCH  26  27
ATOM     27  C   UNL     1     -27.803  32.650   5.319  0.00  0.00    +0.166 C 
ATOM     28  C   UNL     1     -27.497  33.300   3.979  0.00  0.00    +0.047 C 
ATOM     29  C   UNL     1     -26.976  33.255   6.445  0.00  0.00    +0.047 C 
ENDBRANCH  26  27
ENDBRANCH  21  26
ENDBRANCH  17  18
ENDBRANCH   9  16
BRANCH   1  30
ATOM     30  C   UNL     1     -38.558  22.168   0.880  0.00  0.00    +0.002 C 
BRANCH  30  31
ATOM     31  C   UNL     1     -38.824  22.427  -0.602  0.00  0.00    +0.119 C 
BRANCH  31  32
ATOM     32  O   UNL     1     -39.765  21.479  -1.092  0.00  0.00    -0.384 OA
ATOM     33  H   UNL     1     -39.304  20.815  -1.630  0.00  0.00    +0.210 HD
ENDBRANCH  31  32
ENDBRANCH  30  31
BRANCH  30  34
ATOM     34  C   UNL     1     -39.837  22.286   1.716  0.00  0.00    +0.119 C 
BRANCH  34  35
ATOM     35  O   UNL     1     -40.358  20.987   1.977  0.00  0.00    -0.384 OA
ATOM     36  H   UNL     1     -40.429  20.854   2.935  0.00  0.00    +0.210 HD
ENDBRANCH  34  35
ENDBRANCH  30  34
ENDBRANCH   1  30
TORSDOF 10
ENDMDL
MODEL 8
REMARK VINA RESULT:      -6.2      3.809      7.660
REMARK  Name = 53492750
REMARK  10 active torsions:
REMARK  status: ('A' for Active; 'I' for Inactive)
REMARK    1  A    between atoms: N_1  and  C_30
REMARK    2  A    between atoms: C_9  and  C_16
REMARK    3  A    between atoms: C_17  and  C_18
REMARK    4  A    between atoms: C_21  and  O_26
REMARK    5  A    between atoms: C_22  and  C_25
REMARK    6  A    between atoms: O_26  and  C_27
REMARK    7  A    between atoms: C_30  and  C_31
REMARK    8  A    between atoms: C_30  and  C_34
REMARK    9  A    between atoms: C_31  and  O_32
REMARK   10  A    between atoms: C_34  and  O_35
REMARK                            x       y       z     vdW  Elec       q    Type
REMARK                         _______ _______ _______ _____ _____    ______ ____
ROOT
ATOM      1  N   UNL     1     -28.009  33.396   3.804  0.00  0.00    +0.394 N 
ATOM      2  C   UNL     1     -27.681  32.930   5.157  0.00  0.00    -0.072 C 
ATOM      3  C   UNL     1     -29.470  33.492   3.639  0.00  0.00    -0.050 C 
ATOM      4  C   UNL     1     -28.172  31.491   5.344  0.00  0.00    +0.003 C 
ATOM      5  C   UNL     1     -29.596  31.293   4.890  0.00  0.00    -0.033 C 
ATOM      6  C   UNL     1     -30.202  32.230   4.036  0.00  0.00    -0.047 C 
ATOM      7  C   UNL     1     -30.300  30.144   5.270  0.00  0.00    -0.016 C 
ATOM      8  C   UNL     1     -31.518  32.021   3.604  0.00  0.00    -0.006 C 
ATOM      9  C   UNL     1     -31.606  29.939   4.825  0.00  0.00    +0.073 C 
ATOM     10  C   UNL     1     -32.214  30.877   3.995  0.00  0.00    +0.010 C 
ATOM     11  C   UNL     1     -29.646  29.120   6.150  0.00  0.00    +0.031 C 
ATOM     12  H   UNL     1     -27.646  32.718   3.134  0.00  0.00    -0.079 HD
ENDROOT
BRANCH   9  16
ATOM     13  O   UNL     1     -33.155  27.147   6.340  0.00  0.00    -0.311 OA
ATOM     14  N   UNL     1     -33.160  28.116   4.321  0.00  0.00    -0.309 NA
ATOM     15  N   UNL     1     -32.294  28.246   6.435  0.00  0.00    -0.007 NA
ATOM     16  C   UNL     1     -32.349  28.767   5.205  0.00  0.00    +0.127 C 
ATOM     17  C   UNL     1     -33.622  27.143   5.063  0.00  0.00    +0.317 C 
BRANCH  17  18
ATOM     18  C   UNL     1     -34.537  26.086   4.740  0.00  0.00    +0.070 C 
ATOM     19  C   UNL     1     -34.531  24.905   5.482  0.00  0.00    +0.019 C 
ATOM     20  C   UNL     1     -35.432  26.239   3.680  0.00  0.00    +0.009 C 
ATOM     21  C   UNL     1     -36.316  24.033   4.107  0.00  0.00    +0.148 C 
ATOM     22  C   UNL     1     -35.421  23.878   5.165  0.00  0.00    +0.102 C 
ATOM     23  C   UNL     1     -36.321  25.214   3.364  0.00  0.00    +0.038 C 
BRANCH  22  25
ATOM     24  N   UNL     1     -35.383  21.698   6.566  0.00  0.00    -0.191 NA
ATOM     25  C   UNL     1     -35.400  22.674   5.939  0.00  0.00    +0.103 C 
ENDBRANCH  22  25
BRANCH  21  26
ATOM     26  O   UNL     1     -37.196  23.045   3.776  0.00  0.00    -0.478 OA
BRANCH  26  27
ATOM     27  C   UNL     1     -37.068  22.475   2.475  0.00  0.00    +0.166 C 
ATOM     28  C   UNL     1     -38.430  21.991   2.003  0.00  0.00    +0.047 C 
ATOM     29  C   UNL     1     -36.051  21.344   2.523  0.00  0.00    +0.047 C 
ENDBRANCH  26  27
ENDBRANCH  21  26
ENDBRANCH  17  18
ENDBRANCH   9  16
BRANCH   1  30
ATOM     30  C   UNL     1     -27.379  34.689   3.534  0.00  0.00    +0.002 C 
BRANCH  30  31
ATOM     31  C   UNL     1     -27.278  35.477   4.839  0.00  0.00    +0.119 C 
BRANCH  31  32
ATOM     32  O   UNL     1     -28.197  36.562   4.815  0.00  0.00    -0.384 OA
ATOM     33  H   UNL     1     -27.833  37.306   5.321  0.00  0.00    +0.210 HD
ENDBRANCH  31  32
ENDBRANCH  30  31
BRANCH  30  34
ATOM     34  C   UNL     1     -28.192  35.443   2.476  0.00  0.00    +0.119 C 
BRANCH  34  35
ATOM     35  O   UNL     1     -27.408  36.503   1.938  0.00  0.00    -0.384 OA
ATOM     36  H   UNL     1     -26.998  36.212   1.108  0.00  0.00    +0.210 HD
ENDBRANCH  34  35
ENDBRANCH  30  34
ENDBRANCH   1  30
TORSDOF 10
ENDMDL
MODEL 9
REMARK VINA RESULT:      -6.2      3.120     11.872
REMARK  Name = 53492750
REMARK  10 active torsions:
REMARK  status: ('A' for Active; 'I' for Inactive)
REMARK    1  A    between atoms: N_1  and  C_30
REMARK    2  A    between atoms: C_9  and  C_16
REMARK    3  A    between atoms: C_17  and  C_18
REMARK    4  A    between atoms: C_21  and  O_26
REMARK    5  A    between atoms: C_22  and  C_25
REMARK    6  A    between atoms: O_26  and  C_27
REMARK    7  A    between atoms: C_30  and  C_31
REMARK    8  A    between atoms: C_30  and  C_34
REMARK    9  A    between atoms: C_31  and  O_32
REMARK   10  A    between atoms: C_34  and  O_35
REMARK                            x       y       z     vdW  Elec       q    Type
REMARK                         _______ _______ _______ _____ _____    ______ ____
ROOT
ATOM      1  N   UNL     1     -36.620  21.973   2.326  0.00  0.00    +0.394 N 
ATOM      2  C   UNL     1     -36.074  22.648   1.143  0.00  0.00    -0.072 C 
ATOM      3  C   UNL     1     -37.180  22.962   3.263  0.00  0.00    -0.050 C 
ATOM      4  C   UNL     1     -34.868  23.504   1.544  0.00  0.00    +0.003 C 
ATOM      5  C   UNL     1     -35.138  24.369   2.748  0.00  0.00    -0.033 C 
ATOM      6  C   UNL     1     -36.221  24.082   3.597  0.00  0.00    -0.047 C 
ATOM      7  C   UNL     1     -34.275  25.427   3.059  0.00  0.00    -0.016 C 
ATOM      8  C   UNL     1     -36.445  24.881   4.725  0.00  0.00    -0.006 C 
ATOM      9  C   UNL     1     -34.501  26.211   4.191  0.00  0.00    +0.073 C 
ATOM     10  C   UNL     1     -35.585  25.939   5.021  0.00  0.00    +0.010 C 
ATOM     11  C   UNL     1     -33.095  25.717   2.180  0.00  0.00    +0.031 C 
ATOM     12  H   UNL     1     -35.863  21.473   2.791  0.00  0.00    -0.079 HD
ENDROOT
BRANCH   9  16
ATOM     13  O   UNL     1     -32.205  28.536   5.537  0.00  0.00    -0.311 OA
ATOM     14  N   UNL     1     -33.540  28.417   3.742  0.00  0.00    -0.309 NA
ATOM     15  N   UNL     1     -32.860  27.302   5.621  0.00  0.00    -0.007 NA
ATOM     16  C   UNL     1     -33.630  27.305   4.528  0.00  0.00    +0.127 C 
ATOM     17  C   UNL     1     -32.662  29.129   4.403  0.00  0.00    +0.317 C 
BRANCH  17  18
ATOM     18  C   UNL     1     -32.115  30.424   4.114  0.00  0.00    +0.070 C 
ATOM     19  C   UNL     1     -32.779  31.285   3.241  0.00  0.00    +0.019 C 
ATOM     20  C   UNL     1     -30.916  30.821   4.708  0.00  0.00    +0.009 C 
ATOM     21  C   UNL     1     -31.048  32.940   3.556  0.00  0.00    +0.148 C 
ATOM     22  C   UNL     1     -32.245  32.543   2.962  0.00  0.00    +0.102 C 
ATOM     23  C   UNL     1     -30.383  32.078   4.429  0.00  0.00    +0.038 C 
BRANCH  22  25
ATOM     24  N   UNL     1     -33.508  34.117   1.335  0.00  0.00    -0.191 NA
ATOM     25  C   UNL     1     -32.942  33.412   2.063  0.00  0.00    +0.103 C 
ENDBRANCH  22  25
BRANCH  21  26
ATOM     26  O   UNL     1     -30.504  34.164   3.300  0.00  0.00    -0.478 OA
BRANCH  26  27
ATOM     27  C   UNL     1     -29.137  34.191   2.896  0.00  0.00    +0.166 C 
ATOM     28  C   UNL     1     -28.541  35.549   3.233  0.00  0.00    +0.047 C 
ATOM     29  C   UNL     1     -29.049  33.888   1.407  0.00  0.00    +0.047 C 
ENDBRANCH  26  27
ENDBRANCH  21  26
ENDBRANCH  17  18
ENDBRANCH   9  16
BRANCH   1  30
ATOM     30  C   UNL     1     -37.643  20.999   1.942  0.00  0.00    +0.002 C 
BRANCH  30  31
ATOM     31  C   UNL     1     -37.131  20.180   0.759  0.00  0.00    +0.119 C 
BRANCH  31  32
ATOM     32  O   UNL     1     -36.695  18.903   1.213  0.00  0.00    -0.384 OA
ATOM     33  H   UNL     1     -37.444  18.285   1.205  0.00  0.00    +0.210 HD
ENDBRANCH  31  32
ENDBRANCH  30  31
BRANCH  30  34
ATOM     34  C   UNL     1     -38.947  21.730   1.606  0.00  0.00    +0.119 C 
BRANCH  34  35
ATOM     35  O   UNL     1     -40.053  20.989   2.110  0.00  0.00    -0.384 OA
ATOM     36  H   UNL     1     -40.191  20.201   1.562  0.00  0.00    +0.210 HD
ENDBRANCH  34  35
ENDBRANCH  30  34
ENDBRANCH   1  30
TORSDOF 10
ENDMDL
