MODEL 1
REMARK VINA RESULT:      -6.7      0.000      0.000
REMARK  Name = 5487419
REMARK  9 active torsions:
REMARK  status: ('A' for Active; 'I' for Inactive)
REMARK    1  A    between atoms: C_1  and  C_4
REMARK    2  A    between atoms: C_1  and  C_16
REMARK    3  A    between atoms: C_1  and  C_19
REMARK    4  A    between atoms: C_12  and  O_13
REMARK    5  A    between atoms: C_16  and  O_17
REMARK    6  A    between atoms: C_19  and  C_20
REMARK    7  A    between atoms: C_19  and  C_28
REMARK    8  A    between atoms: C_25  and  O_26
REMARK    9  A    between atoms: C_33  and  O_34
REMARK                            x       y       z     vdW  Elec       q    Type
REMARK                         _______ _______ _______ _____ _____    ______ ____
ROOT
ATOM      1  C   UNL     1     -36.113  21.489   1.833  0.00  0.00    +0.135 C 
ENDROOT
BRANCH   1   4
ATOM      2  O   UNL     1     -34.044  24.673   1.968  0.00  0.00    -0.450 OA
ATOM      3  O   UNL     1     -36.272  22.417   4.537  0.00  0.00    -0.287 OA
ATOM      4  C   UNL     1     -35.438  22.723   2.334  0.00  0.00    +0.065 C 
ATOM      5  C   UNL     1     -35.604  23.091   3.764  0.00  0.00    +0.198 C 
ATOM      6  C   UNL     1     -34.688  23.527   1.571  0.00  0.00    +0.179 C 
ATOM      7  C   UNL     1     -34.919  24.319   4.206  0.00  0.00    +0.073 C 
ATOM      8  C   UNL     1     -34.171  25.050   3.282  0.00  0.00    +0.151 C 
ATOM      9  C   UNL     1     -35.012  24.750   5.532  0.00  0.00    +0.009 C 
ATOM     10  C   UNL     1     -33.513  26.215   3.678  0.00  0.00    +0.074 C 
ATOM     11  C   UNL     1     -34.354  25.916   5.926  0.00  0.00    +0.037 C 
ATOM     12  C   UNL     1     -33.606  26.646   5.001  0.00  0.00    +0.137 C 
BRANCH  12  13
ATOM     13  O   UNL     1     -32.968  27.783   5.393  0.00  0.00    -0.505 OA
ATOM     14  H   UNL     1     -32.117  27.982   5.054  0.00  0.00    +0.292 HD
ENDBRANCH  12  13
ENDBRANCH   1   4
BRANCH   1  16
ATOM     15  O   UNL     1     -38.055  22.751   1.051  0.00  0.00    -0.250 OA
ATOM     16  C   UNL     1     -37.590  21.841   1.722  0.00  0.00    +0.318 C 
BRANCH  16  17
ATOM     17  O   UNL     1     -38.345  21.021   2.498  0.00  0.00    -0.480 OA
ATOM     18  H   UNL     1     -38.194  20.096   2.488  0.00  0.00    +0.295 HD
ENDBRANCH  16  17
ENDBRANCH   1  16
BRANCH   1  19
ATOM     19  C   UNL     1     -35.569  21.007   0.453  0.00  0.00    +0.059 C 
BRANCH  19  20
ATOM     20  C   UNL     1     -36.562  20.172  -0.355  0.00  0.00    -0.017 C 
ATOM     21  C   UNL     1     -37.011  20.664  -1.559  0.00  0.00    -0.001 C 
ATOM     22  C   UNL     1     -36.970  18.959   0.152  0.00  0.00    -0.001 C 
ATOM     23  C   UNL     1     -37.918  19.902  -2.296  0.00  0.00    +0.036 C 
ATOM     24  C   UNL     1     -37.877  18.197  -0.585  0.00  0.00    +0.036 C 
ATOM     25  C   UNL     1     -38.351  18.668  -1.810  0.00  0.00    +0.134 C 
BRANCH  25  26
ATOM     26  O   UNL     1     -39.236  17.926  -2.528  0.00  0.00    -0.506 OA
ATOM     27  H   UNL     1     -40.027  18.317  -2.845  0.00  0.00    +0.292 HD
ENDBRANCH  25  26
ENDBRANCH  19  20
BRANCH  19  28
ATOM     28  C   UNL     1     -34.222  20.291   0.546  0.00  0.00    -0.017 C 
ATOM     29  C   UNL     1     -33.177  20.746  -0.226  0.00  0.00    -0.001 C 
ATOM     30  C   UNL     1     -34.102  19.217   1.399  0.00  0.00    -0.001 C 
ATOM     31  C   UNL     1     -31.948  20.092  -0.141  0.00  0.00    +0.036 C 
ATOM     32  C   UNL     1     -32.873  18.563   1.484  0.00  0.00    +0.036 C 
ATOM     33  C   UNL     1     -31.796  19.002   0.714  0.00  0.00    +0.134 C 
BRANCH  33  34
ATOM     34  O   UNL     1     -30.595  18.364   0.796  0.00  0.00    -0.506 OA
ATOM     35  H   UNL     1     -30.500  17.499   0.449  0.00  0.00    +0.292 HD
ENDBRANCH  33  34
ENDBRANCH  19  28
ENDBRANCH   1  19
TORSDOF 9
ENDMDL
MODEL 2
REMARK VINA RESULT:      -6.7      2.613      6.357
REMARK  Name = 5487419
REMARK  9 active torsions:
REMARK  status: ('A' for Active; 'I' for Inactive)
REMARK    1  A    between atoms: C_1  and  C_4
REMARK    2  A    between atoms: C_1  and  C_16
REMARK    3  A    between atoms: C_1  and  C_19
REMARK    4  A    between atoms: C_12  and  O_13
REMARK    5  A    between atoms: C_16  and  O_17
REMARK    6  A    between atoms: C_19  and  C_20
REMARK    7  A    between atoms: C_19  and  C_28
REMARK    8  A    between atoms: C_25  and  O_26
REMARK    9  A    between atoms: C_33  and  O_34
REMARK                            x       y       z     vdW  Elec       q    Type
REMARK                         _______ _______ _______ _____ _____    ______ ____
ROOT
ATOM      1  C   UNL     1     -37.896  22.278   1.185  0.00  0.00    +0.135 C 
ENDROOT
BRANCH   1   4
ATOM      2  O   UNL     1     -35.376  19.570   2.057  0.00  0.00    -0.450 OA
ATOM      3  O   UNL     1     -35.554  22.857  -0.355  0.00  0.00    -0.287 OA
ATOM      4  C   UNL     1     -36.648  21.459   1.222  0.00  0.00    +0.065 C 
ATOM      5  C   UNL     1     -35.504  21.873   0.370  0.00  0.00    +0.198 C 
ATOM      6  C   UNL     1     -36.494  20.366   1.979  0.00  0.00    +0.179 C 
ATOM      7  C   UNL     1     -34.297  21.029   0.442  0.00  0.00    +0.073 C 
ATOM      8  C   UNL     1     -34.296  19.917   1.286  0.00  0.00    +0.151 C 
ATOM      9  C   UNL     1     -33.166  21.334  -0.319  0.00  0.00    +0.009 C 
ATOM     10  C   UNL     1     -33.164  19.104   1.371  0.00  0.00    +0.074 C 
ATOM     11  C   UNL     1     -32.037  20.520  -0.234  0.00  0.00    +0.037 C 
ATOM     12  C   UNL     1     -32.036  19.408   0.610  0.00  0.00    +0.137 C 
BRANCH  12  13
ATOM     13  O   UNL     1     -30.930  18.617   0.688  0.00  0.00    -0.505 OA
ATOM     14  H   UNL     1     -30.801  18.065   1.435  0.00  0.00    +0.292 HD
ENDBRANCH  12  13
ENDBRANCH   1   4
BRANCH   1  16
ATOM     15  O   UNL     1     -39.441  20.785   0.019  0.00  0.00    -0.250 OA
ATOM     16  C   UNL     1     -39.041  21.281   1.062  0.00  0.00    +0.318 C 
BRANCH  16  17
ATOM     17  O   UNL     1     -39.594  21.024   2.275  0.00  0.00    -0.480 OA
ATOM     18  H   UNL     1     -40.075  20.231   2.412  0.00  0.00    +0.295 HD
ENDBRANCH  16  17
ENDBRANCH   1  16
BRANCH   1  19
ATOM     19  C   UNL     1     -38.088  23.164   2.455  0.00  0.00    +0.059 C 
BRANCH  19  20
ATOM     20  C   UNL     1     -39.066  24.323   2.267  0.00  0.00    -0.017 C 
ATOM     21  C   UNL     1     -39.261  24.825   1.001  0.00  0.00    -0.001 C 
ATOM     22  C   UNL     1     -39.717  24.823   3.373  0.00  0.00    -0.001 C 
ATOM     23  C   UNL     1     -40.153  25.883   0.830  0.00  0.00    +0.036 C 
ATOM     24  C   UNL     1     -40.609  25.882   3.202  0.00  0.00    +0.036 C 
ATOM     25  C   UNL     1     -40.828  26.412   1.930  0.00  0.00    +0.134 C 
BRANCH  25  26
ATOM     26  O   UNL     1     -41.697  27.445   1.764  0.00  0.00    -0.506 OA
ATOM     27  H   UNL     1     -42.588  27.357   2.042  0.00  0.00    +0.292 HD
ENDBRANCH  25  26
ENDBRANCH  19  20
BRANCH  19  28
ATOM     28  C   UNL     1     -36.774  23.667   3.051  0.00  0.00    -0.017 C 
ATOM     29  C   UNL     1     -36.127  24.714   2.434  0.00  0.00    -0.001 C 
ATOM     30  C   UNL     1     -36.285  23.056   4.183  0.00  0.00    -0.001 C 
ATOM     31  C   UNL     1     -34.927  25.173   2.978  0.00  0.00    +0.036 C 
ATOM     32  C   UNL     1     -35.085  23.515   4.728  0.00  0.00    +0.036 C 
ATOM     33  C   UNL     1     -34.407  24.574   4.125  0.00  0.00    +0.134 C 
BRANCH  33  34
ATOM     34  O   UNL     1     -33.236  25.023   4.655  0.00  0.00    -0.506 OA
ATOM     35  H   UNL     1     -32.542  25.301   4.090  0.00  0.00    +0.292 HD
ENDBRANCH  33  34
ENDBRANCH  19  28
ENDBRANCH   1  19
TORSDOF 9
ENDMDL
MODEL 3
REMARK VINA RESULT:      -6.5      2.362      6.679
REMARK  Name = 5487419
REMARK  9 active torsions:
REMARK  status: ('A' for Active; 'I' for Inactive)
REMARK    1  A    between atoms: C_1  and  C_4
REMARK    2  A    between atoms: C_1  and  C_16
REMARK    3  A    between atoms: C_1  and  C_19
REMARK    4  A    between atoms: C_12  and  O_13
REMARK    5  A    between atoms: C_16  and  O_17
REMARK    6  A    between atoms: C_19  and  C_20
REMARK    7  A    between atoms: C_19  and  C_28
REMARK    8  A    between atoms: C_25  and  O_26
REMARK    9  A    between atoms: C_33  and  O_34
REMARK                            x       y       z     vdW  Elec       q    Type
REMARK                         _______ _______ _______ _____ _____    ______ ____
ROOT
ATOM      1  C   UNL     1     -35.989  23.173   1.063  0.00  0.00    +0.135 C 
ENDROOT
BRANCH   1   4
ATOM      2  O   UNL     1     -34.789  19.730   2.131  0.00  0.00    -0.450 OA
ATOM      3  O   UNL     1     -33.539  22.723  -0.346  0.00  0.00    -0.287 OA
ATOM      4  C   UNL     1     -35.170  21.931   1.188  0.00  0.00    +0.065 C 
ATOM      5  C   UNL     1     -33.916  21.827   0.398  0.00  0.00    +0.198 C 
ATOM      6  C   UNL     1     -35.496  20.897   1.972  0.00  0.00    +0.179 C 
ATOM      7  C   UNL     1     -33.146  20.580   0.556  0.00  0.00    +0.073 C 
ATOM      8  C   UNL     1     -33.624  19.592   1.419  0.00  0.00    +0.151 C 
ATOM      9  C   UNL     1     -31.952  20.385  -0.143  0.00  0.00    +0.009 C 
ATOM     10  C   UNL     1     -32.911  18.403   1.584  0.00  0.00    +0.074 C 
ATOM     11  C   UNL     1     -31.242  19.196   0.024  0.00  0.00    +0.037 C 
ATOM     12  C   UNL     1     -31.720  18.208   0.886  0.00  0.00    +0.137 C 
BRANCH  12  13
ATOM     13  O   UNL     1     -31.021  17.050   1.044  0.00  0.00    -0.505 OA
ATOM     14  H   UNL     1     -30.800  16.531   0.295  0.00  0.00    +0.292 HD
ENDBRANCH  12  13
ENDBRANCH   1   4
BRANCH   1  16
ATOM     15  O   UNL     1     -37.830  21.947   0.022  0.00  0.00    -0.250 OA
ATOM     16  C   UNL     1     -37.034  22.874  -0.003  0.00  0.00    +0.318 C 
BRANCH  16  17
ATOM     17  O   UNL     1     -36.956  23.767  -1.024  0.00  0.00    -0.480 OA
ATOM     18  H   UNL     1     -37.367  24.605  -0.946  0.00  0.00    +0.295 HD
ENDBRANCH  16  17
ENDBRANCH   1  16
BRANCH   1  19
ATOM     19  C   UNL     1     -36.685  23.588   2.396  0.00  0.00    +0.059 C 
BRANCH  19  20
ATOM     20  C   UNL     1     -37.983  24.373   2.208  0.00  0.00    -0.017 C 
ATOM     21  C   UNL     1     -37.914  25.646   1.691  0.00  0.00    -0.001 C 
ATOM     22  C   UNL     1     -39.172  23.778   2.564  0.00  0.00    -0.001 C 
ATOM     23  C   UNL     1     -39.099  26.363   1.519  0.00  0.00    +0.036 C 
ATOM     24  C   UNL     1     -40.356  24.495   2.392  0.00  0.00    +0.036 C 
ATOM     25  C   UNL     1     -40.320  25.787   1.869  0.00  0.00    +0.134 C 
BRANCH  25  26
ATOM     26  O   UNL     1     -41.475  26.487   1.703  0.00  0.00    -0.506 OA
ATOM     27  H   UNL     1     -42.172  26.126   1.191  0.00  0.00    +0.292 HD
ENDBRANCH  25  26
ENDBRANCH  19  20
BRANCH  19  28
ATOM     28  C   UNL     1     -35.756  24.319   3.366  0.00  0.00    -0.017 C 
ATOM     29  C   UNL     1     -34.578  24.843   2.883  0.00  0.00    -0.001 C 
ATOM     30  C   UNL     1     -36.131  24.427   4.686  0.00  0.00    -0.001 C 
ATOM     31  C   UNL     1     -33.731  25.510   3.768  0.00  0.00    +0.036 C 
ATOM     32  C   UNL     1     -35.284  25.094   5.571  0.00  0.00    +0.036 C 
ATOM     33  C   UNL     1     -34.084  25.636   5.111  0.00  0.00    +0.134 C 
BRANCH  33  34
ATOM     34  O   UNL     1     -33.256  26.287   5.974  0.00  0.00    -0.506 OA
ATOM     35  H   UNL     1     -32.426  25.915   6.198  0.00  0.00    +0.292 HD
ENDBRANCH  33  34
ENDBRANCH  19  28
ENDBRANCH   1  19
TORSDOF 9
ENDMDL
MODEL 4
REMARK VINA RESULT:      -6.4      3.699      6.228
REMARK  Name = 5487419
REMARK  9 active torsions:
REMARK  status: ('A' for Active; 'I' for Inactive)
REMARK    1  A    between atoms: C_1  and  C_4
REMARK    2  A    between atoms: C_1  and  C_16
REMARK    3  A    between atoms: C_1  and  C_19
REMARK    4  A    between atoms: C_12  and  O_13
REMARK    5  A    between atoms: C_16  and  O_17
REMARK    6  A    between atoms: C_19  and  C_20
REMARK    7  A    between atoms: C_19  and  C_28
REMARK    8  A    between atoms: C_25  and  O_26
REMARK    9  A    between atoms: C_33  and  O_34
REMARK                            x       y       z     vdW  Elec       q    Type
REMARK                         _______ _______ _______ _____ _____    ______ ____
ROOT
ATOM      1  C   UNL     1     -37.875  23.306   2.310  0.00  0.00    +0.135 C 
ENDROOT
BRANCH   1   4
ATOM      2  O   UNL     1     -39.364  26.075   0.176  0.00  0.00    -0.450 OA
ATOM      3  O   UNL     1     -39.982  24.455   3.871  0.00  0.00    -0.287 OA
ATOM      4  C   UNL     1     -38.734  24.438   1.850  0.00  0.00    +0.065 C 
ATOM      5  C   UNL     1     -39.794  24.939   2.762  0.00  0.00    +0.198 C 
ATOM      6  C   UNL     1     -38.609  25.033   0.659  0.00  0.00    +0.179 C 
ATOM      7  C   UNL     1     -40.614  26.056   2.259  0.00  0.00    +0.073 C 
ATOM      8  C   UNL     1     -40.355  26.569   0.987  0.00  0.00    +0.151 C 
ATOM      9  C   UNL     1     -41.636  26.600   3.041  0.00  0.00    +0.009 C 
ATOM     10  C   UNL     1     -41.119  27.626   0.490  0.00  0.00    +0.074 C 
ATOM     11  C   UNL     1     -42.398  27.656   2.542  0.00  0.00    +0.037 C 
ATOM     12  C   UNL     1     -42.139  28.169   1.270  0.00  0.00    +0.137 C 
BRANCH  12  13
ATOM     13  O   UNL     1     -42.887  29.200   0.789  0.00  0.00    -0.505 OA
ATOM     14  H   UNL     1     -43.476  29.057   0.074  0.00  0.00    +0.292 HD
ENDBRANCH  12  13
ENDBRANCH   1   4
BRANCH   1  16
ATOM     15  O   UNL     1     -38.284  21.976   0.300  0.00  0.00    -0.250 OA
ATOM     16  C   UNL     1     -38.334  22.090   1.516  0.00  0.00    +0.318 C 
BRANCH  16  17
ATOM     17  O   UNL     1     -38.841  21.136   2.338  0.00  0.00    -0.480 OA
ATOM     18  H   UNL     1     -38.896  20.247   2.048  0.00  0.00    +0.295 HD
ENDBRANCH  16  17
ENDBRANCH   1  16
BRANCH   1  19
ATOM     19  C   UNL     1     -36.353  23.556   2.081  0.00  0.00    +0.059 C 
BRANCH  19  20
ATOM     20  C   UNL     1     -35.545  22.289   1.800  0.00  0.00    -0.017 C 
ATOM     21  C   UNL     1     -35.509  21.303   2.758  0.00  0.00    -0.001 C 
ATOM     22  C   UNL     1     -34.884  22.181   0.597  0.00  0.00    -0.001 C 
ATOM     23  C   UNL     1     -34.772  20.146   2.502  0.00  0.00    +0.036 C 
ATOM     24  C   UNL     1     -34.146  21.025   0.340  0.00  0.00    +0.036 C 
ATOM     25  C   UNL     1     -34.091  20.007   1.292  0.00  0.00    +0.134 C 
BRANCH  25  26
ATOM     26  O   UNL     1     -33.370  18.881   1.042  0.00  0.00    -0.506 OA
ATOM     27  H   UNL     1     -33.748  18.038   1.204  0.00  0.00    +0.292 HD
ENDBRANCH  25  26
ENDBRANCH  19  20
BRANCH  19  28
ATOM     28  C   UNL     1     -35.695  24.370   3.195  0.00  0.00    -0.017 C 
ATOM     29  C   UNL     1     -34.465  24.939   2.958  0.00  0.00    -0.001 C 
ATOM     30  C   UNL     1     -36.358  24.506   4.394  0.00  0.00    -0.001 C 
ATOM     31  C   UNL     1     -33.865  25.683   3.974  0.00  0.00    +0.036 C 
ATOM     32  C   UNL     1     -35.758  25.249   5.411  0.00  0.00    +0.036 C 
ATOM     33  C   UNL     1     -34.511  25.838   5.200  0.00  0.00    +0.134 C 
BRANCH  33  34
ATOM     34  O   UNL     1     -33.925  26.564   6.192  0.00  0.00    -0.506 OA
ATOM     35  H   UNL     1     -34.245  27.420   6.398  0.00  0.00    +0.292 HD
ENDBRANCH  33  34
ENDBRANCH  19  28
ENDBRANCH   1  19
TORSDOF 9
ENDMDL
MODEL 5
REMARK VINA RESULT:      -6.4      2.096      4.582
REMARK  Name = 5487419
REMARK  9 active torsions:
REMARK  status: ('A' for Active; 'I' for Inactive)
REMARK    1  A    between atoms: C_1  and  C_4
REMARK    2  A    between atoms: C_1  and  C_16
REMARK    3  A    between atoms: C_1  and  C_19
REMARK    4  A    between atoms: C_12  and  O_13
REMARK    5  A    between atoms: C_16  and  O_17
REMARK    6  A    between atoms: C_19  and  C_20
REMARK    7  A    between atoms: C_19  and  C_28
REMARK    8  A    between atoms: C_25  and  O_26
REMARK    9  A    between atoms: C_33  and  O_34
REMARK                            x       y       z     vdW  Elec       q    Type
REMARK                         _______ _______ _______ _____ _____    ______ ____
ROOT
ATOM      1  C   UNL     1     -36.105  21.698   1.647  0.00  0.00    +0.135 C 
ENDROOT
BRANCH   1   4
ATOM      2  O   UNL     1     -35.550  23.429   4.983  0.00  0.00    -0.450 OA
ATOM      3  O   UNL     1     -34.490  23.993   1.083  0.00  0.00    -0.287 OA
ATOM      4  C   UNL     1     -35.645  22.671   2.682  0.00  0.00    +0.065 C 
ATOM      5  C   UNL     1     -34.810  23.821   2.252  0.00  0.00    +0.198 C 
ATOM      6  C   UNL     1     -35.940  22.571   3.984  0.00  0.00    +0.179 C 
ATOM      7  C   UNL     1     -34.382  24.751   3.313  0.00  0.00    +0.073 C 
ATOM      8  C   UNL     1     -34.776  24.506   4.630  0.00  0.00    +0.151 C 
ATOM      9  C   UNL     1     -33.595  25.865   3.011  0.00  0.00    +0.009 C 
ATOM     10  C   UNL     1     -34.383  25.372   5.650  0.00  0.00    +0.074 C 
ATOM     11  C   UNL     1     -33.202  26.729   4.033  0.00  0.00    +0.037 C 
ATOM     12  C   UNL     1     -33.596  26.484   5.350  0.00  0.00    +0.137 C 
BRANCH  12  13
ATOM     13  O   UNL     1     -33.209  27.332   6.342  0.00  0.00    -0.505 OA
ATOM     14  H   UNL     1     -32.835  28.164   6.128  0.00  0.00    +0.292 HD
ENDBRANCH  12  13
ENDBRANCH   1   4
BRANCH   1  16
ATOM     15  O   UNL     1     -34.561  19.862   2.120  0.00  0.00    -0.250 OA
ATOM     16  C   UNL     1     -35.692  20.325   2.159  0.00  0.00    +0.318 C 
BRANCH  16  17
ATOM     17  O   UNL     1     -36.761  19.648   2.652  0.00  0.00    -0.480 OA
ATOM     18  H   UNL     1     -37.087  19.845   3.508  0.00  0.00    +0.295 HD
ENDBRANCH  16  17
ENDBRANCH   1  16
BRANCH   1  19
ATOM     19  C   UNL     1     -37.645  21.741   1.402  0.00  0.00    +0.059 C 
BRANCH  19  20
ATOM     20  C   UNL     1     -38.093  21.058   0.110  0.00  0.00    -0.017 C 
ATOM     21  C   UNL     1     -37.158  20.828  -0.873  0.00  0.00    -0.001 C 
ATOM     22  C   UNL     1     -39.415  20.698  -0.022  0.00  0.00    -0.001 C 
ATOM     23  C   UNL     1     -37.568  20.205  -2.053  0.00  0.00    +0.036 C 
ATOM     24  C   UNL     1     -39.824  20.075  -1.201  0.00  0.00    +0.036 C 
ATOM     25  C   UNL     1     -38.901  19.828  -2.217  0.00  0.00    +0.134 C 
BRANCH  25  26
ATOM     26  O   UNL     1     -39.300  19.222  -3.367  0.00  0.00    -0.506 OA
ATOM     27  H   UNL     1     -39.153  19.641  -4.193  0.00  0.00    +0.292 HD
ENDBRANCH  25  26
ENDBRANCH  19  20
BRANCH  19  28
ATOM     28  C   UNL     1     -38.237  23.146   1.495  0.00  0.00    -0.017 C 
ATOM     29  C   UNL     1     -37.913  24.064   0.521  0.00  0.00    -0.001 C 
ATOM     30  C   UNL     1     -39.073  23.443   2.547  0.00  0.00    -0.001 C 
ATOM     31  C   UNL     1     -38.454  25.348   0.606  0.00  0.00    +0.036 C 
ATOM     32  C   UNL     1     -39.615  24.726   2.632  0.00  0.00    +0.036 C 
ATOM     33  C   UNL     1     -39.305  25.678   1.660  0.00  0.00    +0.134 C 
BRANCH  33  34
ATOM     34  O   UNL     1     -39.832  26.931   1.742  0.00  0.00    -0.506 OA
ATOM     35  H   UNL     1     -40.485  27.123   2.386  0.00  0.00    +0.292 HD
ENDBRANCH  33  34
ENDBRANCH  19  28
ENDBRANCH   1  19
TORSDOF 9
ENDMDL
MODEL 6
REMARK VINA RESULT:      -6.3      2.757      3.496
REMARK  Name = 5487419
REMARK  9 active torsions:
REMARK  status: ('A' for Active; 'I' for Inactive)
REMARK    1  A    between atoms: C_1  and  C_4
REMARK    2  A    between atoms: C_1  and  C_16
REMARK    3  A    between atoms: C_1  and  C_19
REMARK    4  A    between atoms: C_12  and  O_13
REMARK    5  A    between atoms: C_16  and  O_17
REMARK    6  A    between atoms: C_19  and  C_20
REMARK    7  A    between atoms: C_19  and  C_28
REMARK    8  A    between atoms: C_25  and  O_26
REMARK    9  A    between atoms: C_33  and  O_34
REMARK                            x       y       z     vdW  Elec       q    Type
REMARK                         _______ _______ _______ _____ _____    ______ ____
ROOT
ATOM      1  C   UNL     1     -37.190  24.540   3.029  0.00  0.00    +0.135 C 
ENDROOT
BRANCH   1   4
ATOM      2  O   UNL     1     -34.361  27.060   2.743  0.00  0.00    -0.450 OA
ATOM      3  O   UNL     1     -35.989  24.671   5.624  0.00  0.00    -0.287 OA
ATOM      4  C   UNL     1     -36.029  25.415   3.369  0.00  0.00    +0.065 C 
ATOM      5  C   UNL     1     -35.503  25.386   4.758  0.00  0.00    +0.198 C 
ATOM      6  C   UNL     1     -35.429  26.232   2.495  0.00  0.00    +0.179 C 
ATOM      7  C   UNL     1     -34.357  26.270   5.040  0.00  0.00    +0.073 C 
ATOM      8  C   UNL     1     -33.844  27.065   4.014  0.00  0.00    +0.151 C 
ATOM      9  C   UNL     1     -33.788  26.315   6.315  0.00  0.00    +0.009 C 
ATOM     10  C   UNL     1     -32.760  27.909   4.259  0.00  0.00    +0.074 C 
ATOM     11  C   UNL     1     -32.705  27.160   6.558  0.00  0.00    +0.037 C 
ATOM     12  C   UNL     1     -32.192  27.955   5.532  0.00  0.00    +0.137 C 
BRANCH  12  13
ATOM     13  O   UNL     1     -31.135  28.778   5.776  0.00  0.00    -0.505 OA
ATOM     14  H   UNL     1     -30.427  28.483   6.314  0.00  0.00    +0.292 HD
ENDBRANCH  12  13
ENDBRANCH   1   4
BRANCH   1  16
ATOM     15  O   UNL     1     -38.553  26.475   2.417  0.00  0.00    -0.250 OA
ATOM     16  C   UNL     1     -38.414  25.445   3.061  0.00  0.00    +0.318 C 
BRANCH  16  17
ATOM     17  O   UNL     1     -39.344  24.974   3.930  0.00  0.00    -0.480 OA
ATOM     18  H   UNL     1     -39.948  25.565   4.337  0.00  0.00    +0.295 HD
ENDBRANCH  16  17
ENDBRANCH   1  16
BRANCH   1  19
ATOM     19  C   UNL     1     -37.060  23.859   1.631  0.00  0.00    +0.059 C 
BRANCH  19  20
ATOM     20  C   UNL     1     -38.397  23.549   0.958  0.00  0.00    -0.017 C 
ATOM     21  C   UNL     1     -38.792  24.319  -0.111  0.00  0.00    -0.001 C 
ATOM     22  C   UNL     1     -39.156  22.510   1.448  0.00  0.00    -0.001 C 
ATOM     23  C   UNL     1     -40.012  24.036  -0.725  0.00  0.00    +0.036 C 
ATOM     24  C   UNL     1     -40.376  22.227   0.833  0.00  0.00    +0.036 C 
ATOM     25  C   UNL     1     -40.804  22.989  -0.253  0.00  0.00    +0.134 C 
BRANCH  25  26
ATOM     26  O   UNL     1     -41.995  22.714  -0.851  0.00  0.00    -0.506 OA
ATOM     27  H   UNL     1     -42.110  21.909  -1.318  0.00  0.00    +0.292 HD
ENDBRANCH  25  26
ENDBRANCH  19  20
BRANCH  19  28
ATOM     28  C   UNL     1     -36.166  22.619   1.639  0.00  0.00    -0.017 C 
ATOM     29  C   UNL     1     -35.463  22.306   0.498  0.00  0.00    -0.001 C 
ATOM     30  C   UNL     1     -36.097  21.862   2.787  0.00  0.00    -0.001 C 
ATOM     31  C   UNL     1     -34.647  21.174   0.506  0.00  0.00    +0.036 C 
ATOM     32  C   UNL     1     -35.282  20.730   2.794  0.00  0.00    +0.036 C 
ATOM     33  C   UNL     1     -34.556  20.387   1.653  0.00  0.00    +0.134 C 
BRANCH  33  34
ATOM     34  O   UNL     1     -33.760  19.282   1.659  0.00  0.00    -0.506 OA
ATOM     35  H   UNL     1     -34.121  18.446   1.879  0.00  0.00    +0.292 HD
ENDBRANCH  33  34
ENDBRANCH  19  28
ENDBRANCH   1  19
TORSDOF 9
ENDMDL
MODEL 7
REMARK VINA RESULT:      -6.3      2.386      7.558
REMARK  Name = 5487419
REMARK  9 active torsions:
REMARK  status: ('A' for Active; 'I' for Inactive)
REMARK    1  A    between atoms: C_1  and  C_4
REMARK    2  A    between atoms: C_1  and  C_16
REMARK    3  A    between atoms: C_1  and  C_19
REMARK    4  A    between atoms: C_12  and  O_13
REMARK    5  A    between atoms: C_16  and  O_17
REMARK    6  A    between atoms: C_19  and  C_20
REMARK    7  A    between atoms: C_19  and  C_28
REMARK    8  A    between atoms: C_25  and  O_26
REMARK    9  A    between atoms: C_33  and  O_34
REMARK                            x       y       z     vdW  Elec       q    Type
REMARK                         _______ _______ _______ _____ _____    ______ ____
ROOT
ATOM      1  C   UNL     1     -37.615  24.439   2.098  0.00  0.00    +0.135 C 
ENDROOT
BRANCH   1   4
ATOM      2  O   UNL     1     -40.255  21.784   1.446  0.00  0.00    -0.450 OA
ATOM      3  O   UNL     1     -37.765  24.160  -0.747  0.00  0.00    -0.287 OA
ATOM      4  C   UNL     1     -38.534  23.492   1.398  0.00  0.00    +0.065 C 
ATOM      5  C   UNL     1     -38.510  23.449  -0.086  0.00  0.00    +0.198 C 
ATOM      6  C   UNL     1     -39.385  22.675   2.029  0.00  0.00    +0.179 C 
ATOM      7  C   UNL     1     -39.438  22.498  -0.727  0.00  0.00    +0.073 C 
ATOM      8  C   UNL     1     -40.265  21.712   0.076  0.00  0.00    +0.151 C 
ATOM      9  C   UNL     1     -39.491  22.381  -2.118  0.00  0.00    +0.009 C 
ATOM     10  C   UNL     1     -41.151  20.806  -0.508  0.00  0.00    +0.074 C 
ATOM     11  C   UNL     1     -40.378  21.475  -2.700  0.00  0.00    +0.037 C 
ATOM     12  C   UNL     1     -41.205  20.689  -1.897  0.00  0.00    +0.137 C 
BRANCH  12  13
ATOM     13  O   UNL     1     -42.068  19.807  -2.472  0.00  0.00    -0.505 OA
ATOM     14  H   UNL     1     -42.986  19.997  -2.495  0.00  0.00    +0.292 HD
ENDBRANCH  12  13
ENDBRANCH   1   4
BRANCH   1  16
ATOM     15  O   UNL     1     -38.884  26.486   2.513  0.00  0.00    -0.250 OA
ATOM     16  C   UNL     1     -38.514  25.382   2.885  0.00  0.00    +0.318 C 
BRANCH  16  17
ATOM     17  O   UNL     1     -38.844  24.848   4.089  0.00  0.00    -0.480 OA
ATOM     18  H   UNL     1     -38.845  23.918   4.205  0.00  0.00    +0.295 HD
ENDBRANCH  16  17
ENDBRANCH   1  16
BRANCH   1  19
ATOM     19  C   UNL     1     -36.611  23.727   3.057  0.00  0.00    +0.059 C 
BRANCH  19  20
ATOM     20  C   UNL     1     -35.687  24.679   3.816  0.00  0.00    -0.017 C 
ATOM     21  C   UNL     1     -35.454  24.447   5.151  0.00  0.00    -0.001 C 
ATOM     22  C   UNL     1     -35.123  25.734   3.134  0.00  0.00    -0.001 C 
ATOM     23  C   UNL     1     -34.611  25.316   5.844  0.00  0.00    +0.036 C 
ATOM     24  C   UNL     1     -34.280  26.603   3.827  0.00  0.00    +0.036 C 
ATOM     25  C   UNL     1     -34.023  26.394   5.182  0.00  0.00    +0.134 C 
BRANCH  25  26
ATOM     26  O   UNL     1     -33.202  27.242   5.858  0.00  0.00    -0.506 OA
ATOM     27  H   UNL     1     -33.098  27.154   6.785  0.00  0.00    +0.292 HD
ENDBRANCH  25  26
ENDBRANCH  19  20
BRANCH  19  28
ATOM     28  C   UNL     1     -35.799  22.624   2.378  0.00  0.00    -0.017 C 
ATOM     29  C   UNL     1     -35.846  21.352   2.903  0.00  0.00    -0.001 C 
ATOM     30  C   UNL     1     -35.052  22.942   1.267  0.00  0.00    -0.001 C 
ATOM     31  C   UNL     1     -35.105  20.346   2.283  0.00  0.00    +0.036 C 
ATOM     32  C   UNL     1     -34.311  21.935   0.647  0.00  0.00    +0.036 C 
ATOM     33  C   UNL     1     -34.338  20.637   1.156  0.00  0.00    +0.134 C 
BRANCH  33  34
ATOM     34  O   UNL     1     -33.615  19.654   0.552  0.00  0.00    -0.506 OA
ATOM     35  H   UNL     1     -33.757  19.456  -0.353  0.00  0.00    +0.292 HD
ENDBRANCH  33  34
ENDBRANCH  19  28
ENDBRANCH   1  19
TORSDOF 9
ENDMDL
MODEL 8
REMARK VINA RESULT:      -6.2      4.003      5.444
REMARK  Name = 5487419
REMARK  9 active torsions:
REMARK  status: ('A' for Active; 'I' for Inactive)
REMARK    1  A    between atoms: C_1  and  C_4
REMARK    2  A    between atoms: C_1  and  C_16
REMARK    3  A    between atoms: C_1  and  C_19
REMARK    4  A    between atoms: C_12  and  O_13
REMARK    5  A    between atoms: C_16  and  O_17
REMARK    6  A    between atoms: C_19  and  C_20
REMARK    7  A    between atoms: C_19  and  C_28
REMARK    8  A    between atoms: C_25  and  O_26
REMARK    9  A    between atoms: C_33  and  O_34
REMARK                            x       y       z     vdW  Elec       q    Type
REMARK                         _______ _______ _______ _____ _____    ______ ____
ROOT
ATOM      1  C   UNL     1     -35.842  26.191   2.387  0.00  0.00    +0.135 C 
ENDROOT
BRANCH   1   4
ATOM      2  O   UNL     1     -32.201  25.717   1.409  0.00  0.00    -0.450 OA
ATOM      3  O   UNL     1     -34.343  27.969   4.055  0.00  0.00    -0.287 OA
ATOM      4  C   UNL     1     -34.357  26.330   2.337  0.00  0.00    +0.065 C 
ATOM      5  C   UNL     1     -33.703  27.292   3.261  0.00  0.00    +0.198 C 
ATOM      6  C   UNL     1     -33.569  25.637   1.505  0.00  0.00    +0.179 C 
ATOM      7  C   UNL     1     -32.235  27.390   3.170  0.00  0.00    +0.073 C 
ATOM      8  C   UNL     1     -31.557  26.595   2.245  0.00  0.00    +0.151 C 
ATOM      9  C   UNL     1     -31.526  28.265   3.997  0.00  0.00    +0.009 C 
ATOM     10  C   UNL     1     -30.168  26.671   2.142  0.00  0.00    +0.074 C 
ATOM     11  C   UNL     1     -30.137  28.341   3.891  0.00  0.00    +0.037 C 
ATOM     12  C   UNL     1     -29.460  27.545   2.966  0.00  0.00    +0.137 C 
BRANCH  12  13
ATOM     13  O   UNL     1     -28.104  27.624   2.868  0.00  0.00    -0.505 OA
ATOM     14  H   UNL     1     -27.703  27.782   2.036  0.00  0.00    +0.292 HD
ENDBRANCH  12  13
ENDBRANCH   1   4
BRANCH   1  16
ATOM     15  O   UNL     1     -36.224  26.889   0.075  0.00  0.00    -0.250 OA
ATOM     16  C   UNL     1     -36.378  27.080   1.272  0.00  0.00    +0.318 C 
BRANCH  16  17
ATOM     17  O   UNL     1     -37.040  28.151   1.781  0.00  0.00    -0.480 OA
ATOM     18  H   UNL     1     -36.565  28.913   2.049  0.00  0.00    +0.295 HD
ENDBRANCH  16  17
ENDBRANCH   1  16
BRANCH   1  19
ATOM     19  C   UNL     1     -36.331  24.724   2.186  0.00  0.00    +0.059 C 
BRANCH  19  20
ATOM     20  C   UNL     1     -37.829  24.594   1.912  0.00  0.00    -0.017 C 
ATOM     21  C   UNL     1     -38.237  24.055   0.713  0.00  0.00    -0.001 C 
ATOM     22  C   UNL     1     -38.716  25.022   2.875  0.00  0.00    -0.001 C 
ATOM     23  C   UNL     1     -39.604  23.937   0.463  0.00  0.00    +0.036 C 
ATOM     24  C   UNL     1     -40.083  24.904   2.624  0.00  0.00    +0.036 C 
ATOM     25  C   UNL     1     -40.528  24.361   1.419  0.00  0.00    +0.134 C 
BRANCH  25  26
ATOM     26  O   UNL     1     -41.861  24.248   1.174  0.00  0.00    -0.506 OA
ATOM     27  H   UNL     1     -42.480  24.429   1.854  0.00  0.00    +0.292 HD
ENDBRANCH  25  26
ENDBRANCH  19  20
BRANCH  19  28
ATOM     28  C   UNL     1     -35.913  23.783   3.316  0.00  0.00    -0.017 C 
ATOM     29  C   UNL     1     -35.736  22.448   3.031  0.00  0.00    -0.001 C 
ATOM     30  C   UNL     1     -35.728  24.305   4.576  0.00  0.00    -0.001 C 
ATOM     31  C   UNL     1     -35.354  21.589   4.063  0.00  0.00    +0.036 C 
ATOM     32  C   UNL     1     -35.345  23.447   5.607  0.00  0.00    +0.036 C 
ATOM     33  C   UNL     1     -35.158  22.089   5.350  0.00  0.00    +0.134 C 
BRANCH  33  34
ATOM     34  O   UNL     1     -34.786  21.250   6.356  0.00  0.00    -0.506 OA
ATOM     35  H   UNL     1     -34.262  21.571   7.063  0.00  0.00    +0.292 HD
ENDBRANCH  33  34
ENDBRANCH  19  28
ENDBRANCH   1  19
TORSDOF 9
ENDMDL
MODEL 9
REMARK VINA RESULT:      -6.1      4.233      6.572
REMARK  Name = 5487419
REMARK  9 active torsions:
REMARK  status: ('A' for Active; 'I' for Inactive)
REMARK    1  A    between atoms: C_1  and  C_4
REMARK    2  A    between atoms: C_1  and  C_16
REMARK    3  A    between atoms: C_1  and  C_19
REMARK    4  A    between atoms: C_12  and  O_13
REMARK    5  A    between atoms: C_16  and  O_17
REMARK    6  A    between atoms: C_19  and  C_20
REMARK    7  A    between atoms: C_19  and  C_28
REMARK    8  A    between atoms: C_25  and  O_26
REMARK    9  A    between atoms: C_33  and  O_34
REMARK                            x       y       z     vdW  Elec       q    Type
REMARK                         _______ _______ _______ _____ _____    ______ ____
ROOT
ATOM      1  C   UNL     1     -35.528  26.511   3.295  0.00  0.00    +0.135 C 
ENDROOT
BRANCH   1   4
ATOM      2  O   UNL     1     -36.960  28.538   0.418  0.00  0.00    -0.450 OA
ATOM      3  O   UNL     1     -34.469  29.153   3.592  0.00  0.00    -0.287 OA
ATOM      4  C   UNL     1     -35.834  27.642   2.370  0.00  0.00    +0.065 C 
ATOM      5  C   UNL     1     -35.216  28.965   2.641  0.00  0.00    +0.198 C 
ATOM      6  C   UNL     1     -36.638  27.540   1.305  0.00  0.00    +0.179 C 
ATOM      7  C   UNL     1     -35.552  30.048   1.698  0.00  0.00    +0.073 C 
ATOM      8  C   UNL     1     -36.410  29.777   0.631  0.00  0.00    +0.151 C 
ATOM      9  C   UNL     1     -35.020  31.329   1.864  0.00  0.00    +0.009 C 
ATOM     10  C   UNL     1     -36.742  30.787  -0.274  0.00  0.00    +0.074 C 
ATOM     11  C   UNL     1     -35.354  32.337   0.959  0.00  0.00    +0.037 C 
ATOM     12  C   UNL     1     -36.212  32.066  -0.108  0.00  0.00    +0.137 C 
BRANCH  12  13
ATOM     13  O   UNL     1     -36.534  33.055  -0.987  0.00  0.00    -0.505 OA
ATOM     14  H   UNL     1     -36.022  33.176  -1.763  0.00  0.00    +0.292 HD
ENDBRANCH  12  13
ENDBRANCH   1   4
BRANCH   1  16
ATOM     15  O   UNL     1     -37.837  25.761   3.584  0.00  0.00    -0.250 OA
ATOM     16  C   UNL     1     -36.818  26.241   4.058  0.00  0.00    +0.318 C 
BRANCH  16  17
ATOM     17  O   UNL     1     -36.706  26.629   5.355  0.00  0.00    -0.480 OA
ATOM     18  H   UNL     1     -35.906  26.485   5.820  0.00  0.00    +0.295 HD
ENDBRANCH  16  17
ENDBRANCH   1  16
BRANCH   1  19
ATOM     19  C   UNL     1     -35.060  25.220   2.555  0.00  0.00    +0.059 C 
BRANCH  19  20
ATOM     20  C   UNL     1     -35.094  23.957   3.416  0.00  0.00    -0.017 C 
ATOM     21  C   UNL     1     -34.630  24.027   4.709  0.00  0.00    -0.001 C 
ATOM     22  C   UNL     1     -35.587  22.796   2.865  0.00  0.00    -0.001 C 
ATOM     23  C   UNL     1     -34.660  22.874   5.495  0.00  0.00    +0.036 C 
ATOM     24  C   UNL     1     -35.618  21.643   3.650  0.00  0.00    +0.036 C 
ATOM     25  C   UNL     1     -35.155  21.682   4.965  0.00  0.00    +0.134 C 
BRANCH  25  26
ATOM     26  O   UNL     1     -35.184  20.558   5.730  0.00  0.00    -0.506 OA
ATOM     27  H   UNL     1     -35.294  19.719   5.327  0.00  0.00    +0.292 HD
ENDBRANCH  25  26
ENDBRANCH  19  20
BRANCH  19  28
ATOM     28  C   UNL     1     -33.698  25.367   1.878  0.00  0.00    -0.017 C 
ATOM     29  C   UNL     1     -33.512  24.799   0.638  0.00  0.00    -0.001 C 
ATOM     30  C   UNL     1     -32.706  26.062   2.533  0.00  0.00    -0.001 C 
ATOM     31  C   UNL     1     -32.269  24.933   0.020  0.00  0.00    +0.036 C 
ATOM     32  C   UNL     1     -31.462  26.196   1.915  0.00  0.00    +0.036 C 
ATOM     33  C   UNL     1     -31.244  25.632   0.658  0.00  0.00    +0.134 C 
BRANCH  33  34
ATOM     34  O   UNL     1     -30.031  25.763   0.054  0.00  0.00    -0.506 OA
ATOM     35  H   UNL     1     -29.982  25.978  -0.857  0.00  0.00    +0.292 HD
ENDBRANCH  33  34
ENDBRANCH  19  28
ENDBRANCH   1  19
TORSDOF 9
ENDMDL
