MODEL 1
REMARK VINA RESULT:      -7.4      0.000      0.000
REMARK  Name = 5323531
REMARK  3 active torsions:
REMARK  status: ('A' for Active; 'I' for Inactive)
REMARK    1  A    between atoms: C_13  and  O_24
REMARK    2  A    between atoms: C_15  and  O_26
REMARK    3  A    between atoms: C_19  and  O_28
REMARK                            x       y       z     vdW  Elec       q    Type
REMARK                         _______ _______ _______ _____ _____    ______ ____
ROOT
ATOM      1  O   UNL     1     -37.811  26.151   3.044  0.00  0.00    -0.287 OA
ATOM      2  O   UNL     1     -37.088  20.989   2.414  0.00  0.00    -0.286 OA
ATOM      3  O   UNL     1     -40.329  26.573   3.320  0.00  0.00    -0.283 OA
ATOM      4  O   UNL     1     -41.557  27.923   1.336  0.00  0.00    -0.283 OA
ATOM      5  C   UNL     1     -38.875  24.133   2.394  0.00  0.00    +0.048 C 
ATOM      6  C   UNL     1     -40.069  24.686   1.878  0.00  0.00    +0.048 C 
ATOM      7  C   UNL     1     -38.580  22.790   2.131  0.00  0.00    +0.076 C 
ATOM      8  C   UNL     1     -40.906  23.941   1.021  0.00  0.00    +0.040 C 
ATOM      9  C   UNL     1     -37.858  24.931   3.131  0.00  0.00    +0.196 C 
ATOM     10  C   UNL     1     -36.827  24.231   3.920  0.00  0.00    +0.045 C 
ATOM     11  C   UNL     1     -36.594  22.873   3.716  0.00  0.00    +0.076 C 
ATOM     12  C   UNL     1     -37.394  22.134   2.724  0.00  0.00    +0.202 C 
ATOM     13  C   UNL     1     -39.418  22.033   1.309  0.00  0.00    +0.137 C 
ATOM     14  C   UNL     1     -40.556  22.610   0.747  0.00  0.00    +0.040 C 
ATOM     15  C   UNL     1     -42.127  24.535   0.419  0.00  0.00    +0.133 C 
ATOM     16  C   UNL     1     -40.575  26.019   2.262  0.00  0.00    +0.234 C 
ATOM     17  C   UNL     1     -42.427  25.846   0.520  0.00  0.00    +0.054 C 
ATOM     18  C   UNL     1     -41.531  26.702   1.338  0.00  0.00    +0.233 C 
ATOM     19  C   UNL     1     -35.595  22.216   4.441  0.00  0.00    +0.137 C 
ATOM     20  C   UNL     1     -36.058  24.941   4.849  0.00  0.00    +0.003 C 
ATOM     21  C   UNL     1     -43.581  26.562  -0.118  0.00  0.00    +0.038 C 
ATOM     22  C   UNL     1     -34.833  22.925   5.372  0.00  0.00    +0.037 C 
ATOM     23  C   UNL     1     -35.065  24.284   5.576  0.00  0.00    +0.003 C 
ENDROOT
BRANCH  13  24
ATOM     24  O   UNL     1     -39.183  20.723   1.009  0.00  0.00    -0.505 OA
ATOM     25  H   UNL     1     -38.625  20.499   0.289  0.00  0.00    +0.292 HD
ENDBRANCH  13  24
BRANCH  15  26
ATOM     26  O   UNL     1     -42.908  23.635  -0.282  0.00  0.00    -0.506 OA
ATOM     27  H   UNL     1     -42.584  22.774  -0.460  0.00  0.00    +0.292 HD
ENDBRANCH  15  26
BRANCH  19  28
ATOM     28  O   UNL     1     -35.326  20.888   4.297  0.00  0.00    -0.505 OA
ATOM     29  H   UNL     1     -36.027  20.281   4.157  0.00  0.00    +0.292 HD
ENDBRANCH  19  28
TORSDOF 3
ENDMDL
MODEL 2
REMARK VINA RESULT:      -6.9      4.942      7.343
REMARK  Name = 5323531
REMARK  3 active torsions:
REMARK  status: ('A' for Active; 'I' for Inactive)
REMARK    1  A    between atoms: C_13  and  O_24
REMARK    2  A    between atoms: C_15  and  O_26
REMARK    3  A    between atoms: C_19  and  O_28
REMARK                            x       y       z     vdW  Elec       q    Type
REMARK                         _______ _______ _______ _____ _____    ______ ____
ROOT
ATOM      1  O   UNL     1     -33.861  24.510   0.286  0.00  0.00    -0.287 OA
ATOM      2  O   UNL     1     -36.516  22.174   4.167  0.00  0.00    -0.286 OA
ATOM      3  O   UNL     1     -31.728  25.535   1.287  0.00  0.00    -0.283 OA
ATOM      4  O   UNL     1     -31.573  28.226   1.311  0.00  0.00    -0.283 OA
ATOM      5  C   UNL     1     -34.166  24.460   2.638  0.00  0.00    +0.048 C 
ATOM      6  C   UNL     1     -33.424  25.616   2.968  0.00  0.00    +0.048 C 
ATOM      7  C   UNL     1     -34.994  23.884   3.610  0.00  0.00    +0.076 C 
ATOM      8  C   UNL     1     -33.585  26.254   4.216  0.00  0.00    +0.040 C 
ATOM      9  C   UNL     1     -34.189  23.866   1.274  0.00  0.00    +0.196 C 
ATOM     10  C   UNL     1     -34.699  22.494   1.093  0.00  0.00    +0.045 C 
ATOM     11  C   UNL     1     -35.452  21.891   2.099  0.00  0.00    +0.076 C 
ATOM     12  C   UNL     1     -35.720  22.621   3.350  0.00  0.00    +0.202 C 
ATOM     13  C   UNL     1     -35.138  24.490   4.860  0.00  0.00    +0.137 C 
ATOM     14  C   UNL     1     -34.456  25.670   5.149  0.00  0.00    +0.040 C 
ATOM     15  C   UNL     1     -32.861  27.507   4.547  0.00  0.00    +0.133 C 
ATOM     16  C   UNL     1     -32.374  26.179   2.096  0.00  0.00    +0.234 C 
ATOM     17  C   UNL     1     -32.138  28.194   3.638  0.00  0.00    +0.054 C 
ATOM     18  C   UNL     1     -32.005  27.617   2.277  0.00  0.00    +0.233 C 
ATOM     19  C   UNL     1     -35.963  20.602   1.915  0.00  0.00    +0.137 C 
ATOM     20  C   UNL     1     -34.457  21.812  -0.104  0.00  0.00    +0.003 C 
ATOM     21  C   UNL     1     -31.443  29.508   3.842  0.00  0.00    +0.038 C 
ATOM     22  C   UNL     1     -35.715  19.920   0.723  0.00  0.00    +0.037 C 
ATOM     23  C   UNL     1     -34.962  20.524  -0.284  0.00  0.00    +0.003 C 
ENDROOT
BRANCH  13  24
ATOM     24  O   UNL     1     -35.934  23.983   5.846  0.00  0.00    -0.505 OA
ATOM     25  H   UNL     1     -36.284  23.117   5.768  0.00  0.00    +0.292 HD
ENDBRANCH  13  24
BRANCH  15  26
ATOM     26  O   UNL     1     -33.023  27.927   5.854  0.00  0.00    -0.506 OA
ATOM     27  H   UNL     1     -33.875  28.154   6.171  0.00  0.00    +0.292 HD
ENDBRANCH  15  26
BRANCH  19  28
ATOM     28  O   UNL     1     -36.695  19.954   2.864  0.00  0.00    -0.505 OA
ATOM     29  H   UNL     1     -37.512  19.556   2.634  0.00  0.00    +0.292 HD
ENDBRANCH  19  28
TORSDOF 3
ENDMDL
MODEL 3
REMARK VINA RESULT:      -6.8      3.367      6.597
REMARK  Name = 5323531
REMARK  3 active torsions:
REMARK  status: ('A' for Active; 'I' for Inactive)
REMARK    1  A    between atoms: C_13  and  O_24
REMARK    2  A    between atoms: C_15  and  O_26
REMARK    3  A    between atoms: C_19  and  O_28
REMARK                            x       y       z     vdW  Elec       q    Type
REMARK                         _______ _______ _______ _____ _____    ______ ____
ROOT
ATOM      1  O   UNL     1     -34.829  20.398   3.322  0.00  0.00    -0.287 OA
ATOM      2  O   UNL     1     -39.217  23.148   2.458  0.00  0.00    -0.286 OA
ATOM      3  O   UNL     1     -33.840  19.743   1.044  0.00  0.00    -0.283 OA
ATOM      4  O   UNL     1     -33.857  17.120   0.424  0.00  0.00    -0.283 OA
ATOM      5  C   UNL     1     -36.535  20.833   1.732  0.00  0.00    +0.048 C 
ATOM      6  C   UNL     1     -36.216  19.817   0.804  0.00  0.00    +0.048 C 
ATOM      7  C   UNL     1     -37.761  21.499   1.615  0.00  0.00    +0.076 C 
ATOM      8  C   UNL     1     -37.151  19.396  -0.165  0.00  0.00    +0.040 C 
ATOM      9  C   UNL     1     -35.673  21.175   2.896  0.00  0.00    +0.196 C 
ATOM     10  C   UNL     1     -35.894  22.448   3.608  0.00  0.00    +0.045 C 
ATOM     11  C   UNL     1     -37.082  23.153   3.423  0.00  0.00    +0.076 C 
ATOM     12  C   UNL     1     -38.107  22.633   2.501  0.00  0.00    +0.202 C 
ATOM     13  C   UNL     1     -38.683  21.111   0.640  0.00  0.00    +0.137 C 
ATOM     14  C   UNL     1     -38.386  20.059  -0.225  0.00  0.00    +0.040 C 
ATOM     15  C   UNL     1     -36.851  18.283  -1.102  0.00  0.00    +0.133 C 
ATOM     16  C   UNL     1     -34.879  19.199   0.709  0.00  0.00    +0.234 C 
ATOM     17  C   UNL     1     -35.751  17.510  -0.989  0.00  0.00    +0.054 C 
ATOM     18  C   UNL     1     -34.770  17.850   0.073  0.00  0.00    +0.233 C 
ATOM     19  C   UNL     1     -37.306  24.343   4.122  0.00  0.00    +0.137 C 
ATOM     20  C   UNL     1     -34.926  22.929   4.495  0.00  0.00    +0.003 C 
ATOM     21  C   UNL     1     -35.397  16.314  -1.822  0.00  0.00    +0.038 C 
ATOM     22  C   UNL     1     -36.336  24.825   5.003  0.00  0.00    +0.037 C 
ATOM     23  C   UNL     1     -35.148  24.119   5.188  0.00  0.00    +0.003 C 
ENDROOT
BRANCH  13  24
ATOM     24  O   UNL     1     -39.896  21.714   0.480  0.00  0.00    -0.505 OA
ATOM     25  H   UNL     1     -40.185  22.358   1.097  0.00  0.00    +0.292 HD
ENDBRANCH  13  24
BRANCH  15  26
ATOM     26  O   UNL     1     -37.813  18.086  -2.074  0.00  0.00    -0.506 OA
ATOM     27  H   UNL     1     -37.575  17.711  -2.900  0.00  0.00    +0.292 HD
ENDBRANCH  15  26
BRANCH  19  28
ATOM     28  O   UNL     1     -38.440  25.085   3.977  0.00  0.00    -0.505 OA
ATOM     29  H   UNL     1     -38.490  25.738   3.308  0.00  0.00    +0.292 HD
ENDBRANCH  19  28
TORSDOF 3
ENDMDL
MODEL 4
REMARK VINA RESULT:      -6.6      1.092      6.288
REMARK  Name = 5323531
REMARK  3 active torsions:
REMARK  status: ('A' for Active; 'I' for Inactive)
REMARK    1  A    between atoms: C_13  and  O_24
REMARK    2  A    between atoms: C_15  and  O_26
REMARK    3  A    between atoms: C_19  and  O_28
REMARK                            x       y       z     vdW  Elec       q    Type
REMARK                         _______ _______ _______ _____ _____    ______ ____
ROOT
ATOM      1  O   UNL     1     -39.790  26.325   3.000  0.00  0.00    -0.287 OA
ATOM      2  O   UNL     1     -41.422  22.367  -0.039  0.00  0.00    -0.286 OA
ATOM      3  O   UNL     1     -37.224  26.250   3.092  0.00  0.00    -0.283 OA
ATOM      4  O   UNL     1     -36.114  25.635   5.471  0.00  0.00    -0.283 OA
ATOM      5  C   UNL     1     -39.176  24.211   2.114  0.00  0.00    +0.048 C 
ATOM      6  C   UNL     1     -38.003  24.002   2.873  0.00  0.00    +0.048 C 
ATOM      7  C   UNL     1     -39.720  23.140   1.396  0.00  0.00    +0.076 C 
ATOM      8  C   UNL     1     -37.437  22.716   3.000  0.00  0.00    +0.040 C 
ATOM      9  C   UNL     1     -39.927  25.496   2.109  0.00  0.00    +0.196 C 
ATOM     10  C   UNL     1     -40.924  25.745   1.051  0.00  0.00    +0.045 C 
ATOM     11  C   UNL     1     -41.401  24.688   0.279  0.00  0.00    +0.076 C 
ATOM     12  C   UNL     1     -40.892  23.325   0.511  0.00  0.00    +0.202 C 
ATOM     13  C   UNL     1     -39.151  21.868   1.490  0.00  0.00    +0.137 C 
ATOM     14  C   UNL     1     -38.036  21.658   2.298  0.00  0.00    +0.040 C 
ATOM     15  C   UNL     1     -36.244  22.472   3.850  0.00  0.00    +0.133 C 
ATOM     16  C   UNL     1     -37.236  25.099   3.495  0.00  0.00    +0.234 C 
ATOM     17  C   UNL     1     -35.725  23.413   4.666  0.00  0.00    +0.054 C 
ATOM     18  C   UNL     1     -36.336  24.766   4.642  0.00  0.00    +0.233 C 
ATOM     19  C   UNL     1     -42.369  24.918  -0.703  0.00  0.00    +0.137 C 
ATOM     20  C   UNL     1     -41.416  27.039   0.847  0.00  0.00    +0.003 C 
ATOM     21  C   UNL     1     -34.582  23.248   5.624  0.00  0.00    +0.038 C 
ATOM     22  C   UNL     1     -42.855  26.210  -0.909  0.00  0.00    +0.037 C 
ATOM     23  C   UNL     1     -42.379  27.268  -0.137  0.00  0.00    +0.003 C 
ENDROOT
BRANCH  13  24
ATOM     24  O   UNL     1     -39.638  20.783   0.821  0.00  0.00    -0.505 OA
ATOM     25  H   UNL     1     -40.090  20.896   0.008  0.00  0.00    +0.292 HD
ENDBRANCH  13  24
BRANCH  15  26
ATOM     26  O   UNL     1     -35.735  21.191   3.758  0.00  0.00    -0.506 OA
ATOM     27  H   UNL     1     -35.767  20.731   2.941  0.00  0.00    +0.292 HD
ENDBRANCH  15  26
BRANCH  19  28
ATOM     28  O   UNL     1     -42.867  23.930  -1.498  0.00  0.00    -0.505 OA
ATOM     29  H   UNL     1     -43.440  24.143  -2.208  0.00  0.00    +0.292 HD
ENDBRANCH  19  28
TORSDOF 3
ENDMDL
MODEL 5
REMARK VINA RESULT:      -6.6      6.223      8.988
REMARK  Name = 5323531
REMARK  3 active torsions:
REMARK  status: ('A' for Active; 'I' for Inactive)
REMARK    1  A    between atoms: C_13  and  O_24
REMARK    2  A    between atoms: C_15  and  O_26
REMARK    3  A    between atoms: C_19  and  O_28
REMARK                            x       y       z     vdW  Elec       q    Type
REMARK                         _______ _______ _______ _____ _____    ______ ____
ROOT
ATOM      1  O   UNL     1     -46.484  25.506   5.618  0.00  0.00    -0.287 OA
ATOM      2  O   UNL     1     -43.181  26.072   1.576  0.00  0.00    -0.286 OA
ATOM      3  O   UNL     1     -47.277  27.843   6.330  0.00  0.00    -0.283 OA
ATOM      4  O   UNL     1     -46.466  28.714   8.749  0.00  0.00    -0.283 OA
ATOM      5  C   UNL     1     -45.034  27.036   4.529  0.00  0.00    +0.048 C 
ATOM      6  C   UNL     1     -45.046  28.060   5.502  0.00  0.00    +0.048 C 
ATOM      7  C   UNL     1     -44.077  27.080   3.509  0.00  0.00    +0.076 C 
ATOM      8  C   UNL     1     -44.051  29.060   5.520  0.00  0.00    +0.040 C 
ATOM      9  C   UNL     1     -45.932  25.850   4.581  0.00  0.00    +0.196 C 
ATOM     10  C   UNL     1     -46.097  25.017   3.375  0.00  0.00    +0.045 C 
ATOM     11  C   UNL     1     -45.189  25.125   2.323  0.00  0.00    +0.076 C 
ATOM     12  C   UNL     1     -44.077  26.087   2.412  0.00  0.00    +0.202 C 
ATOM     13  C   UNL     1     -43.104  28.082   3.499  0.00  0.00    +0.137 C 
ATOM     14  C   UNL     1     -43.082  29.047   4.504  0.00  0.00    +0.040 C 
ATOM     15  C   UNL     1     -44.015  30.101   6.578  0.00  0.00    +0.133 C 
ATOM     16  C   UNL     1     -46.129  28.223   6.492  0.00  0.00    +0.234 C 
ATOM     17  C   UNL     1     -44.819  30.070   7.660  0.00  0.00    +0.054 C 
ATOM     18  C   UNL     1     -45.832  28.987   7.742  0.00  0.00    +0.233 C 
ATOM     19  C   UNL     1     -45.327  24.313   1.193  0.00  0.00    +0.137 C 
ATOM     20  C   UNL     1     -47.145  24.093   3.303  0.00  0.00    +0.003 C 
ATOM     21  C   UNL     1     -44.808  31.018   8.823  0.00  0.00    +0.038 C 
ATOM     22  C   UNL     1     -46.376  23.396   1.120  0.00  0.00    +0.037 C 
ATOM     23  C   UNL     1     -47.284  23.287   2.173  0.00  0.00    +0.003 C 
ENDROOT
BRANCH  13  24
ATOM     24  O   UNL     1     -42.140  28.176   2.537  0.00  0.00    -0.505 OA
ATOM     25  H   UNL     1     -41.627  28.957   2.461  0.00  0.00    +0.292 HD
ENDBRANCH  13  24
BRANCH  15  26
ATOM     26  O   UNL     1     -43.063  31.082   6.375  0.00  0.00    -0.506 OA
ATOM     27  H   UNL     1     -43.254  31.813   5.820  0.00  0.00    +0.292 HD
ENDBRANCH  15  26
BRANCH  19  28
ATOM     28  O   UNL     1     -44.481  24.378   0.127  0.00  0.00    -0.505 OA
ATOM     29  H   UNL     1     -44.317  23.614  -0.389  0.00  0.00    +0.292 HD
ENDBRANCH  19  28
TORSDOF 3
ENDMDL
MODEL 6
REMARK VINA RESULT:      -6.6      3.969      6.131
REMARK  Name = 5323531
REMARK  3 active torsions:
REMARK  status: ('A' for Active; 'I' for Inactive)
REMARK    1  A    between atoms: C_13  and  O_24
REMARK    2  A    between atoms: C_15  and  O_26
REMARK    3  A    between atoms: C_19  and  O_28
REMARK                            x       y       z     vdW  Elec       q    Type
REMARK                         _______ _______ _______ _____ _____    ______ ____
ROOT
ATOM      1  O   UNL     1     -37.124  28.143   0.965  0.00  0.00    -0.287 OA
ATOM      2  O   UNL     1     -32.750  27.665   3.830  0.00  0.00    -0.286 OA
ATOM      3  O   UNL     1     -38.983  26.802   2.123  0.00  0.00    -0.283 OA
ATOM      4  O   UNL     1     -39.885  24.615   0.831  0.00  0.00    -0.283 OA
ATOM      5  C   UNL     1     -36.030  26.794   2.582  0.00  0.00    +0.048 C 
ATOM      6  C   UNL     1     -36.913  25.691   2.561  0.00  0.00    +0.048 C 
ATOM      7  C   UNL     1     -34.792  26.661   3.222  0.00  0.00    +0.076 C 
ATOM      8  C   UNL     1     -36.525  24.437   3.078  0.00  0.00    +0.040 C 
ATOM      9  C   UNL     1     -36.307  28.074   1.874  0.00  0.00    +0.196 C 
ATOM     10  C   UNL     1     -35.519  29.272   2.218  0.00  0.00    +0.045 C 
ATOM     11  C   UNL     1     -34.329  29.144   2.931  0.00  0.00    +0.076 C 
ATOM     12  C   UNL     1     -33.870  27.810   3.356  0.00  0.00    +0.202 C 
ATOM     13  C   UNL     1     -34.409  25.432   3.765  0.00  0.00    +0.137 C 
ATOM     14  C   UNL     1     -35.259  24.331   3.675  0.00  0.00    +0.040 C 
ATOM     15  C   UNL     1     -37.419  23.254   3.000  0.00  0.00    +0.133 C 
ATOM     16  C   UNL     1     -38.312  25.783   2.100  0.00  0.00    +0.234 C 
ATOM     17  C   UNL     1     -38.573  23.256   2.303  0.00  0.00    +0.054 C 
ATOM     18  C   UNL     1     -38.993  24.527   1.659  0.00  0.00    +0.233 C 
ATOM     19  C   UNL     1     -33.565  30.277   3.229  0.00  0.00    +0.137 C 
ATOM     20  C   UNL     1     -35.950  30.535   1.798  0.00  0.00    +0.003 C 
ATOM     21  C   UNL     1     -39.503  22.098   2.089  0.00  0.00    +0.038 C 
ATOM     22  C   UNL     1     -34.000  31.536   2.815  0.00  0.00    +0.037 C 
ATOM     23  C   UNL     1     -35.190  31.665   2.101  0.00  0.00    +0.003 C 
ENDROOT
BRANCH  13  24
ATOM     24  O   UNL     1     -33.214  25.236   4.394  0.00  0.00    -0.505 OA
ATOM     25  H   UNL     1     -32.423  25.182   3.893  0.00  0.00    +0.292 HD
ENDBRANCH  13  24
BRANCH  15  26
ATOM     26  O   UNL     1     -36.947  22.142   3.673  0.00  0.00    -0.506 OA
ATOM     27  H   UNL     1     -36.393  22.248   4.421  0.00  0.00    +0.292 HD
ENDBRANCH  15  26
BRANCH  19  28
ATOM     28  O   UNL     1     -32.399  30.219   3.932  0.00  0.00    -0.505 OA
ATOM     29  H   UNL     1     -31.685  30.780   3.702  0.00  0.00    +0.292 HD
ENDBRANCH  19  28
TORSDOF 3
ENDMDL
MODEL 7
REMARK VINA RESULT:      -6.6      2.859      6.189
REMARK  Name = 5323531
REMARK  3 active torsions:
REMARK  status: ('A' for Active; 'I' for Inactive)
REMARK    1  A    between atoms: C_13  and  O_24
REMARK    2  A    between atoms: C_15  and  O_26
REMARK    3  A    between atoms: C_19  and  O_28
REMARK                            x       y       z     vdW  Elec       q    Type
REMARK                         _______ _______ _______ _____ _____    ______ ____
ROOT
ATOM      1  O   UNL     1     -35.273  20.656   1.107  0.00  0.00    -0.287 OA
ATOM      2  O   UNL     1     -40.206  20.259  -0.648  0.00  0.00    -0.286 OA
ATOM      3  O   UNL     1     -35.361  21.407   3.562  0.00  0.00    -0.283 OA
ATOM      4  O   UNL     1     -34.415  23.871   4.110  0.00  0.00    -0.283 OA
ATOM      5  C   UNL     1     -37.502  21.377   1.478  0.00  0.00    +0.048 C 
ATOM      6  C   UNL     1     -37.238  22.374   2.444  0.00  0.00    +0.048 C 
ATOM      7  C   UNL     1     -38.770  21.325   0.886  0.00  0.00    +0.076 C 
ATOM      8  C   UNL     1     -38.190  23.372   2.740  0.00  0.00    +0.040 C 
ATOM      9  C   UNL     1     -36.469  20.428   0.982  0.00  0.00    +0.196 C 
ATOM     10  C   UNL     1     -36.893  19.222   0.246  0.00  0.00    +0.045 C 
ATOM     11  C   UNL     1     -38.185  19.136  -0.269  0.00  0.00    +0.076 C 
ATOM     12  C   UNL     1     -39.131  20.246  -0.060  0.00  0.00    +0.202 C 
ATOM     13  C   UNL     1     -39.731  22.290   1.194  0.00  0.00    +0.137 C 
ATOM     14  C   UNL     1     -39.435  23.311   2.095  0.00  0.00    +0.040 C 
ATOM     15  C   UNL     1     -37.898  24.464   3.704  0.00  0.00    +0.133 C 
ATOM     16  C   UNL     1     -36.017  22.394   3.274  0.00  0.00    +0.234 C 
ATOM     17  C   UNL     1     -36.672  24.663   4.231  0.00  0.00    +0.054 C 
ATOM     18  C   UNL     1     -35.602  23.693   3.885  0.00  0.00    +0.233 C 
ATOM     19  C   UNL     1     -38.577  18.006  -0.994  0.00  0.00    +0.137 C 
ATOM     20  C   UNL     1     -35.985  18.178   0.036  0.00  0.00    +0.003 C 
ATOM     21  C   UNL     1     -36.249  25.779   5.140  0.00  0.00    +0.038 C 
ATOM     22  C   UNL     1     -37.672  16.964  -1.198  0.00  0.00    +0.037 C 
ATOM     23  C   UNL     1     -36.379  17.049  -0.683  0.00  0.00    +0.003 C 
ENDROOT
BRANCH  13  24
ATOM     24  O   UNL     1     -40.981  22.298   0.646  0.00  0.00    -0.505 OA
ATOM     25  H   UNL     1     -41.186  22.896  -0.046  0.00  0.00    +0.292 HD
ENDBRANCH  13  24
BRANCH  15  26
ATOM     26  O   UNL     1     -38.979  25.278   3.983  0.00  0.00    -0.506 OA
ATOM     27  H   UNL     1     -38.858  26.203   4.077  0.00  0.00    +0.292 HD
ENDBRANCH  15  26
BRANCH  19  28
ATOM     28  O   UNL     1     -39.828  17.857  -1.513  0.00  0.00    -0.505 OA
ATOM     29  H   UNL     1     -40.569  18.207  -1.058  0.00  0.00    +0.292 HD
ENDBRANCH  19  28
TORSDOF 3
ENDMDL
MODEL 8
REMARK VINA RESULT:      -6.5      4.971      7.229
REMARK  Name = 5323531
REMARK  3 active torsions:
REMARK  status: ('A' for Active; 'I' for Inactive)
REMARK    1  A    between atoms: C_13  and  O_24
REMARK    2  A    between atoms: C_15  and  O_26
REMARK    3  A    between atoms: C_19  and  O_28
REMARK                            x       y       z     vdW  Elec       q    Type
REMARK                         _______ _______ _______ _____ _____    ______ ____
ROOT
ATOM      1  O   UNL     1     -42.235  28.658   2.218  0.00  0.00    -0.287 OA
ATOM      2  O   UNL     1     -44.860  24.196   1.338  0.00  0.00    -0.286 OA
ATOM      3  O   UNL     1     -41.997  28.951   4.759  0.00  0.00    -0.283 OA
ATOM      4  O   UNL     1     -43.343  31.004   5.873  0.00  0.00    -0.283 OA
ATOM      5  C   UNL     1     -43.728  27.090   3.189  0.00  0.00    +0.048 C 
ATOM      6  C   UNL     1     -44.060  27.815   4.355  0.00  0.00    +0.048 C 
ATOM      7  C   UNL     1     -44.493  25.968   2.846  0.00  0.00    +0.076 C 
ATOM      8  C   UNL     1     -45.205  27.492   5.113  0.00  0.00    +0.040 C 
ATOM      9  C   UNL     1     -42.657  27.509   2.244  0.00  0.00    +0.196 C 
ATOM     10  C   UNL     1     -42.148  26.539   1.256  0.00  0.00    +0.045 C 
ATOM     11  C   UNL     1     -42.870  25.380   0.979  0.00  0.00    +0.076 C 
ATOM     12  C   UNL     1     -44.134  25.118   1.690  0.00  0.00    +0.202 C 
ATOM     13  C   UNL     1     -45.611  25.620   3.607  0.00  0.00    +0.137 C 
ATOM     14  C   UNL     1     -45.971  26.386   4.715  0.00  0.00    +0.040 C 
ATOM     15  C   UNL     1     -45.600  28.290   6.302  0.00  0.00    +0.133 C 
ATOM     16  C   UNL     1     -43.204  28.879   4.917  0.00  0.00    +0.234 C 
ATOM     17  C   UNL     1     -44.996  29.448   6.637  0.00  0.00    +0.054 C 
ATOM     18  C   UNL     1     -43.837  29.889   5.820  0.00  0.00    +0.233 C 
ATOM     19  C   UNL     1     -42.404  24.477   0.019  0.00  0.00    +0.137 C 
ATOM     20  C   UNL     1     -40.957  26.802   0.571  0.00  0.00    +0.003 C 
ATOM     21  C   UNL     1     -45.370  30.371   7.759  0.00  0.00    +0.038 C 
ATOM     22  C   UNL     1     -41.212  24.737  -0.659  0.00  0.00    +0.037 C 
ATOM     23  C   UNL     1     -40.490  25.897  -0.383  0.00  0.00    +0.003 C 
ENDROOT
BRANCH  13  24
ATOM     24  O   UNL     1     -46.401  24.544   3.322  0.00  0.00    -0.505 OA
ATOM     25  H   UNL     1     -47.035  24.249   3.945  0.00  0.00    +0.292 HD
ENDBRANCH  13  24
BRANCH  15  26
ATOM     26  O   UNL     1     -46.663  27.761   7.011  0.00  0.00    -0.506 OA
ATOM     27  H   UNL     1     -46.971  28.193   7.784  0.00  0.00    +0.292 HD
ENDBRANCH  15  26
BRANCH  19  28
ATOM     28  O   UNL     1     -43.057  23.321  -0.289  0.00  0.00    -0.505 OA
ATOM     29  H   UNL     1     -42.889  22.890  -1.103  0.00  0.00    +0.292 HD
ENDBRANCH  19  28
TORSDOF 3
ENDMDL
MODEL 9
REMARK VINA RESULT:      -6.5      2.063      6.608
REMARK  Name = 5323531
REMARK  3 active torsions:
REMARK  status: ('A' for Active; 'I' for Inactive)
REMARK    1  A    between atoms: C_13  and  O_24
REMARK    2  A    between atoms: C_15  and  O_26
REMARK    3  A    between atoms: C_19  and  O_28
REMARK                            x       y       z     vdW  Elec       q    Type
REMARK                         _______ _______ _______ _____ _____    ______ ____
ROOT
ATOM      1  O   UNL     1     -40.379  22.978  -0.425  0.00  0.00    -0.287 OA
ATOM      2  O   UNL     1     -38.619  25.524   3.817  0.00  0.00    -0.286 OA
ATOM      3  O   UNL     1     -40.102  20.458  -0.010  0.00  0.00    -0.283 OA
ATOM      4  O   UNL     1     -38.296  19.169  -1.542  0.00  0.00    -0.283 OA
ATOM      5  C   UNL     1     -38.970  22.790   1.475  0.00  0.00    +0.048 C 
ATOM      6  C   UNL     1     -38.330  21.576   1.139  0.00  0.00    +0.048 C 
ATOM      7  C   UNL     1     -38.448  23.567   2.516  0.00  0.00    +0.076 C 
ATOM      8  C   UNL     1     -37.123  21.192   1.760  0.00  0.00    +0.040 C 
ATOM      9  C   UNL     1     -40.126  23.341   0.717  0.00  0.00    +0.196 C 
ATOM     10  C   UNL     1     -40.940  24.412   1.321  0.00  0.00    +0.045 C 
ATOM     11  C   UNL     1     -40.452  25.128   2.413  0.00  0.00    +0.076 C 
ATOM     12  C   UNL     1     -39.130  24.798   2.973  0.00  0.00    +0.202 C 
ATOM     13  C   UNL     1     -37.269  23.182   3.160  0.00  0.00    +0.137 C 
ATOM     14  C   UNL     1     -36.607  22.018   2.771  0.00  0.00    +0.040 C 
ATOM     15  C   UNL     1     -36.407  19.952   1.366  0.00  0.00    +0.133 C 
ATOM     16  C   UNL     1     -38.908  20.588   0.207  0.00  0.00    +0.234 C 
ATOM     17  C   UNL     1     -36.769  19.208   0.302  0.00  0.00    +0.054 C 
ATOM     18  C   UNL     1     -37.984  19.613  -0.449  0.00  0.00    +0.233 C 
ATOM     19  C   UNL     1     -41.210  26.165   2.966  0.00  0.00    +0.137 C 
ATOM     20  C   UNL     1     -42.187  24.733   0.775  0.00  0.00    +0.003 C 
ATOM     21  C   UNL     1     -36.068  17.993  -0.232  0.00  0.00    +0.038 C 
ATOM     22  C   UNL     1     -42.457  26.479   2.424  0.00  0.00    +0.037 C 
ATOM     23  C   UNL     1     -42.945  25.764   1.331  0.00  0.00    +0.003 C 
ENDROOT
BRANCH  13  24
ATOM     24  O   UNL     1     -36.706  23.898   4.175  0.00  0.00    -0.505 OA
ATOM     25  H   UNL     1     -37.155  24.640   4.531  0.00  0.00    +0.292 HD
ENDBRANCH  13  24
BRANCH  15  26
ATOM     26  O   UNL     1     -35.318  19.650   2.162  0.00  0.00    -0.506 OA
ATOM     27  H   UNL     1     -34.614  19.136   1.817  0.00  0.00    +0.292 HD
ENDBRANCH  15  26
BRANCH  19  28
ATOM     28  O   UNL     1     -40.795  26.893   4.040  0.00  0.00    -0.505 OA
ATOM     29  H   UNL     1     -39.890  26.899   4.281  0.00  0.00    +0.292 HD
ENDBRANCH  19  28
TORSDOF 3
ENDMDL
