MODEL 1
REMARK VINA RESULT:      -7.3      0.000      0.000
REMARK  Name = 18981
REMARK  6 active torsions:
REMARK  status: ('A' for Active; 'I' for Inactive)
REMARK    1  A    between atoms: N_1  and  N_2
REMARK    2  A    between atoms: N_1  and  C_5
REMARK    3  A    between atoms: N_2  and  C_15
REMARK    4  A    between atoms: C_8  and  O_13
REMARK    5  A    between atoms: C_16  and  N_23
REMARK    6  A    between atoms: C_17  and  N_26
REMARK                            x       y       z     vdW  Elec       q    Type
REMARK                         _______ _______ _______ _____ _____    ______ ____
ROOT
ATOM      1  N   UNL     1     -36.450  22.501   1.755  0.00  0.00    -0.125 NA
ENDROOT
BRANCH   1   4
ATOM      2  C   UNL     1     -34.306  22.058   0.666  0.00  0.00    +0.020 C 
ATOM      3  C   UNL     1     -33.277  21.140   0.349  0.00  0.00    +0.001 C 
ATOM      4  C   UNL     1     -35.408  21.620   1.419  0.00  0.00    +0.123 C 
ATOM      5  C   UNL     1     -33.380  19.812   0.792  0.00  0.00    +0.003 C 
ATOM      6  C   UNL     1     -34.203  23.387   0.223  0.00  0.00    +0.001 C 
ATOM      7  C   UNL     1     -35.494  20.296   1.852  0.00  0.00    +0.150 C 
ATOM      8  C   UNL     1     -32.174  21.578  -0.404  0.00  0.00    +0.000 C 
ATOM      9  C   UNL     1     -34.482  19.394   1.539  0.00  0.00    +0.038 C 
ATOM     10  C   UNL     1     -33.100  23.803  -0.524  0.00  0.00    +0.000 C 
ATOM     11  C   UNL     1     -32.088  22.901  -0.837  0.00  0.00    +0.000 C 
BRANCH   7  12
ATOM     12  O   UNL     1     -36.561  19.866   2.582  0.00  0.00    -0.504 OA
ATOM     13  H   UNL     1     -36.732  18.949   2.669  0.00  0.00    +0.292 HD
ENDBRANCH   7  12
ENDBRANCH   1   4
BRANCH   1  14
ATOM     14  N   UNL     1     -36.644  22.474   2.990  0.00  0.00    -0.126 NA
BRANCH  14  15
ATOM     15  C   UNL     1     -35.894  23.489   3.611  0.00  0.00    +0.112 C 
ATOM     16  C   UNL     1     -35.310  23.287   4.859  0.00  0.00    +0.161 C 
ATOM     17  C   UNL     1     -34.420  25.533   4.798  0.00  0.00    +0.145 C 
ATOM     18  C   UNL     1     -34.571  24.310   5.454  0.00  0.00    +0.050 C 
ATOM     19  C   UNL     1     -35.745  24.708   2.953  0.00  0.00    +0.021 C 
ATOM     20  C   UNL     1     -35.007  25.731   3.547  0.00  0.00    +0.026 C 
BRANCH  16  23
ATOM     21  O   UNL     1     -36.079  22.026   6.629  0.00  0.00    -0.126 OA
ATOM     22  O   UNL     1     -34.940  21.019   5.046  0.00  0.00    -0.126 OA
ATOM     23  N   UNL     1     -35.450  22.049   5.546  0.00  0.00    +0.059 N 
ENDBRANCH  16  23
BRANCH  17  26
ATOM     24  O   UNL     1     -33.448  27.623   4.748  0.00  0.00    -0.126 OA
ATOM     25  O   UNL     1     -33.247  26.420   6.574  0.00  0.00    -0.126 OA
ATOM     26  N   UNL     1     -33.669  26.575   5.403  0.00  0.00    +0.058 N 
ENDBRANCH  17  26
ENDBRANCH  14  15
ENDBRANCH   1  14
TORSDOF 6
ENDMDL
MODEL 2
REMARK VINA RESULT:      -6.7      3.508      6.643
REMARK  Name = 18981
REMARK  6 active torsions:
REMARK  status: ('A' for Active; 'I' for Inactive)
REMARK    1  A    between atoms: N_1  and  N_2
REMARK    2  A    between atoms: N_1  and  C_5
REMARK    3  A    between atoms: N_2  and  C_15
REMARK    4  A    between atoms: C_8  and  O_13
REMARK    5  A    between atoms: C_16  and  N_23
REMARK    6  A    between atoms: C_17  and  N_26
REMARK                            x       y       z     vdW  Elec       q    Type
REMARK                         _______ _______ _______ _____ _____    ______ ____
ROOT
ATOM      1  N   UNL     1     -35.754  24.851   1.657  0.00  0.00    -0.125 NA
ENDROOT
BRANCH   1   4
ATOM      2  C   UNL     1     -35.528  23.767   3.836  0.00  0.00    +0.020 C 
ATOM      3  C   UNL     1     -35.460  23.884   5.245  0.00  0.00    +0.001 C 
ATOM      4  C   UNL     1     -35.683  24.926   3.058  0.00  0.00    +0.123 C 
ATOM      5  C   UNL     1     -35.550  25.155   5.834  0.00  0.00    +0.003 C 
ATOM      6  C   UNL     1     -35.436  22.495   3.247  0.00  0.00    +0.001 C 
ATOM      7  C   UNL     1     -35.771  26.182   3.660  0.00  0.00    +0.150 C 
ATOM      8  C   UNL     1     -35.304  22.725   6.023  0.00  0.00    +0.000 C 
ATOM      9  C   UNL     1     -35.705  26.296   5.045  0.00  0.00    +0.038 C 
ATOM     10  C   UNL     1     -35.282  21.355   4.036  0.00  0.00    +0.000 C 
ATOM     11  C   UNL     1     -35.216  21.470   5.421  0.00  0.00    +0.000 C 
BRANCH   7  12
ATOM     12  O   UNL     1     -35.923  27.309   2.910  0.00  0.00    -0.504 OA
ATOM     13  H   UNL     1     -35.677  28.143   3.260  0.00  0.00    +0.292 HD
ENDBRANCH   7  12
ENDBRANCH   1   4
BRANCH   1  14
ATOM     14  N   UNL     1     -36.877  25.244   1.270  0.00  0.00    -0.126 NA
BRANCH  14  15
ATOM     15  C   UNL     1     -37.692  24.136   0.978  0.00  0.00    +0.112 C 
ATOM     16  C   UNL     1     -38.900  23.940   1.643  0.00  0.00    +0.161 C 
ATOM     17  C   UNL     1     -39.270  21.924   0.364  0.00  0.00    +0.145 C 
ATOM     18  C   UNL     1     -39.691  22.833   1.335  0.00  0.00    +0.050 C 
ATOM     19  C   UNL     1     -37.269  23.229   0.008  0.00  0.00    +0.021 C 
ATOM     20  C   UNL     1     -38.058  22.122  -0.299  0.00  0.00    +0.026 C 
BRANCH  16  23
ATOM     21  O   UNL     1     -40.036  25.842   2.283  0.00  0.00    -0.126 OA
ATOM     22  O   UNL     1     -39.047  24.645   3.834  0.00  0.00    -0.126 OA
ATOM     23  N   UNL     1     -39.350  24.855   2.636  0.00  0.00    +0.059 N 
ENDBRANCH  16  23
BRANCH  17  26
ATOM     24  O   UNL     1     -41.311  20.856   0.259  0.00  0.00    -0.126 OA
ATOM     25  O   UNL     1     -39.528  19.772  -0.422  0.00  0.00    -0.126 OA
ATOM     26  N   UNL     1     -40.074  20.796   0.052  0.00  0.00    +0.058 N 
ENDBRANCH  17  26
ENDBRANCH  14  15
ENDBRANCH   1  14
TORSDOF 6
ENDMDL
MODEL 3
REMARK VINA RESULT:      -6.5      1.701      2.777
REMARK  Name = 18981
REMARK  6 active torsions:
REMARK  status: ('A' for Active; 'I' for Inactive)
REMARK    1  A    between atoms: N_1  and  N_2
REMARK    2  A    between atoms: N_1  and  C_5
REMARK    3  A    between atoms: N_2  and  C_15
REMARK    4  A    between atoms: C_8  and  O_13
REMARK    5  A    between atoms: C_16  and  N_23
REMARK    6  A    between atoms: C_17  and  N_26
REMARK                            x       y       z     vdW  Elec       q    Type
REMARK                         _______ _______ _______ _____ _____    ______ ____
ROOT
ATOM      1  N   UNL     1     -35.140  21.735   1.604  0.00  0.00    -0.125 NA
ENDROOT
BRANCH   1   4
ATOM      2  C   UNL     1     -34.758  19.459   0.797  0.00  0.00    +0.020 C 
ATOM      3  C   UNL     1     -35.255  18.309   0.140  0.00  0.00    +0.001 C 
ATOM      4  C   UNL     1     -35.597  20.574   0.957  0.00  0.00    +0.123 C 
ATOM      5  C   UNL     1     -36.575  18.308  -0.339  0.00  0.00    +0.003 C 
ATOM      6  C   UNL     1     -33.438  19.460   1.276  0.00  0.00    +0.001 C 
ATOM      7  C   UNL     1     -36.907  20.556   0.476  0.00  0.00    +0.150 C 
ATOM      8  C   UNL     1     -34.417  17.193  -0.021  0.00  0.00    +0.000 C 
ATOM      9  C   UNL     1     -37.395  19.425  -0.171  0.00  0.00    +0.038 C 
ATOM     10  C   UNL     1     -32.620  18.343   1.108  0.00  0.00    +0.000 C 
ATOM     11  C   UNL     1     -33.108  17.212   0.461  0.00  0.00    +0.000 C 
BRANCH   7  12
ATOM     12  O   UNL     1     -37.724  21.635   0.628  0.00  0.00    -0.504 OA
ATOM     13  H   UNL     1     -37.638  22.374   0.057  0.00  0.00    +0.292 HD
ENDBRANCH   7  12
ENDBRANCH   1   4
BRANCH   1  14
ATOM     14  N   UNL     1     -35.725  21.863   2.702  0.00  0.00    -0.126 NA
BRANCH  14  15
ATOM     15  C   UNL     1     -35.275  23.029   3.347  0.00  0.00    +0.112 C 
ATOM     16  C   UNL     1     -35.125  23.072   4.730  0.00  0.00    +0.161 C 
ATOM     17  C   UNL     1     -34.381  25.365   4.574  0.00  0.00    +0.145 C 
ATOM     18  C   UNL     1     -34.677  24.240   5.346  0.00  0.00    +0.050 C 
ATOM     19  C   UNL     1     -34.980  24.150   2.573  0.00  0.00    +0.021 C 
ATOM     20  C   UNL     1     -34.533  25.319   3.187  0.00  0.00    +0.026 C 
BRANCH  16  23
ATOM     21  O   UNL     1     -34.975  20.818   5.195  0.00  0.00    -0.126 OA
ATOM     22  O   UNL     1     -36.118  22.093   6.568  0.00  0.00    -0.126 OA
ATOM     23  N   UNL     1     -35.420  21.937   5.538  0.00  0.00    +0.059 N 
ENDBRANCH  16  23
BRANCH  17  26
ATOM     24  O   UNL     1     -33.705  26.546   6.435  0.00  0.00    -0.126 OA
ATOM     25  O   UNL     1     -33.756  27.583   4.501  0.00  0.00    -0.126 OA
ATOM     26  N   UNL     1     -33.925  26.555   5.199  0.00  0.00    +0.058 N 
ENDBRANCH  17  26
ENDBRANCH  14  15
ENDBRANCH   1  14
TORSDOF 6
ENDMDL
MODEL 4
REMARK VINA RESULT:      -6.5      2.956      4.632
REMARK  Name = 18981
REMARK  6 active torsions:
REMARK  status: ('A' for Active; 'I' for Inactive)
REMARK    1  A    between atoms: N_1  and  N_2
REMARK    2  A    between atoms: N_1  and  C_5
REMARK    3  A    between atoms: N_2  and  C_15
REMARK    4  A    between atoms: C_8  and  O_13
REMARK    5  A    between atoms: C_16  and  N_23
REMARK    6  A    between atoms: C_17  and  N_26
REMARK                            x       y       z     vdW  Elec       q    Type
REMARK                         _______ _______ _______ _____ _____    ______ ____
ROOT
ATOM      1  N   UNL     1     -37.664  22.511   3.331  0.00  0.00    -0.125 NA
ENDROOT
BRANCH   1   4
ATOM      2  C   UNL     1     -39.510  23.645   2.199  0.00  0.00    +0.020 C 
ATOM      3  C   UNL     1     -40.455  23.664   1.145  0.00  0.00    +0.001 C 
ATOM      4  C   UNL     1     -38.617  22.566   2.299  0.00  0.00    +0.123 C 
ATOM      5  C   UNL     1     -40.479  22.604   0.225  0.00  0.00    +0.003 C 
ATOM      6  C   UNL     1     -39.485  24.706   3.118  0.00  0.00    +0.001 C 
ATOM      7  C   UNL     1     -38.655  21.521   1.376  0.00  0.00    +0.150 C 
ATOM      8  C   UNL     1     -41.348  24.743   1.043  0.00  0.00    +0.000 C 
ATOM      9  C   UNL     1     -39.585  21.539   0.341  0.00  0.00    +0.038 C 
ATOM     10  C   UNL     1     -40.380  25.770   3.002  0.00  0.00    +0.000 C 
ATOM     11  C   UNL     1     -41.310  25.788   1.966  0.00  0.00    +0.000 C 
BRANCH   7  12
ATOM     12  O   UNL     1     -37.791  20.471   1.470  0.00  0.00    -0.504 OA
ATOM     13  H   UNL     1     -36.880  20.594   1.287  0.00  0.00    +0.292 HD
ENDBRANCH   7  12
ENDBRANCH   1   4
BRANCH   1  14
ATOM     14  N   UNL     1     -36.512  22.556   2.844  0.00  0.00    -0.126 NA
BRANCH  14  15
ATOM     15  C   UNL     1     -35.773  23.576   3.469  0.00  0.00    +0.112 C 
ATOM     16  C   UNL     1     -35.237  23.395   4.742  0.00  0.00    +0.161 C 
ATOM     17  C   UNL     1     -34.315  25.628   4.663  0.00  0.00    +0.145 C 
ATOM     18  C   UNL     1     -34.507  24.422   5.340  0.00  0.00    +0.050 C 
ATOM     19  C   UNL     1     -35.584  24.778   2.790  0.00  0.00    +0.021 C 
ATOM     20  C   UNL     1     -34.855  25.805   3.388  0.00  0.00    +0.026 C 
BRANCH  16  23
ATOM     21  O   UNL     1     -34.918  21.125   4.985  0.00  0.00    -0.126 OA
ATOM     22  O   UNL     1     -36.073  22.187   6.519  0.00  0.00    -0.126 OA
ATOM     23  N   UNL     1     -35.418  22.175   5.450  0.00  0.00    +0.059 N 
ENDBRANCH  16  23
BRANCH  17  26
ATOM     24  O   UNL     1     -33.069  26.480   6.406  0.00  0.00    -0.126 OA
ATOM     25  O   UNL     1     -33.441  27.761   4.662  0.00  0.00    -0.126 OA
ATOM     26  N   UNL     1     -33.573  26.674   5.272  0.00  0.00    +0.058 N 
ENDBRANCH  17  26
ENDBRANCH  14  15
ENDBRANCH   1  14
TORSDOF 6
ENDMDL
MODEL 5
REMARK VINA RESULT:      -6.5      3.598      6.916
REMARK  Name = 18981
REMARK  6 active torsions:
REMARK  status: ('A' for Active; 'I' for Inactive)
REMARK    1  A    between atoms: N_1  and  N_2
REMARK    2  A    between atoms: N_1  and  C_5
REMARK    3  A    between atoms: N_2  and  C_15
REMARK    4  A    between atoms: C_8  and  O_13
REMARK    5  A    between atoms: C_16  and  N_23
REMARK    6  A    between atoms: C_17  and  N_26
REMARK                            x       y       z     vdW  Elec       q    Type
REMARK                         _______ _______ _______ _____ _____    ______ ____
ROOT
ATOM      1  N   UNL     1     -35.569  21.373   1.386  0.00  0.00    -0.125 NA
ENDROOT
BRANCH   1   4
ATOM      2  C   UNL     1     -35.608  22.550   3.528  0.00  0.00    +0.020 C 
ATOM      3  C   UNL     1     -35.825  23.751   4.246  0.00  0.00    +0.001 C 
ATOM      4  C   UNL     1     -35.775  22.545   2.133  0.00  0.00    +0.123 C 
ATOM      5  C   UNL     1     -36.203  24.909   3.549  0.00  0.00    +0.003 C 
ATOM      6  C   UNL     1     -35.230  21.392   4.225  0.00  0.00    +0.001 C 
ATOM      7  C   UNL     1     -36.151  23.706   1.456  0.00  0.00    +0.150 C 
ATOM      8  C   UNL     1     -35.658  23.757   5.640  0.00  0.00    +0.000 C 
ATOM      9  C   UNL     1     -36.365  24.886   2.163  0.00  0.00    +0.038 C 
ATOM     10  C   UNL     1     -35.068  21.417   5.611  0.00  0.00    +0.000 C 
ATOM     11  C   UNL     1     -35.283  22.596   6.317  0.00  0.00    +0.000 C 
BRANCH   7  12
ATOM     12  O   UNL     1     -36.315  23.705   0.104  0.00  0.00    -0.504 OA
ATOM     13  H   UNL     1     -36.704  22.966  -0.322  0.00  0.00    +0.292 HD
ENDBRANCH   7  12
ENDBRANCH   1   4
BRANCH   1  14
ATOM     14  N   UNL     1     -34.670  21.567   0.537  0.00  0.00    -0.126 NA
BRANCH  14  15
ATOM     15  C   UNL     1     -33.716  20.537   0.613  0.00  0.00    +0.112 C 
ATOM     16  C   UNL     1     -32.527  20.607  -0.109  0.00  0.00    +0.161 C 
ATOM     17  C   UNL     1     -31.859  18.469   0.796  0.00  0.00    +0.145 C 
ATOM     18  C   UNL     1     -31.596  19.572  -0.017  0.00  0.00    +0.050 C 
ATOM     19  C   UNL     1     -33.981  19.437   1.426  0.00  0.00    +0.021 C 
ATOM     20  C   UNL     1     -33.052  18.402   1.517  0.00  0.00    +0.026 C 
BRANCH  16  23
ATOM     21  O   UNL     1     -31.569  22.672  -0.474  0.00  0.00    -0.126 OA
ATOM     22  O   UNL     1     -32.659  21.721  -2.124  0.00  0.00    -0.126 OA
ATOM     23  N   UNL     1     -32.237  21.722  -0.944  0.00  0.00    +0.059 N 
ENDBRANCH  16  23
BRANCH  17  26
ATOM     24  O   UNL     1     -31.189  16.303   0.375  0.00  0.00    -0.126 OA
ATOM     25  O   UNL     1     -29.827  17.622   1.482  0.00  0.00    -0.126 OA
ATOM     26  N   UNL     1     -30.913  17.414   0.889  0.00  0.00    +0.058 N 
ENDBRANCH  17  26
ENDBRANCH  14  15
ENDBRANCH   1  14
TORSDOF 6
ENDMDL
MODEL 6
REMARK VINA RESULT:      -6.4      2.797      3.851
REMARK  Name = 18981
REMARK  6 active torsions:
REMARK  status: ('A' for Active; 'I' for Inactive)
REMARK    1  A    between atoms: N_1  and  N_2
REMARK    2  A    between atoms: N_1  and  C_5
REMARK    3  A    between atoms: N_2  and  C_15
REMARK    4  A    between atoms: C_8  and  O_13
REMARK    5  A    between atoms: C_16  and  N_23
REMARK    6  A    between atoms: C_17  and  N_26
REMARK                            x       y       z     vdW  Elec       q    Type
REMARK                         _______ _______ _______ _____ _____    ______ ____
ROOT
ATOM      1  N   UNL     1     -37.602  22.839   3.430  0.00  0.00    -0.125 NA
ENDROOT
BRANCH   1   4
ATOM      2  C   UNL     1     -36.879  21.131   1.837  0.00  0.00    +0.020 C 
ATOM      3  C   UNL     1     -37.186  20.294   0.738  0.00  0.00    +0.001 C 
ATOM      4  C   UNL     1     -37.868  21.993   2.340  0.00  0.00    +0.123 C 
ATOM      5  C   UNL     1     -38.470  20.343   0.174  0.00  0.00    +0.003 C 
ATOM      6  C   UNL     1     -35.595  21.081   2.402  0.00  0.00    +0.001 C 
ATOM      7  C   UNL     1     -39.140  22.029   1.767  0.00  0.00    +0.150 C 
ATOM      8  C   UNL     1     -36.198  19.431   0.235  0.00  0.00    +0.000 C 
ATOM      9  C   UNL     1     -39.440  21.206   0.686  0.00  0.00    +0.038 C 
ATOM     10  C   UNL     1     -34.626  20.217   1.889  0.00  0.00    +0.000 C 
ATOM     11  C   UNL     1     -34.926  19.395   0.808  0.00  0.00    +0.000 C 
BRANCH   7  12
ATOM     12  O   UNL     1     -40.101  22.865   2.250  0.00  0.00    -0.504 OA
ATOM     13  H   UNL     1     -40.940  22.524   2.494  0.00  0.00    +0.292 HD
ENDBRANCH   7  12
ENDBRANCH   1   4
BRANCH   1  14
ATOM     14  N   UNL     1     -37.616  24.031   3.052  0.00  0.00    -0.126 NA
BRANCH  14  15
ATOM     15  C   UNL     1     -36.552  24.731   3.648  0.00  0.00    +0.112 C 
ATOM     16  C   UNL     1     -36.043  25.890   3.069  0.00  0.00    +0.161 C 
ATOM     17  C   UNL     1     -34.442  26.078   4.869  0.00  0.00    +0.145 C 
ATOM     18  C   UNL     1     -34.987  26.566   3.680  0.00  0.00    +0.050 C 
ATOM     19  C   UNL     1     -36.010  24.241   4.835  0.00  0.00    +0.021 C 
ATOM     20  C   UNL     1     -34.954  24.915   5.445  0.00  0.00    +0.026 C 
BRANCH  16  23
ATOM     21  O   UNL     1     -37.558  27.191   1.916  0.00  0.00    -0.126 OA
ATOM     22  O   UNL     1     -36.066  26.061   0.769  0.00  0.00    -0.126 OA
ATOM     23  N   UNL     1     -36.583  26.407   1.858  0.00  0.00    +0.059 N 
ENDBRANCH  16  23
BRANCH  17  26
ATOM     24  O   UNL     1     -32.469  27.269   4.770  0.00  0.00    -0.126 OA
ATOM     25  O   UNL     1     -33.341  26.851   6.741  0.00  0.00    -0.126 OA
ATOM     26  N   UNL     1     -33.366  26.765   5.491  0.00  0.00    +0.058 N 
ENDBRANCH  17  26
ENDBRANCH  14  15
ENDBRANCH   1  14
TORSDOF 6
ENDMDL
MODEL 7
REMARK VINA RESULT:      -6.4      4.494      8.148
REMARK  Name = 18981
REMARK  6 active torsions:
REMARK  status: ('A' for Active; 'I' for Inactive)
REMARK    1  A    between atoms: N_1  and  N_2
REMARK    2  A    between atoms: N_1  and  C_5
REMARK    3  A    between atoms: N_2  and  C_15
REMARK    4  A    between atoms: C_8  and  O_13
REMARK    5  A    between atoms: C_16  and  N_23
REMARK    6  A    between atoms: C_17  and  N_26
REMARK                            x       y       z     vdW  Elec       q    Type
REMARK                         _______ _______ _______ _____ _____    ______ ____
ROOT
ATOM      1  N   UNL     1     -32.569  28.423   5.703  0.00  0.00    -0.125 NA
ENDROOT
BRANCH   1   4
ATOM      2  C   UNL     1     -31.960  30.468   4.509  0.00  0.00    +0.020 C 
ATOM      3  C   UNL     1     -30.999  31.472   4.241  0.00  0.00    +0.001 C 
ATOM      4  C   UNL     1     -31.642  29.438   5.410  0.00  0.00    +0.123 C 
ATOM      5  C   UNL     1     -29.751  31.417   4.880  0.00  0.00    +0.003 C 
ATOM      6  C   UNL     1     -33.209  30.524   3.870  0.00  0.00    +0.001 C 
ATOM      7  C   UNL     1     -30.396  29.399   6.037  0.00  0.00    +0.150 C 
ATOM      8  C   UNL     1     -31.316  32.503   3.340  0.00  0.00    +0.000 C 
ATOM      9  C   UNL     1     -29.452  30.386   5.772  0.00  0.00    +0.038 C 
ATOM     10  C   UNL     1     -33.506  31.555   2.978  0.00  0.00    +0.000 C 
ATOM     11  C   UNL     1     -32.561  32.542   2.714  0.00  0.00    +0.000 C 
BRANCH   7  12
ATOM     12  O   UNL     1     -30.084  28.401   6.911  0.00  0.00    -0.504 OA
ATOM     13  H   UNL     1     -30.312  27.514   6.713  0.00  0.00    +0.292 HD
ENDBRANCH   7  12
ENDBRANCH   1   4
BRANCH   1  14
ATOM     14  N   UNL     1     -32.199  27.350   5.179  0.00  0.00    -0.126 NA
BRANCH  14  15
ATOM     15  C   UNL     1     -33.318  26.541   4.912  0.00  0.00    +0.112 C 
ATOM     16  C   UNL     1     -33.571  26.069   3.627  0.00  0.00    +0.161 C 
ATOM     17  C   UNL     1     -35.549  24.943   4.437  0.00  0.00    +0.145 C 
ATOM     18  C   UNL     1     -34.687  25.268   3.388  0.00  0.00    +0.050 C 
ATOM     19  C   UNL     1     -34.176  26.219   5.961  0.00  0.00    +0.021 C 
ATOM     20  C   UNL     1     -35.293  25.419   5.723  0.00  0.00    +0.026 C 
BRANCH  16  23
ATOM     21  O   UNL     1     -31.675  25.696   2.369  0.00  0.00    -0.126 OA
ATOM     22  O   UNL     1     -33.002  27.347   1.793  0.00  0.00    -0.126 OA
ATOM     23  N   UNL     1     -32.706  26.386   2.542  0.00  0.00    +0.059 N 
ENDBRANCH  16  23
BRANCH  17  26
ATOM     24  O   UNL     1     -37.802  24.679   4.023  0.00  0.00    -0.126 OA
ATOM     25  O   UNL     1     -36.547  22.883   4.158  0.00  0.00    -0.126 OA
ATOM     26  N   UNL     1     -36.687  24.129   4.194  0.00  0.00    +0.058 N 
ENDBRANCH  17  26
ENDBRANCH  14  15
ENDBRANCH   1  14
TORSDOF 6
ENDMDL
MODEL 8
REMARK VINA RESULT:      -6.4      4.673      8.358
REMARK  Name = 18981
REMARK  6 active torsions:
REMARK  status: ('A' for Active; 'I' for Inactive)
REMARK    1  A    between atoms: N_1  and  N_2
REMARK    2  A    between atoms: N_1  and  C_5
REMARK    3  A    between atoms: N_2  and  C_15
REMARK    4  A    between atoms: C_8  and  O_13
REMARK    5  A    between atoms: C_16  and  N_23
REMARK    6  A    between atoms: C_17  and  N_26
REMARK                            x       y       z     vdW  Elec       q    Type
REMARK                         _______ _______ _______ _____ _____    ______ ____
ROOT
ATOM      1  N   UNL     1     -32.529  28.463   5.713  0.00  0.00    -0.125 NA
ENDROOT
BRANCH   1   4
ATOM      2  C   UNL     1     -30.601  29.962   5.596  0.00  0.00    +0.020 C 
ATOM      3  C   UNL     1     -29.990  31.106   5.030  0.00  0.00    +0.001 C 
ATOM      4  C   UNL     1     -31.889  29.592   5.174  0.00  0.00    +0.123 C 
ATOM      5  C   UNL     1     -30.684  31.846   4.061  0.00  0.00    +0.003 C 
ATOM      6  C   UNL     1     -29.906  29.220   6.566  0.00  0.00    +0.001 C 
ATOM      7  C   UNL     1     -32.564  30.340   4.209  0.00  0.00    +0.150 C 
ATOM      8  C   UNL     1     -28.702  31.476   5.451  0.00  0.00    +0.000 C 
ATOM      9  C   UNL     1     -31.963  31.465   3.654  0.00  0.00    +0.038 C 
ATOM     10  C   UNL     1     -28.627  29.603   6.972  0.00  0.00    +0.000 C 
ATOM     11  C   UNL     1     -28.026  30.728   6.416  0.00  0.00    +0.000 C 
BRANCH   7  12
ATOM     12  O   UNL     1     -33.814  29.986   3.798  0.00  0.00    -0.504 OA
ATOM     13  H   UNL     1     -34.338  30.593   3.313  0.00  0.00    +0.292 HD
ENDBRANCH   7  12
ENDBRANCH   1   4
BRANCH   1  14
ATOM     14  N   UNL     1     -32.212  27.446   5.057  0.00  0.00    -0.126 NA
BRANCH  14  15
ATOM     15  C   UNL     1     -33.349  26.648   4.839  0.00  0.00    +0.112 C 
ATOM     16  C   UNL     1     -33.736  26.288   3.551  0.00  0.00    +0.161 C 
ATOM     17  C   UNL     1     -35.611  25.066   4.463  0.00  0.00    +0.145 C 
ATOM     18  C   UNL     1     -34.868  25.495   3.362  0.00  0.00    +0.050 C 
ATOM     19  C   UNL     1     -34.088  26.221   5.941  0.00  0.00    +0.021 C 
ATOM     20  C   UNL     1     -35.221  25.430   5.752  0.00  0.00    +0.026 C 
BRANCH  16  23
ATOM     21  O   UNL     1     -32.071  25.983   1.986  0.00  0.00    -0.126 OA
ATOM     22  O   UNL     1     -33.288  27.805   1.873  0.00  0.00    -0.126 OA
ATOM     23  N   UNL     1     -32.994  26.713   2.414  0.00  0.00    +0.059 N 
ENDBRANCH  16  23
BRANCH  17  26
ATOM     24  O   UNL     1     -36.643  23.011   4.295  0.00  0.00    -0.126 OA
ATOM     25  O   UNL     1     -37.871  24.818   4.082  0.00  0.00    -0.126 OA
ATOM     26  N   UNL     1     -36.764  24.260   4.271  0.00  0.00    +0.058 N 
ENDBRANCH  17  26
ENDBRANCH  14  15
ENDBRANCH   1  14
TORSDOF 6
ENDMDL
MODEL 9
REMARK VINA RESULT:      -6.4      3.515      5.069
REMARK  Name = 18981
REMARK  6 active torsions:
REMARK  status: ('A' for Active; 'I' for Inactive)
REMARK    1  A    between atoms: N_1  and  N_2
REMARK    2  A    between atoms: N_1  and  C_5
REMARK    3  A    between atoms: N_2  and  C_15
REMARK    4  A    between atoms: C_8  and  O_13
REMARK    5  A    between atoms: C_16  and  N_23
REMARK    6  A    between atoms: C_17  and  N_26
REMARK                            x       y       z     vdW  Elec       q    Type
REMARK                         _______ _______ _______ _____ _____    ______ ____
ROOT
ATOM      1  N   UNL     1     -36.144  24.920   4.284  0.00  0.00    -0.125 NA
ENDROOT
BRANCH   1   4
ATOM      2  C   UNL     1     -36.861  22.927   3.062  0.00  0.00    +0.020 C 
ATOM      3  C   UNL     1     -37.863  22.257   2.321  0.00  0.00    +0.001 C 
ATOM      4  C   UNL     1     -37.114  24.222   3.544  0.00  0.00    +0.123 C 
ATOM      5  C   UNL     1     -39.087  22.902   2.083  0.00  0.00    +0.003 C 
ATOM      6  C   UNL     1     -35.636  22.282   3.301  0.00  0.00    +0.001 C 
ATOM      7  C   UNL     1     -38.336  24.848   3.298  0.00  0.00    +0.150 C 
ATOM      8  C   UNL     1     -37.611  20.962   1.840  0.00  0.00    +0.000 C 
ATOM      9  C   UNL     1     -39.321  24.189   2.569  0.00  0.00    +0.038 C 
ATOM     10  C   UNL     1     -35.404  20.995   2.815  0.00  0.00    +0.000 C 
ATOM     11  C   UNL     1     -36.389  20.336   2.086  0.00  0.00    +0.000 C 
BRANCH   7  12
ATOM     12  O   UNL     1     -38.585  26.104   3.762  0.00  0.00    -0.504 OA
ATOM     13  H   UNL     1     -39.288  26.252   4.365  0.00  0.00    +0.292 HD
ENDBRANCH   7  12
ENDBRANCH   1   4
BRANCH   1  14
ATOM     14  N   UNL     1     -35.726  25.893   3.620  0.00  0.00    -0.126 NA
BRANCH  14  15
ATOM     15  C   UNL     1     -34.652  26.502   4.294  0.00  0.00    +0.112 C 
ATOM     16  C   UNL     1     -33.886  27.488   3.678  0.00  0.00    +0.161 C 
ATOM     17  C   UNL     1     -32.534  27.675   5.672  0.00  0.00    +0.145 C 
ATOM     18  C   UNL     1     -32.826  28.076   4.367  0.00  0.00    +0.050 C 
ATOM     19  C   UNL     1     -34.364  26.099   5.596  0.00  0.00    +0.021 C 
ATOM     20  C   UNL     1     -33.304  26.686   6.286  0.00  0.00    +0.026 C 
BRANCH  16  23
ATOM     21  O   UNL     1     -33.595  27.334   1.396  0.00  0.00    -0.126 OA
ATOM     22  O   UNL     1     -34.972  28.856   2.171  0.00  0.00    -0.126 OA
ATOM     23  N   UNL     1     -34.164  27.913   2.349  0.00  0.00    +0.059 N 
ENDBRANCH  16  23
BRANCH  17  26
ATOM     24  O   UNL     1     -30.331  27.712   6.352  0.00  0.00    -0.126 OA
ATOM     25  O   UNL     1     -31.652  29.343   6.996  0.00  0.00    -0.126 OA
ATOM     26  N   UNL     1     -31.455  28.273   6.374  0.00  0.00    +0.058 N 
ENDBRANCH  17  26
ENDBRANCH  14  15
ENDBRANCH   1  14
TORSDOF 6
ENDMDL
