MODEL 1
REMARK VINA RESULT:      -7.0      0.000      0.000
REMARK  Name = 56339
REMARK  7 active torsions:
REMARK  status: ('A' for Active; 'I' for Inactive)
REMARK    1  A    between atoms: N_4  and  C_21
REMARK    2  A    between atoms: C_5  and  C_9
REMARK    3  A    between atoms: C_5  and  C_15
REMARK    4  A    between atoms: C_21  and  O_22
REMARK    5  A    between atoms: O_22  and  P_23
REMARK    6  A    between atoms: P_23  and  O_25
REMARK    7  A    between atoms: P_23  and  O_27
REMARK                            x       y       z     vdW  Elec       q    Type
REMARK                         _______ _______ _______ _____ _____    ______ ____
ROOT
ATOM      1  O   UNL     1     -35.233  26.626   5.290  0.00  0.00    -0.272 OA
ATOM      2  O   UNL     1     -32.877  26.376   1.354  0.00  0.00    -0.252 OA
ATOM      3  N   UNL     1     -34.696  25.182   2.179  0.00  0.00    -0.277 N 
ATOM      4  N   UNL     1     -33.850  26.810   3.432  0.00  0.00    -0.185 N 
ATOM      5  C   UNL     1     -35.558  25.139   3.358  0.00  0.00    +0.166 C 
ATOM      6  C   UNL     1     -34.889  26.275   4.166  0.00  0.00    +0.258 C 
ATOM      7  C   UNL     1     -33.706  26.160   2.229  0.00  0.00    +0.312 C 
ATOM      8  H   UNL     1     -34.805  24.570   1.415  0.00  0.00    +0.152 HD
ENDROOT
BRANCH   5   9
ATOM      9  C   UNL     1     -35.436  23.833   4.154  0.00  0.00    +0.006 C 
ATOM     10  C   UNL     1     -35.339  23.868   5.546  0.00  0.00    -0.002 C 
ATOM     11  C   UNL     1     -35.420  22.605   3.489  0.00  0.00    -0.002 C 
ATOM     12  C   UNL     1     -35.227  22.681   6.271  0.00  0.00    -0.000 C 
ATOM     13  C   UNL     1     -35.309  21.419   4.213  0.00  0.00    -0.000 C 
ATOM     14  C   UNL     1     -35.213  21.457   5.604  0.00  0.00    -0.000 C 
ENDBRANCH   5   9
BRANCH   5  15
ATOM     15  C   UNL     1     -36.991  25.441   2.907  0.00  0.00    +0.006 C 
ATOM     16  C   UNL     1     -37.222  26.322   1.848  0.00  0.00    -0.002 C 
ATOM     17  C   UNL     1     -38.071  24.837   3.552  0.00  0.00    -0.002 C 
ATOM     18  C   UNL     1     -38.526  26.597   1.437  0.00  0.00    -0.000 C 
ATOM     19  C   UNL     1     -39.376  25.112   3.142  0.00  0.00    -0.000 C 
ATOM     20  C   UNL     1     -39.603  25.991   2.085  0.00  0.00    -0.000 C 
ENDBRANCH   5  15
BRANCH   4  21
ATOM     21  C   UNL     1     -33.011  27.899   3.894  0.00  0.00    +0.260 C 
BRANCH  21  22
ATOM     22  O   UNL     1     -32.044  27.383   4.789  0.00  0.00    -0.251 OA
BRANCH  22  23
ATOM     23  P   UNL     1     -31.875  28.093   6.232  0.00  0.00    +0.475 P 
ATOM     24  O   UNL     1     -32.183  29.562   6.272  0.00  0.00    -0.227 OA
BRANCH  23  25
ATOM     25  O   UNL     1     -32.786  27.185   7.215  0.00  0.00    -0.303 OA
ATOM     26  H   UNL     1     -32.801  26.272   6.889  0.00  0.00    +0.222 HD
ENDBRANCH  23  25
BRANCH  23  27
ATOM     27  O   UNL     1     -30.368  27.698   6.665  0.00  0.00    -0.303 OA
ATOM     28  H   UNL     1     -29.752  28.376   6.347  0.00  0.00    +0.222 HD
ENDBRANCH  23  27
ENDBRANCH  22  23
ENDBRANCH  21  22
ENDBRANCH   4  21
TORSDOF 7
ENDMDL
MODEL 2
REMARK VINA RESULT:      -7.0      4.580      6.497
REMARK  Name = 56339
REMARK  7 active torsions:
REMARK  status: ('A' for Active; 'I' for Inactive)
REMARK    1  A    between atoms: N_4  and  C_21
REMARK    2  A    between atoms: C_5  and  C_9
REMARK    3  A    between atoms: C_5  and  C_15
REMARK    4  A    between atoms: C_21  and  O_22
REMARK    5  A    between atoms: O_22  and  P_23
REMARK    6  A    between atoms: P_23  and  O_25
REMARK    7  A    between atoms: P_23  and  O_27
REMARK                            x       y       z     vdW  Elec       q    Type
REMARK                         _______ _______ _______ _____ _____    ______ ____
ROOT
ATOM      1  O   UNL     1     -36.469  24.079   1.066  0.00  0.00    -0.272 OA
ATOM      2  O   UNL     1     -40.173  21.534   2.020  0.00  0.00    -0.252 OA
ATOM      3  N   UNL     1     -37.917  21.285   2.532  0.00  0.00    -0.277 N 
ATOM      4  N   UNL     1     -38.542  23.078   1.380  0.00  0.00    -0.185 N 
ATOM      5  C   UNL     1     -36.647  21.979   2.336  0.00  0.00    +0.166 C 
ATOM      6  C   UNL     1     -37.174  23.183   1.520  0.00  0.00    +0.258 C 
ATOM      7  C   UNL     1     -39.016  21.933   1.975  0.00  0.00    +0.312 C 
ATOM      8  H   UNL     1     -37.989  20.430   3.016  0.00  0.00    +0.152 HD
ENDROOT
BRANCH   5   9
ATOM      9  C   UNL     1     -35.653  21.197   1.468  0.00  0.00    +0.006 C 
ATOM     10  C   UNL     1     -34.455  21.792   1.064  0.00  0.00    -0.002 C 
ATOM     11  C   UNL     1     -35.941  19.888   1.078  0.00  0.00    -0.002 C 
ATOM     12  C   UNL     1     -33.551  21.082   0.275  0.00  0.00    -0.000 C 
ATOM     13  C   UNL     1     -35.038  19.177   0.289  0.00  0.00    -0.000 C 
ATOM     14  C   UNL     1     -33.843  19.774  -0.112  0.00  0.00    -0.000 C 
ENDBRANCH   5   9
BRANCH   5  15
ATOM     15  C   UNL     1     -36.089  22.344   3.715  0.00  0.00    +0.006 C 
ATOM     16  C   UNL     1     -35.478  21.367   4.505  0.00  0.00    -0.002 C 
ATOM     17  C   UNL     1     -36.189  23.653   4.189  0.00  0.00    -0.002 C 
ATOM     18  C   UNL     1     -34.970  21.699   5.761  0.00  0.00    -0.000 C 
ATOM     19  C   UNL     1     -35.681  23.985   5.445  0.00  0.00    -0.000 C 
ATOM     20  C   UNL     1     -35.072  23.009   6.231  0.00  0.00    -0.000 C 
ENDBRANCH   5  15
BRANCH   4  21
ATOM     21  C   UNL     1     -39.358  24.044   0.671  0.00  0.00    +0.260 C 
BRANCH  21  22
ATOM     22  O   UNL     1     -40.259  24.641   1.585  0.00  0.00    -0.251 OA
BRANCH  22  23
ATOM     23  P   UNL     1     -39.694  25.766   2.599  0.00  0.00    +0.475 P 
ATOM     24  O   UNL     1     -38.471  26.502   2.134  0.00  0.00    -0.227 OA
BRANCH  23  25
ATOM     25  O   UNL     1     -40.979  26.706   2.886  0.00  0.00    -0.303 OA
ATOM     26  H   UNL     1     -41.405  26.937   2.046  0.00  0.00    +0.222 HD
ENDBRANCH  23  25
BRANCH  23  27
ATOM     27  O   UNL     1     -39.517  24.957   3.988  0.00  0.00    -0.303 OA
ATOM     28  H   UNL     1     -40.297  25.099   4.547  0.00  0.00    +0.222 HD
ENDBRANCH  23  27
ENDBRANCH  22  23
ENDBRANCH  21  22
ENDBRANCH   4  21
TORSDOF 7
ENDMDL
MODEL 3
REMARK VINA RESULT:      -6.9      2.640      4.924
REMARK  Name = 56339
REMARK  7 active torsions:
REMARK  status: ('A' for Active; 'I' for Inactive)
REMARK    1  A    between atoms: N_4  and  C_21
REMARK    2  A    between atoms: C_5  and  C_9
REMARK    3  A    between atoms: C_5  and  C_15
REMARK    4  A    between atoms: C_21  and  O_22
REMARK    5  A    between atoms: O_22  and  P_23
REMARK    6  A    between atoms: P_23  and  O_25
REMARK    7  A    between atoms: P_23  and  O_27
REMARK                            x       y       z     vdW  Elec       q    Type
REMARK                         _______ _______ _______ _____ _____    ______ ____
ROOT
ATOM      1  O   UNL     1     -35.576  24.932   2.676  0.00  0.00    -0.272 OA
ATOM      2  O   UNL     1     -35.690  22.548   6.600  0.00  0.00    -0.252 OA
ATOM      3  N   UNL     1     -36.242  21.999   4.408  0.00  0.00    -0.277 N 
ATOM      4  N   UNL     1     -35.470  24.041   4.818  0.00  0.00    -0.185 N 
ATOM      5  C   UNL     1     -36.251  22.601   3.076  0.00  0.00    +0.166 C 
ATOM      6  C   UNL     1     -35.726  24.004   3.463  0.00  0.00    +0.258 C 
ATOM      7  C   UNL     1     -35.783  22.842   5.416  0.00  0.00    +0.312 C 
ATOM      8  H   UNL     1     -36.538  21.074   4.577  0.00  0.00    +0.152 HD
ENDROOT
BRANCH   5   9
ATOM      9  C   UNL     1     -37.658  22.750   2.485  0.00  0.00    +0.006 C 
ATOM     10  C   UNL     1     -38.422  23.884   2.771  0.00  0.00    -0.002 C 
ATOM     11  C   UNL     1     -38.182  21.753   1.659  0.00  0.00    -0.002 C 
ATOM     12  C   UNL     1     -39.703  24.020   2.234  0.00  0.00    -0.000 C 
ATOM     13  C   UNL     1     -39.461  21.889   1.122  0.00  0.00    -0.000 C 
ATOM     14  C   UNL     1     -40.221  23.023   1.409  0.00  0.00    -0.000 C 
ENDBRANCH   5   9
BRANCH   5  15
ATOM     15  C   UNL     1     -35.303  21.793   2.185  0.00  0.00    +0.006 C 
ATOM     16  C   UNL     1     -35.085  20.437   2.442  0.00  0.00    -0.002 C 
ATOM     17  C   UNL     1     -34.653  22.407   1.113  0.00  0.00    -0.002 C 
ATOM     18  C   UNL     1     -34.221  19.701   1.630  0.00  0.00    -0.000 C 
ATOM     19  C   UNL     1     -33.790  21.671   0.302  0.00  0.00    -0.000 C 
ATOM     20  C   UNL     1     -33.574  20.318   0.560  0.00  0.00    -0.000 C 
ENDBRANCH   5  15
BRANCH   4  21
ATOM     21  C   UNL     1     -34.962  25.207   5.513  0.00  0.00    +0.260 C 
BRANCH  21  22
ATOM     22  O   UNL     1     -33.623  25.432   5.113  0.00  0.00    -0.251 OA
BRANCH  22  23
ATOM     23  P   UNL     1     -33.230  26.886   4.523  0.00  0.00    +0.475 P 
ATOM     24  O   UNL     1     -32.160  26.889   3.470  0.00  0.00    -0.227 OA
BRANCH  23  25
ATOM     25  O   UNL     1     -34.648  27.503   4.047  0.00  0.00    -0.303 OA
ATOM     26  H   UNL     1     -34.715  27.452   3.081  0.00  0.00    +0.222 HD
ENDBRANCH  23  25
BRANCH  23  27
ATOM     27  O   UNL     1     -32.887  27.743   5.850  0.00  0.00    -0.303 OA
ATOM     28  H   UNL     1     -32.028  27.464   6.202  0.00  0.00    +0.222 HD
ENDBRANCH  23  27
ENDBRANCH  22  23
ENDBRANCH  21  22
ENDBRANCH   4  21
TORSDOF 7
ENDMDL
MODEL 4
REMARK VINA RESULT:      -6.9      4.786      6.724
REMARK  Name = 56339
REMARK  7 active torsions:
REMARK  status: ('A' for Active; 'I' for Inactive)
REMARK    1  A    between atoms: N_4  and  C_21
REMARK    2  A    between atoms: C_5  and  C_9
REMARK    3  A    between atoms: C_5  and  C_15
REMARK    4  A    between atoms: C_21  and  O_22
REMARK    5  A    between atoms: O_22  and  P_23
REMARK    6  A    between atoms: P_23  and  O_25
REMARK    7  A    between atoms: P_23  and  O_27
REMARK                            x       y       z     vdW  Elec       q    Type
REMARK                         _______ _______ _______ _____ _____    ______ ____
ROOT
ATOM      1  O   UNL     1     -36.888  24.121   1.050  0.00  0.00    -0.272 OA
ATOM      2  O   UNL     1     -40.258  21.164   2.053  0.00  0.00    -0.252 OA
ATOM      3  N   UNL     1     -37.962  21.122   2.430  0.00  0.00    -0.277 N 
ATOM      4  N   UNL     1     -38.829  22.898   1.416  0.00  0.00    -0.185 N 
ATOM      5  C   UNL     1     -36.780  21.953   2.207  0.00  0.00    +0.166 C 
ATOM      6  C   UNL     1     -37.472  23.136   1.490  0.00  0.00    +0.258 C 
ATOM      7  C   UNL     1     -39.151  21.681   1.970  0.00  0.00    +0.312 C 
ATOM      8  H   UNL     1     -37.920  20.241   2.868  0.00  0.00    +0.152 HD
ENDROOT
BRANCH   5   9
ATOM      9  C   UNL     1     -35.766  21.322   1.245  0.00  0.00    +0.006 C 
ATOM     10  C   UNL     1     -36.104  20.175   0.523  0.00  0.00    -0.002 C 
ATOM     11  C   UNL     1     -34.500  21.890   1.088  0.00  0.00    -0.002 C 
ATOM     12  C   UNL     1     -35.182  19.600  -0.352  0.00  0.00    -0.000 C 
ATOM     13  C   UNL     1     -33.578  21.316   0.214  0.00  0.00    -0.000 C 
ATOM     14  C   UNL     1     -33.919  20.171  -0.507  0.00  0.00    -0.000 C 
ENDBRANCH   5   9
BRANCH   5  15
ATOM     15  C   UNL     1     -36.182  22.301   3.573  0.00  0.00    +0.006 C 
ATOM     16  C   UNL     1     -35.542  21.317   4.330  0.00  0.00    -0.002 C 
ATOM     17  C   UNL     1     -36.273  23.604   4.067  0.00  0.00    -0.002 C 
ATOM     18  C   UNL     1     -34.997  21.635   5.574  0.00  0.00    -0.000 C 
ATOM     19  C   UNL     1     -35.728  23.921   5.311  0.00  0.00    -0.000 C 
ATOM     20  C   UNL     1     -35.090  22.938   6.064  0.00  0.00    -0.000 C 
ENDBRANCH   5  15
BRANCH   4  21
ATOM     21  C   UNL     1     -39.777  23.810   0.807  0.00  0.00    +0.260 C 
BRANCH  21  22
ATOM     22  O   UNL     1     -40.672  24.271   1.802  0.00  0.00    -0.251 OA
BRANCH  22  23
ATOM     23  P   UNL     1     -40.252  25.564   2.677  0.00  0.00    +0.475 P 
ATOM     24  O   UNL     1     -41.361  26.528   2.984  0.00  0.00    -0.227 OA
BRANCH  23  25
ATOM     25  O   UNL     1     -39.529  24.929   3.978  0.00  0.00    -0.303 OA
ATOM     26  H   UNL     1     -39.845  24.022   4.113  0.00  0.00    +0.222 HD
ENDBRANCH  23  25
BRANCH  23  27
ATOM     27  O   UNL     1     -39.015  26.189   1.843  0.00  0.00    -0.303 OA
ATOM     28  H   UNL     1     -39.356  26.709   1.100  0.00  0.00    +0.222 HD
ENDBRANCH  23  27
ENDBRANCH  22  23
ENDBRANCH  21  22
ENDBRANCH   4  21
TORSDOF 7
ENDMDL
MODEL 5
REMARK VINA RESULT:      -6.9      2.823      5.040
REMARK  Name = 56339
REMARK  7 active torsions:
REMARK  status: ('A' for Active; 'I' for Inactive)
REMARK    1  A    between atoms: N_4  and  C_21
REMARK    2  A    between atoms: C_5  and  C_9
REMARK    3  A    between atoms: C_5  and  C_15
REMARK    4  A    between atoms: C_21  and  O_22
REMARK    5  A    between atoms: O_22  and  P_23
REMARK    6  A    between atoms: P_23  and  O_25
REMARK    7  A    between atoms: P_23  and  O_27
REMARK                            x       y       z     vdW  Elec       q    Type
REMARK                         _______ _______ _______ _____ _____    ______ ____
ROOT
ATOM      1  O   UNL     1     -35.544  24.640   2.647  0.00  0.00    -0.272 OA
ATOM      2  O   UNL     1     -35.446  22.137   6.497  0.00  0.00    -0.252 OA
ATOM      3  N   UNL     1     -35.987  21.617   4.294  0.00  0.00    -0.277 N 
ATOM      4  N   UNL     1     -35.351  23.695   4.760  0.00  0.00    -0.185 N 
ATOM      5  C   UNL     1     -36.053  22.257   2.983  0.00  0.00    +0.166 C 
ATOM      6  C   UNL     1     -35.620  23.681   3.407  0.00  0.00    +0.258 C 
ATOM      7  C   UNL     1     -35.574  22.460   5.323  0.00  0.00    +0.312 C 
ATOM      8  H   UNL     1     -36.216  20.670   4.439  0.00  0.00    +0.152 HD
ENDROOT
BRANCH   5   9
ATOM      9  C   UNL     1     -37.474  22.327   2.410  0.00  0.00    +0.006 C 
ATOM     10  C   UNL     1     -38.314  23.391   2.747  0.00  0.00    -0.002 C 
ATOM     11  C   UNL     1     -37.935  21.327   1.552  0.00  0.00    -0.002 C 
ATOM     12  C   UNL     1     -39.607  23.455   2.228  0.00  0.00    -0.000 C 
ATOM     13  C   UNL     1     -39.227  21.390   1.033  0.00  0.00    -0.000 C 
ATOM     14  C   UNL     1     -40.063  22.455   1.370  0.00  0.00    -0.000 C 
ENDBRANCH   5   9
BRANCH   5  15
ATOM     15  C   UNL     1     -35.063  21.543   2.058  0.00  0.00    +0.006 C 
ATOM     16  C   UNL     1     -34.472  22.233   0.996  0.00  0.00    -0.002 C 
ATOM     17  C   UNL     1     -34.746  20.201   2.272  0.00  0.00    -0.002 C 
ATOM     18  C   UNL     1     -33.570  21.583   0.153  0.00  0.00    -0.000 C 
ATOM     19  C   UNL     1     -33.844  19.551   1.429  0.00  0.00    -0.000 C 
ATOM     20  C   UNL     1     -33.256  20.241   0.370  0.00  0.00    -0.000 C 
ENDBRANCH   5  15
BRANCH   4  21
ATOM     21  C   UNL     1     -34.916  24.872   5.485  0.00  0.00    +0.260 C 
BRANCH  21  22
ATOM     22  O   UNL     1     -33.708  25.341   4.915  0.00  0.00    -0.251 OA
BRANCH  22  23
ATOM     23  P   UNL     1     -33.651  26.865   4.379  0.00  0.00    +0.475 P 
ATOM     24  O   UNL     1     -32.830  27.812   5.205  0.00  0.00    -0.227 OA
BRANCH  23  25
ATOM     25  O   UNL     1     -33.168  26.714   2.842  0.00  0.00    -0.303 OA
ATOM     26  H   UNL     1     -33.932  26.512   2.281  0.00  0.00    +0.222 HD
ENDBRANCH  23  25
BRANCH  23  27
ATOM     27  O   UNL     1     -35.212  27.264   4.231  0.00  0.00    -0.303 OA
ATOM     28  H   UNL     1     -35.522  27.666   5.057  0.00  0.00    +0.222 HD
ENDBRANCH  23  27
ENDBRANCH  22  23
ENDBRANCH  21  22
ENDBRANCH   4  21
TORSDOF 7
ENDMDL
MODEL 6
REMARK VINA RESULT:      -6.5      4.419      6.892
REMARK  Name = 56339
REMARK  7 active torsions:
REMARK  status: ('A' for Active; 'I' for Inactive)
REMARK    1  A    between atoms: N_4  and  C_21
REMARK    2  A    between atoms: C_5  and  C_9
REMARK    3  A    between atoms: C_5  and  C_15
REMARK    4  A    between atoms: C_21  and  O_22
REMARK    5  A    between atoms: O_22  and  P_23
REMARK    6  A    between atoms: P_23  and  O_25
REMARK    7  A    between atoms: P_23  and  O_27
REMARK                            x       y       z     vdW  Elec       q    Type
REMARK                         _______ _______ _______ _____ _____    ______ ____
ROOT
ATOM      1  O   UNL     1     -35.372  23.136   0.217  0.00  0.00    -0.272 OA
ATOM      2  O   UNL     1     -35.971  22.404   4.712  0.00  0.00    -0.252 OA
ATOM      3  N   UNL     1     -35.729  20.963   2.901  0.00  0.00    -0.277 N 
ATOM      4  N   UNL     1     -35.648  23.151   2.523  0.00  0.00    -0.185 N 
ATOM      5  C   UNL     1     -35.516  21.016   1.456  0.00  0.00    +0.166 C 
ATOM      6  C   UNL     1     -35.495  22.553   1.290  0.00  0.00    +0.258 C 
ATOM      7  C   UNL     1     -35.801  22.210   3.515  0.00  0.00    +0.312 C 
ATOM      8  H   UNL     1     -35.815  20.117   3.397  0.00  0.00    +0.152 HD
ENDROOT
BRANCH   5   9
ATOM      9  C   UNL     1     -36.691  20.451   0.647  0.00  0.00    +0.006 C 
ATOM     10  C   UNL     1     -37.961  21.020   0.765  0.00  0.00    -0.002 C 
ATOM     11  C   UNL     1     -36.496  19.365  -0.209  0.00  0.00    -0.002 C 
ATOM     12  C   UNL     1     -39.030  20.507   0.031  0.00  0.00    -0.000 C 
ATOM     13  C   UNL     1     -37.564  18.852  -0.943  0.00  0.00    -0.000 C 
ATOM     14  C   UNL     1     -38.831  19.423  -0.824  0.00  0.00    -0.000 C 
ENDBRANCH   5   9
BRANCH   5  15
ATOM     15  C   UNL     1     -34.184  20.327   1.149  0.00  0.00    +0.006 C 
ATOM     16  C   UNL     1     -33.893  19.080   1.708  0.00  0.00    -0.002 C 
ATOM     17  C   UNL     1     -33.254  20.941   0.307  0.00  0.00    -0.002 C 
ATOM     18  C   UNL     1     -32.679  18.452   1.428  0.00  0.00    -0.000 C 
ATOM     19  C   UNL     1     -32.040  20.313   0.027  0.00  0.00    -0.000 C 
ATOM     20  C   UNL     1     -31.753  19.069   0.587  0.00  0.00    -0.000 C 
ENDBRANCH   5  15
BRANCH   4  21
ATOM     21  C   UNL     1     -35.670  24.586   2.729  0.00  0.00    +0.260 C 
BRANCH  21  22
ATOM     22  O   UNL     1     -36.920  25.091   2.301  0.00  0.00    -0.251 OA
BRANCH  22  23
ATOM     23  P   UNL     1     -38.168  25.031   3.329  0.00  0.00    +0.475 P 
ATOM     24  O   UNL     1     -39.117  23.885   3.128  0.00  0.00    -0.227 OA
BRANCH  23  25
ATOM     25  O   UNL     1     -37.467  25.080   4.786  0.00  0.00    -0.303 OA
ATOM     26  H   UNL     1     -37.574  24.223   5.226  0.00  0.00    +0.222 HD
ENDBRANCH  23  25
BRANCH  23  27
ATOM     27  O   UNL     1     -38.830  26.500   3.193  0.00  0.00    -0.303 OA
ATOM     28  H   UNL     1     -39.213  26.602   2.308  0.00  0.00    +0.222 HD
ENDBRANCH  23  27
ENDBRANCH  22  23
ENDBRANCH  21  22
ENDBRANCH   4  21
TORSDOF 7
ENDMDL
MODEL 7
REMARK VINA RESULT:      -6.4      5.702      7.768
REMARK  Name = 56339
REMARK  7 active torsions:
REMARK  status: ('A' for Active; 'I' for Inactive)
REMARK    1  A    between atoms: N_4  and  C_21
REMARK    2  A    between atoms: C_5  and  C_9
REMARK    3  A    between atoms: C_5  and  C_15
REMARK    4  A    between atoms: C_21  and  O_22
REMARK    5  A    between atoms: O_22  and  P_23
REMARK    6  A    between atoms: P_23  and  O_25
REMARK    7  A    between atoms: P_23  and  O_27
REMARK                            x       y       z     vdW  Elec       q    Type
REMARK                         _______ _______ _______ _____ _____    ______ ____
ROOT
ATOM      1  O   UNL     1     -36.865  23.953   0.362  0.00  0.00    -0.272 OA
ATOM      2  O   UNL     1     -40.037  21.127   2.110  0.00  0.00    -0.252 OA
ATOM      3  N   UNL     1     -37.817  21.541   2.670  0.00  0.00    -0.277 N 
ATOM      4  N   UNL     1     -38.710  22.691   0.992  0.00  0.00    -0.185 N 
ATOM      5  C   UNL     1     -36.702  22.388   2.253  0.00  0.00    +0.166 C 
ATOM      6  C   UNL     1     -37.404  23.124   1.088  0.00  0.00    +0.258 C 
ATOM      7  C   UNL     1     -38.983  21.726   1.934  0.00  0.00    +0.312 C 
ATOM      8  H   UNL     1     -37.748  20.894   3.409  0.00  0.00    +0.152 HD
ENDROOT
BRANCH   5   9
ATOM      9  C   UNL     1     -35.514  21.598   1.690  0.00  0.00    +0.006 C 
ATOM     10  C   UNL     1     -34.575  22.231   0.872  0.00  0.00    -0.002 C 
ATOM     11  C   UNL     1     -35.367  20.242   1.991  0.00  0.00    -0.002 C 
ATOM     12  C   UNL     1     -33.495  21.512   0.358  0.00  0.00    -0.000 C 
ATOM     13  C   UNL     1     -34.288  19.524   1.478  0.00  0.00    -0.000 C 
ATOM     14  C   UNL     1     -33.352  20.159   0.663  0.00  0.00    -0.000 C 
ENDBRANCH   5   9
BRANCH   5  15
ATOM     15  C   UNL     1     -36.324  23.288   3.434  0.00  0.00    +0.006 C 
ATOM     16  C   UNL     1     -35.434  22.829   4.409  0.00  0.00    -0.002 C 
ATOM     17  C   UNL     1     -36.866  24.570   3.541  0.00  0.00    -0.002 C 
ATOM     18  C   UNL     1     -35.090  23.648   5.484  0.00  0.00    -0.000 C 
ATOM     19  C   UNL     1     -36.521  25.389   4.616  0.00  0.00    -0.000 C 
ATOM     20  C   UNL     1     -35.634  24.929   5.587  0.00  0.00    -0.000 C 
ENDBRANCH   5  15
BRANCH   4  21
ATOM     21  C   UNL     1     -39.654  23.180   0.006  0.00  0.00    +0.260 C 
BRANCH  21  22
ATOM     22  O   UNL     1     -39.655  22.300  -1.102  0.00  0.00    -0.251 OA
BRANCH  22  23
ATOM     23  P   UNL     1     -40.938  21.342  -1.323  0.00  0.00    +0.475 P 
ATOM     24  O   UNL     1     -41.483  21.301  -2.721  0.00  0.00    -0.227 OA
BRANCH  23  25
ATOM     25  O   UNL     1     -40.453  19.911  -0.744  0.00  0.00    -0.303 OA
ATOM     26  H   UNL     1     -39.525  19.763  -0.983  0.00  0.00    +0.222 HD
ENDBRANCH  23  25
BRANCH  23  27
ATOM     27  O   UNL     1     -41.981  21.855  -0.198  0.00  0.00    -0.303 OA
ATOM     28  H   UNL     1     -42.683  22.373  -0.620  0.00  0.00    +0.222 HD
ENDBRANCH  23  27
ENDBRANCH  22  23
ENDBRANCH  21  22
ENDBRANCH   4  21
TORSDOF 7
ENDMDL
MODEL 8
REMARK VINA RESULT:      -6.3      4.809      7.024
REMARK  Name = 56339
REMARK  7 active torsions:
REMARK  status: ('A' for Active; 'I' for Inactive)
REMARK    1  A    between atoms: N_4  and  C_21
REMARK    2  A    between atoms: C_5  and  C_9
REMARK    3  A    between atoms: C_5  and  C_15
REMARK    4  A    between atoms: C_21  and  O_22
REMARK    5  A    between atoms: O_22  and  P_23
REMARK    6  A    between atoms: P_23  and  O_25
REMARK    7  A    between atoms: P_23  and  O_27
REMARK                            x       y       z     vdW  Elec       q    Type
REMARK                         _______ _______ _______ _____ _____    ______ ____
ROOT
ATOM      1  O   UNL     1     -35.791  20.086   1.529  0.00  0.00    -0.272 OA
ATOM      2  O   UNL     1     -33.003  23.381  -0.041  0.00  0.00    -0.252 OA
ATOM      3  N   UNL     1     -34.824  23.417   1.407  0.00  0.00    -0.277 N 
ATOM      4  N   UNL     1     -34.187  21.462   0.566  0.00  0.00    -0.185 N 
ATOM      5  C   UNL     1     -35.784  22.497   2.014  0.00  0.00    +0.166 C 
ATOM      6  C   UNL     1     -35.280  21.188   1.362  0.00  0.00    +0.258 C 
ATOM      7  C   UNL     1     -33.896  22.806   0.568  0.00  0.00    +0.312 C 
ATOM      8  H   UNL     1     -34.835  24.387   1.577  0.00  0.00    +0.152 HD
ENDROOT
BRANCH   5   9
ATOM      9  C   UNL     1     -37.230  22.743   1.565  0.00  0.00    +0.006 C 
ATOM     10  C   UNL     1     -38.293  22.272   2.339  0.00  0.00    -0.002 C 
ATOM     11  C   UNL     1     -37.490  23.436   0.381  0.00  0.00    -0.002 C 
ATOM     12  C   UNL     1     -39.609  22.494   1.932  0.00  0.00    -0.000 C 
ATOM     13  C   UNL     1     -38.804  23.659  -0.026  0.00  0.00    -0.000 C 
ATOM     14  C   UNL     1     -39.864  23.189   0.749  0.00  0.00    -0.000 C 
ENDBRANCH   5   9
BRANCH   5  15
ATOM     15  C   UNL     1     -35.603  22.559   3.533  0.00  0.00    +0.006 C 
ATOM     16  C   UNL     1     -35.332  21.394   4.255  0.00  0.00    -0.002 C 
ATOM     17  C   UNL     1     -35.707  23.779   4.203  0.00  0.00    -0.002 C 
ATOM     18  C   UNL     1     -35.167  21.450   5.639  0.00  0.00    -0.000 C 
ATOM     19  C   UNL     1     -35.543  23.835   5.587  0.00  0.00    -0.000 C 
ATOM     20  C   UNL     1     -35.273  22.672   6.305  0.00  0.00    -0.000 C 
ENDBRANCH   5  15
BRANCH   4  21
ATOM     21  C   UNL     1     -33.465  20.458  -0.190  0.00  0.00    +0.260 C 
BRANCH  21  22
ATOM     22  O   UNL     1     -32.515  19.841   0.658  0.00  0.00    -0.251 OA
BRANCH  22  23
ATOM     23  P   UNL     1     -32.498  18.227   0.750  0.00  0.00    +0.475 P 
ATOM     24  O   UNL     1     -31.619  17.648   1.821  0.00  0.00    -0.227 OA
BRANCH  23  25
ATOM     25  O   UNL     1     -34.063  17.833   0.874  0.00  0.00    -0.303 OA
ATOM     26  H   UNL     1     -34.292  17.709   1.808  0.00  0.00    +0.222 HD
ENDBRANCH  23  25
BRANCH  23  27
ATOM     27  O   UNL     1     -32.128  17.774  -0.757  0.00  0.00    -0.303 OA
ATOM     28  H   UNL     1     -32.583  16.944  -0.967  0.00  0.00    +0.222 HD
ENDBRANCH  23  27
ENDBRANCH  22  23
ENDBRANCH  21  22
ENDBRANCH   4  21
TORSDOF 7
ENDMDL
MODEL 9
REMARK VINA RESULT:      -6.3      3.731      6.027
REMARK  Name = 56339
REMARK  7 active torsions:
REMARK  status: ('A' for Active; 'I' for Inactive)
REMARK    1  A    between atoms: N_4  and  C_21
REMARK    2  A    between atoms: C_5  and  C_9
REMARK    3  A    between atoms: C_5  and  C_15
REMARK    4  A    between atoms: C_21  and  O_22
REMARK    5  A    between atoms: O_22  and  P_23
REMARK    6  A    between atoms: P_23  and  O_25
REMARK    7  A    between atoms: P_23  and  O_27
REMARK                            x       y       z     vdW  Elec       q    Type
REMARK                         _______ _______ _______ _____ _____    ______ ____
ROOT
ATOM      1  O   UNL     1     -35.910  23.684   0.430  0.00  0.00    -0.272 OA
ATOM      2  O   UNL     1     -36.349  22.746   4.905  0.00  0.00    -0.252 OA
ATOM      3  N   UNL     1     -36.152  21.390   3.024  0.00  0.00    -0.277 N 
ATOM      4  N   UNL     1     -36.108  23.594   2.742  0.00  0.00    -0.185 N 
ATOM      5  C   UNL     1     -35.989  21.510   1.577  0.00  0.00    +0.166 C 
ATOM      6  C   UNL     1     -35.990  23.053   1.479  0.00  0.00    +0.258 C 
ATOM      7  C   UNL     1     -36.217  22.608   3.696  0.00  0.00    +0.312 C 
ATOM      8  H   UNL     1     -36.213  20.522   3.485  0.00  0.00    +0.152 HD
ENDROOT
BRANCH   5   9
ATOM      9  C   UNL     1     -37.185  20.967   0.783  0.00  0.00    +0.006 C 
ATOM     10  C   UNL     1     -36.996  19.964  -0.170  0.00  0.00    -0.002 C 
ATOM     11  C   UNL     1     -38.466  21.476   1.008  0.00  0.00    -0.002 C 
ATOM     12  C   UNL     1     -38.083  19.470  -0.893  0.00  0.00    -0.000 C 
ATOM     13  C   UNL     1     -39.552  20.983   0.287  0.00  0.00    -0.000 C 
ATOM     14  C   UNL     1     -39.360  19.980  -0.663  0.00  0.00    -0.000 C 
ENDBRANCH   5   9
BRANCH   5  15
ATOM     15  C   UNL     1     -34.661  20.851   1.195  0.00  0.00    +0.006 C 
ATOM     16  C   UNL     1     -34.326  19.596   1.710  0.00  0.00    -0.002 C 
ATOM     17  C   UNL     1     -33.779  21.501   0.329  0.00  0.00    -0.002 C 
ATOM     18  C   UNL     1     -33.116  18.996   1.362  0.00  0.00    -0.000 C 
ATOM     19  C   UNL     1     -32.569  20.901  -0.019  0.00  0.00    -0.000 C 
ATOM     20  C   UNL     1     -32.237  19.649   0.497  0.00  0.00    -0.000 C 
ENDBRANCH   5  15
BRANCH   4  21
ATOM     21  C   UNL     1     -36.137  25.018   3.013  0.00  0.00    +0.260 C 
BRANCH  21  22
ATOM     22  O   UNL     1     -34.874  25.415   3.513  0.00  0.00    -0.251 OA
BRANCH  22  23
ATOM     23  P   UNL     1     -34.827  26.327   4.847  0.00  0.00    +0.475 P 
ATOM     24  O   UNL     1     -34.084  25.736   6.011  0.00  0.00    -0.227 OA
BRANCH  23  25
ATOM     25  O   UNL     1     -34.246  27.744   4.324  0.00  0.00    -0.303 OA
ATOM     26  H   UNL     1     -33.758  27.607   3.497  0.00  0.00    +0.222 HD
ENDBRANCH  23  25
BRANCH  23  27
ATOM     27  O   UNL     1     -36.386  26.655   5.127  0.00  0.00    -0.303 OA
ATOM     28  H   UNL     1     -36.545  26.678   6.083  0.00  0.00    +0.222 HD
ENDBRANCH  23  27
ENDBRANCH  22  23
ENDBRANCH  21  22
ENDBRANCH   4  21
TORSDOF 7
ENDMDL
