MODEL 1
REMARK VINA RESULT:      -6.2      0.000      0.000
REMARK  Name = 193750
REMARK  10 active torsions:
REMARK  status: ('A' for Active; 'I' for Inactive)
REMARK    1  A    between atoms: C_6  and  C_23
REMARK    2  A    between atoms: C_7  and  N_12
REMARK    3  A    between atoms: C_13  and  C_15
REMARK    4  A    between atoms: C_15  and  C_16
REMARK    5  A    between atoms: C_23  and  O_24
REMARK    6  A    between atoms: O_24  and  C_25
REMARK    7  A    between atoms: C_25  and  O_27
REMARK    8  A    between atoms: O_27  and  C_29
REMARK    9  A    between atoms: C_29  and  O_30
REMARK   10  A    between atoms: O_30  and  C_31
REMARK                            x       y       z     vdW  Elec       q    Type
REMARK                         _______ _______ _______ _____ _____    ______ ____
ROOT
ATOM      1  S   UNL     1     -33.719  24.725   2.169  0.00  0.00    -0.118 S 
ATOM      2  O   UNL     1     -37.821  24.674   3.718  0.00  0.00    -0.273 OA
ATOM      3  N   UNL     1     -35.649  25.596   3.717  0.00  0.00    -0.260 N 
ATOM      4  C   UNL     1     -34.523  24.668   3.816  0.00  0.00    +0.151 C 
ATOM      5  C   UNL     1     -34.847  26.050   1.508  0.00  0.00    +0.068 C 
ATOM      6  C   UNL     1     -35.599  26.642   2.722  0.00  0.00    +0.185 C 
ATOM      7  C   UNL     1     -35.552  23.547   4.026  0.00  0.00    +0.178 C 
ATOM      8  C   UNL     1     -36.618  24.644   3.841  0.00  0.00    +0.247 C 
ATOM      9  C   UNL     1     -35.831  25.372   0.538  0.00  0.00    +0.013 C 
ATOM     10  C   UNL     1     -34.015  27.077   0.734  0.00  0.00    +0.013 C 
ENDROOT
BRANCH   7  12
ATOM     11  O   UNL     1     -35.087  20.718   4.431  0.00  0.00    -0.275 OA
ATOM     12  N   UNL     1     -35.610  22.481   3.016  0.00  0.00    -0.296 N 
ATOM     13  C   UNL     1     -35.368  21.138   3.312  0.00  0.00    +0.227 C 
ATOM     14  H   UNL     1     -35.830  22.726   2.087  0.00  0.00    +0.150 HD
BRANCH  13  15
ATOM     15  C   UNL     1     -35.491  20.252   2.088  0.00  0.00    +0.111 C 
BRANCH  15  16
ATOM     16  C   UNL     1     -34.181  20.024   1.382  0.00  0.00    -0.013 C 
ATOM     17  C   UNL     1     -33.480  18.847   1.607  0.00  0.00    -0.004 C 
ATOM     18  C   UNL     1     -33.694  20.993   0.517  0.00  0.00    -0.004 C 
ATOM     19  C   UNL     1     -32.266  18.635   0.953  0.00  0.00    -0.000 C 
ATOM     20  C   UNL     1     -32.480  20.781  -0.136  0.00  0.00    -0.000 C 
ATOM     21  C   UNL     1     -31.766  19.602   0.080  0.00  0.00    -0.000 C 
ENDBRANCH  15  16
ENDBRANCH  13  15
ENDBRANCH   7  12
BRANCH   6  23
ATOM     22  O   UNL     1     -33.975  27.624   4.202  0.00  0.00    -0.248 OA
ATOM     23  C   UNL     1     -34.905  27.771   3.422  0.00  0.00    +0.339 C 
BRANCH  23  24
ATOM     24  O   UNL     1     -35.476  28.952   3.051  0.00  0.00    -0.412 OA
BRANCH  24  25
ATOM     25  C   UNL     1     -34.591  30.056   2.778  0.00  0.00    +0.348 C 
ATOM     26  C   UNL     1     -35.337  31.097   1.956  0.00  0.00    +0.100 C 
BRANCH  25  27
ATOM     27  O   UNL     1     -34.175  30.700   4.001  0.00  0.00    -0.382 OA
BRANCH  27  29
ATOM     28  O   UNL     1     -31.971  30.927   3.365  0.00  0.00    -0.203 OA
ATOM     29  C   UNL     1     -32.833  30.775   4.221  0.00  0.00    +0.514 C 
BRANCH  29  30
ATOM     30  O   UNL     1     -32.617  30.650   5.560  0.00  0.00    -0.418 OA
BRANCH  30  31
ATOM     31  C   UNL     1     -31.433  29.937   5.932  0.00  0.00    +0.212 C 
ATOM     32  C   UNL     1     -31.826  28.710   6.728  0.00  0.00    +0.051 C 
ENDBRANCH  30  31
ENDBRANCH  29  30
ENDBRANCH  27  29
ENDBRANCH  25  27
ENDBRANCH  24  25
ENDBRANCH  23  24
ENDBRANCH   6  23
TORSDOF 10
ENDMDL
MODEL 2
REMARK VINA RESULT:      -6.1      1.231      2.062
REMARK  Name = 193750
REMARK  10 active torsions:
REMARK  status: ('A' for Active; 'I' for Inactive)
REMARK    1  A    between atoms: C_6  and  C_23
REMARK    2  A    between atoms: C_7  and  N_12
REMARK    3  A    between atoms: C_13  and  C_15
REMARK    4  A    between atoms: C_15  and  C_16
REMARK    5  A    between atoms: C_23  and  O_24
REMARK    6  A    between atoms: O_24  and  C_25
REMARK    7  A    between atoms: C_25  and  O_27
REMARK    8  A    between atoms: O_27  and  C_29
REMARK    9  A    between atoms: C_29  and  O_30
REMARK   10  A    between atoms: O_30  and  C_31
REMARK                            x       y       z     vdW  Elec       q    Type
REMARK                         _______ _______ _______ _____ _____    ______ ____
ROOT
ATOM      1  S   UNL     1     -33.663  24.751   2.255  0.00  0.00    -0.118 S 
ATOM      2  O   UNL     1     -37.733  24.632   3.883  0.00  0.00    -0.273 OA
ATOM      3  N   UNL     1     -35.564  25.563   3.870  0.00  0.00    -0.260 N 
ATOM      4  C   UNL     1     -34.433  24.636   3.914  0.00  0.00    +0.151 C 
ATOM      5  C   UNL     1     -34.808  26.094   1.662  0.00  0.00    +0.068 C 
ATOM      6  C   UNL     1     -35.537  26.642   2.911  0.00  0.00    +0.185 C 
ATOM      7  C   UNL     1     -35.454  23.504   4.107  0.00  0.00    +0.178 C 
ATOM      8  C   UNL     1     -36.527  24.603   3.981  0.00  0.00    +0.247 C 
ATOM      9  C   UNL     1     -35.809  25.447   0.689  0.00  0.00    +0.013 C 
ATOM     10  C   UNL     1     -33.995  27.150   0.907  0.00  0.00    +0.013 C 
ENDROOT
BRANCH   7  12
ATOM     11  O   UNL     1     -35.098  20.649   4.431  0.00  0.00    -0.275 OA
ATOM     12  N   UNL     1     -35.530  22.473   3.062  0.00  0.00    -0.296 N 
ATOM     13  C   UNL     1     -35.342  21.113   3.320  0.00  0.00    +0.227 C 
ATOM     14  H   UNL     1     -35.721  22.754   2.138  0.00  0.00    +0.150 HD
BRANCH  13  15
ATOM     15  C   UNL     1     -35.471  20.271   2.066  0.00  0.00    +0.111 C 
BRANCH  15  16
ATOM     16  C   UNL     1     -34.157  20.031   1.371  0.00  0.00    -0.013 C 
ATOM     17  C   UNL     1     -33.470  18.848   1.601  0.00  0.00    -0.004 C 
ATOM     18  C   UNL     1     -33.655  20.996   0.510  0.00  0.00    -0.004 C 
ATOM     19  C   UNL     1     -32.253  18.624   0.956  0.00  0.00    -0.000 C 
ATOM     20  C   UNL     1     -32.437  20.772  -0.134  0.00  0.00    -0.000 C 
ATOM     21  C   UNL     1     -31.736  19.587   0.088  0.00  0.00    -0.000 C 
ENDBRANCH  15  16
ENDBRANCH  13  15
ENDBRANCH   7  12
BRANCH   6  23
ATOM     22  O   UNL     1     -34.883  28.925   3.300  0.00  0.00    -0.248 OA
ATOM     23  C   UNL     1     -34.833  27.749   3.634  0.00  0.00    +0.339 C 
BRANCH  23  24
ATOM     24  O   UNL     1     -34.147  27.233   4.694  0.00  0.00    -0.412 OA
BRANCH  24  25
ATOM     25  C   UNL     1     -32.876  27.832   5.012  0.00  0.00    +0.348 C 
ATOM     26  C   UNL     1     -32.477  27.428   6.424  0.00  0.00    +0.100 C 
BRANCH  25  27
ATOM     27  O   UNL     1     -31.842  27.353   4.126  0.00  0.00    -0.382 OA
BRANCH  27  29
ATOM     28  O   UNL     1     -29.582  27.767   4.310  0.00  0.00    -0.203 OA
ATOM     29  C   UNL     1     -30.721  28.120   4.032  0.00  0.00    +0.514 C 
BRANCH  29  30
ATOM     30  O   UNL     1     -31.087  29.349   3.574  0.00  0.00    -0.418 OA
BRANCH  30  31
ATOM     31  C   UNL     1     -30.348  30.453   4.106  0.00  0.00    +0.212 C 
ATOM     32  C   UNL     1     -31.176  31.130   5.179  0.00  0.00    +0.051 C 
ENDBRANCH  30  31
ENDBRANCH  29  30
ENDBRANCH  27  29
ENDBRANCH  25  27
ENDBRANCH  24  25
ENDBRANCH  23  24
ENDBRANCH   6  23
TORSDOF 10
ENDMDL
MODEL 3
REMARK VINA RESULT:      -6.1      2.082      3.182
REMARK  Name = 193750
REMARK  10 active torsions:
REMARK  status: ('A' for Active; 'I' for Inactive)
REMARK    1  A    between atoms: C_6  and  C_23
REMARK    2  A    between atoms: C_7  and  N_12
REMARK    3  A    between atoms: C_13  and  C_15
REMARK    4  A    between atoms: C_15  and  C_16
REMARK    5  A    between atoms: C_23  and  O_24
REMARK    6  A    between atoms: O_24  and  C_25
REMARK    7  A    between atoms: C_25  and  O_27
REMARK    8  A    between atoms: O_27  and  C_29
REMARK    9  A    between atoms: C_29  and  O_30
REMARK   10  A    between atoms: O_30  and  C_31
REMARK                            x       y       z     vdW  Elec       q    Type
REMARK                         _______ _______ _______ _____ _____    ______ ____
ROOT
ATOM      1  S   UNL     1     -36.221  24.647   2.829  0.00  0.00    -0.118 S 
ATOM      2  O   UNL     1     -32.171  25.197   1.241  0.00  0.00    -0.273 OA
ATOM      3  N   UNL     1     -34.327  26.050   1.678  0.00  0.00    -0.260 N 
ATOM      4  C   UNL     1     -35.470  25.237   1.264  0.00  0.00    +0.151 C 
ATOM      5  C   UNL     1     -35.053  25.607   3.916  0.00  0.00    +0.068 C 
ATOM      6  C   UNL     1     -34.330  26.624   3.003  0.00  0.00    +0.185 C 
ATOM      7  C   UNL     1     -34.466  24.285   0.597  0.00  0.00    +0.178 C 
ATOM      8  C   UNL     1     -33.378  25.220   1.158  0.00  0.00    +0.247 C 
ATOM      9  C   UNL     1     -34.050  24.602   4.509  0.00  0.00    +0.013 C 
ATOM     10  C   UNL     1     -35.844  26.251   5.058  0.00  0.00    +0.013 C 
ENDROOT
BRANCH   7  12
ATOM     11  O   UNL     1     -34.794  21.834  -0.909  0.00  0.00    -0.275 OA
ATOM     12  N   UNL     1     -34.392  22.909   1.108  0.00  0.00    -0.296 N 
ATOM     13  C   UNL     1     -34.566  21.785   0.297  0.00  0.00    +0.227 C 
ATOM     14  H   UNL     1     -34.213  22.773   2.067  0.00  0.00    +0.150 HD
BRANCH  13  15
ATOM     15  C   UNL     1     -34.442  20.492   1.078  0.00  0.00    +0.111 C 
BRANCH  15  16
ATOM     16  C   UNL     1     -33.136  19.779   0.849  0.00  0.00    -0.013 C 
ATOM     17  C   UNL     1     -32.162  20.374   0.060  0.00  0.00    -0.004 C 
ATOM     18  C   UNL     1     -32.925  18.537   1.432  0.00  0.00    -0.004 C 
ATOM     19  C   UNL     1     -30.952  19.714  -0.152  0.00  0.00    -0.000 C 
ATOM     20  C   UNL     1     -31.715  17.877   1.219  0.00  0.00    -0.000 C 
ATOM     21  C   UNL     1     -30.728  18.465   0.428  0.00  0.00    -0.000 C 
ENDBRANCH  15  16
ENDBRANCH  13  15
ENDBRANCH   7  12
BRANCH   6  23
ATOM     22  O   UNL     1     -35.987  28.108   2.086  0.00  0.00    -0.248 OA
ATOM     23  C   UNL     1     -35.027  27.938   2.825  0.00  0.00    +0.339 C 
BRANCH  23  24
ATOM     24  O   UNL     1     -34.424  28.881   3.602  0.00  0.00    -0.412 OA
BRANCH  24  25
ATOM     25  C   UNL     1     -32.996  28.784   3.771  0.00  0.00    +0.348 C 
ATOM     26  C   UNL     1     -32.325  29.882   2.959  0.00  0.00    +0.100 C 
BRANCH  25  27
ATOM     27  O   UNL     1     -32.623  28.987   5.150  0.00  0.00    -0.382 OA
BRANCH  27  29
ATOM     28  O   UNL     1     -32.524  27.167   6.561  0.00  0.00    -0.203 OA
ATOM     29  C   UNL     1     -32.005  27.945   5.771  0.00  0.00    +0.514 C 
BRANCH  29  30
ATOM     30  O   UNL     1     -30.706  27.920   5.361  0.00  0.00    -0.418 OA
BRANCH  30  31
ATOM     31  C   UNL     1     -29.742  28.328   6.337  0.00  0.00    +0.212 C 
ATOM     32  C   UNL     1     -29.517  29.821   6.215  0.00  0.00    +0.051 C 
ENDBRANCH  30  31
ENDBRANCH  29  30
ENDBRANCH  27  29
ENDBRANCH  25  27
ENDBRANCH  24  25
ENDBRANCH  23  24
ENDBRANCH   6  23
TORSDOF 10
ENDMDL
MODEL 4
REMARK VINA RESULT:      -6.0      1.862      2.945
REMARK  Name = 193750
REMARK  10 active torsions:
REMARK  status: ('A' for Active; 'I' for Inactive)
REMARK    1  A    between atoms: C_6  and  C_23
REMARK    2  A    between atoms: C_7  and  N_12
REMARK    3  A    between atoms: C_13  and  C_15
REMARK    4  A    between atoms: C_15  and  C_16
REMARK    5  A    between atoms: C_23  and  O_24
REMARK    6  A    between atoms: O_24  and  C_25
REMARK    7  A    between atoms: C_25  and  O_27
REMARK    8  A    between atoms: O_27  and  C_29
REMARK    9  A    between atoms: C_29  and  O_30
REMARK   10  A    between atoms: O_30  and  C_31
REMARK                            x       y       z     vdW  Elec       q    Type
REMARK                         _______ _______ _______ _____ _____    ______ ____
ROOT
ATOM      1  S   UNL     1     -33.997  26.034   1.358  0.00  0.00    -0.118 S 
ATOM      2  O   UNL     1     -35.857  26.544   5.296  0.00  0.00    -0.273 OA
ATOM      3  N   UNL     1     -34.105  27.017   3.788  0.00  0.00    -0.260 N 
ATOM      4  C   UNL     1     -33.475  25.884   3.109  0.00  0.00    +0.151 C 
ATOM      5  C   UNL     1     -34.905  27.639   1.619  0.00  0.00    +0.068 C 
ATOM      6  C   UNL     1     -34.476  28.172   3.005  0.00  0.00    +0.185 C 
ATOM      7  C   UNL     1     -34.334  24.965   3.992  0.00  0.00    +0.178 C 
ATOM      8  C   UNL     1     -34.937  26.263   4.563  0.00  0.00    +0.247 C 
ATOM      9  C   UNL     1     -36.410  27.321   1.601  0.00  0.00    +0.013 C 
ATOM     10  C   UNL     1     -34.584  28.590   0.462  0.00  0.00    +0.013 C 
ENDROOT
BRANCH   7  12
ATOM     11  O   UNL     1     -36.002  22.932   5.204  0.00  0.00    -0.275 OA
ATOM     12  N   UNL     1     -35.312  24.097   3.320  0.00  0.00    -0.296 N 
ATOM     13  C   UNL     1     -36.073  23.141   3.995  0.00  0.00    +0.227 C 
ATOM     14  H   UNL     1     -35.436  24.195   2.347  0.00  0.00    +0.150 HD
BRANCH  13  15
ATOM     15  C   UNL     1     -36.999  22.385   3.064  0.00  0.00    +0.111 C 
BRANCH  15  16
ATOM     16  C   UNL     1     -36.273  21.465   2.118  0.00  0.00    -0.013 C 
ATOM     17  C   UNL     1     -36.639  21.434   0.780  0.00  0.00    -0.004 C 
ATOM     18  C   UNL     1     -35.247  20.664   2.599  0.00  0.00    -0.004 C 
ATOM     19  C   UNL     1     -35.966  20.583  -0.097  0.00  0.00    -0.000 C 
ATOM     20  C   UNL     1     -34.575  19.812   1.722  0.00  0.00    -0.000 C 
ATOM     21  C   UNL     1     -34.933  19.771   0.374  0.00  0.00    -0.000 C 
ENDBRANCH  15  16
ENDBRANCH  13  15
ENDBRANCH   7  12
BRANCH   6  23
ATOM     22  O   UNL     1     -32.378  28.985   2.152  0.00  0.00    -0.248 OA
ATOM     23  C   UNL     1     -33.245  29.025   3.015  0.00  0.00    +0.339 C 
BRANCH  23  24
ATOM     24  O   UNL     1     -33.256  29.825   4.119  0.00  0.00    -0.412 OA
BRANCH  24  25
ATOM     25  C   UNL     1     -32.037  29.916   4.882  0.00  0.00    +0.348 C 
ATOM     26  C   UNL     1     -31.716  31.382   5.130  0.00  0.00    +0.100 C 
BRANCH  25  27
ATOM     27  O   UNL     1     -32.187  29.290   6.173  0.00  0.00    -0.382 OA
BRANCH  27  29
ATOM     28  O   UNL     1     -32.304  27.082   6.826  0.00  0.00    -0.203 OA
ATOM     29  C   UNL     1     -31.722  28.015   6.288  0.00  0.00    +0.514 C 
BRANCH  29  30
ATOM     30  O   UNL     1     -30.495  27.960   5.699  0.00  0.00    -0.418 OA
BRANCH  30  31
ATOM     31  C   UNL     1     -29.378  27.977   6.593  0.00  0.00    +0.212 C 
ATOM     32  C   UNL     1     -28.770  29.364   6.597  0.00  0.00    +0.051 C 
ENDBRANCH  30  31
ENDBRANCH  29  30
ENDBRANCH  27  29
ENDBRANCH  25  27
ENDBRANCH  24  25
ENDBRANCH  23  24
ENDBRANCH   6  23
TORSDOF 10
ENDMDL
MODEL 5
REMARK VINA RESULT:      -5.9      2.101      7.983
REMARK  Name = 193750
REMARK  10 active torsions:
REMARK  status: ('A' for Active; 'I' for Inactive)
REMARK    1  A    between atoms: C_6  and  C_23
REMARK    2  A    between atoms: C_7  and  N_12
REMARK    3  A    between atoms: C_13  and  C_15
REMARK    4  A    between atoms: C_15  and  C_16
REMARK    5  A    between atoms: C_23  and  O_24
REMARK    6  A    between atoms: O_24  and  C_25
REMARK    7  A    between atoms: C_25  and  O_27
REMARK    8  A    between atoms: O_27  and  C_29
REMARK    9  A    between atoms: C_29  and  O_30
REMARK   10  A    between atoms: O_30  and  C_31
REMARK                            x       y       z     vdW  Elec       q    Type
REMARK                         _______ _______ _______ _____ _____    ______ ____
ROOT
ATOM      1  S   UNL     1     -33.433  27.450   0.625  0.00  0.00    -0.118 S 
ATOM      2  O   UNL     1     -34.543  26.574   4.776  0.00  0.00    -0.273 OA
ATOM      3  N   UNL     1     -34.849  26.225   2.462  0.00  0.00    -0.260 N 
ATOM      4  C   UNL     1     -34.977  27.408   1.613  0.00  0.00    +0.151 C 
ATOM      5  C   UNL     1     -32.785  25.845   1.312  0.00  0.00    +0.068 C 
ATOM      6  C   UNL     1     -33.965  25.163   2.041  0.00  0.00    +0.185 C 
ATOM      7  C   UNL     1     -34.977  28.249   2.899  0.00  0.00    +0.178 C 
ATOM      8  C   UNL     1     -34.786  26.911   3.639  0.00  0.00    +0.247 C 
ATOM      9  C   UNL     1     -31.661  26.193   2.304  0.00  0.00    +0.013 C 
ATOM     10  C   UNL     1     -32.197  25.012   0.169  0.00  0.00    +0.013 C 
ENDROOT
BRANCH   7  12
ATOM     11  O   UNL     1     -35.170  31.023   3.704  0.00  0.00    -0.275 OA
ATOM     12  N   UNL     1     -33.873  29.200   3.089  0.00  0.00    -0.296 N 
ATOM     13  C   UNL     1     -34.069  30.526   3.481  0.00  0.00    +0.227 C 
ATOM     14  H   UNL     1     -32.952  28.888   2.932  0.00  0.00    +0.150 HD
BRANCH  13  15
ATOM     15  C   UNL     1     -32.763  31.286   3.599  0.00  0.00    +0.111 C 
BRANCH  15  16
ATOM     16  C   UNL     1     -31.790  30.655   4.560  0.00  0.00    -0.013 C 
ATOM     17  C   UNL     1     -32.172  30.441   5.877  0.00  0.00    -0.004 C 
ATOM     18  C   UNL     1     -30.526  30.296   4.114  0.00  0.00    -0.004 C 
ATOM     19  C   UNL     1     -31.271  29.856   6.767  0.00  0.00    -0.000 C 
ATOM     20  C   UNL     1     -29.626  29.711   5.005  0.00  0.00    -0.000 C 
ATOM     21  C   UNL     1     -29.997  29.490   6.331  0.00  0.00    -0.000 C 
ENDBRANCH  15  16
ENDBRANCH  13  15
ENDBRANCH   7  12
BRANCH   6  23
ATOM     22  O   UNL     1     -35.719  24.711   0.457  0.00  0.00    -0.248 OA
ATOM     23  C   UNL     1     -34.832  24.290   1.187  0.00  0.00    +0.339 C 
BRANCH  23  24
ATOM     24  O   UNL     1     -34.474  22.986   1.361  0.00  0.00    -0.412 OA
BRANCH  24  25
ATOM     25  C   UNL     1     -35.465  22.097   1.912  0.00  0.00    +0.348 C 
ATOM     26  C   UNL     1     -35.021  20.659   1.684  0.00  0.00    +0.100 C 
BRANCH  25  27
ATOM     27  O   UNL     1     -35.589  22.282   3.338  0.00  0.00    -0.382 OA
BRANCH  27  29
ATOM     28  O   UNL     1     -37.747  23.079   3.189  0.00  0.00    -0.203 OA
ATOM     29  C   UNL     1     -36.670  22.991   3.766  0.00  0.00    +0.514 C 
BRANCH  29  30
ATOM     30  O   UNL     1     -36.344  23.585   4.947  0.00  0.00    -0.418 OA
BRANCH  30  31
ATOM     31  C   UNL     1     -35.103  23.170   5.526  0.00  0.00    +0.212 C 
ATOM     32  C   UNL     1     -35.375  22.087   6.550  0.00  0.00    +0.051 C 
ENDBRANCH  30  31
ENDBRANCH  29  30
ENDBRANCH  27  29
ENDBRANCH  25  27
ENDBRANCH  24  25
ENDBRANCH  23  24
ENDBRANCH   6  23
TORSDOF 10
ENDMDL
MODEL 6
REMARK VINA RESULT:      -5.9      2.828      4.428
REMARK  Name = 193750
REMARK  10 active torsions:
REMARK  status: ('A' for Active; 'I' for Inactive)
REMARK    1  A    between atoms: C_6  and  C_23
REMARK    2  A    between atoms: C_7  and  N_12
REMARK    3  A    between atoms: C_13  and  C_15
REMARK    4  A    between atoms: C_15  and  C_16
REMARK    5  A    between atoms: C_23  and  O_24
REMARK    6  A    between atoms: O_24  and  C_25
REMARK    7  A    between atoms: C_25  and  O_27
REMARK    8  A    between atoms: O_27  and  C_29
REMARK    9  A    between atoms: C_29  and  O_30
REMARK   10  A    between atoms: O_30  and  C_31
REMARK                            x       y       z     vdW  Elec       q    Type
REMARK                         _______ _______ _______ _____ _____    ______ ____
ROOT
ATOM      1  S   UNL     1     -35.748  24.676   1.630  0.00  0.00    -0.118 S 
ATOM      2  O   UNL     1     -36.270  23.036   5.663  0.00  0.00    -0.273 OA
ATOM      3  N   UNL     1     -34.918  24.106   4.052  0.00  0.00    -0.260 N 
ATOM      4  C   UNL     1     -34.853  23.506   2.720  0.00  0.00    +0.151 C 
ATOM      5  C   UNL     1     -36.040  25.927   2.978  0.00  0.00    +0.068 C 
ATOM      6  C   UNL     1     -35.124  25.532   4.159  0.00  0.00    +0.185 C 
ATOM      7  C   UNL     1     -35.680  22.338   3.280  0.00  0.00    +0.178 C 
ATOM      8  C   UNL     1     -35.701  23.132   4.600  0.00  0.00    +0.247 C 
ATOM      9  C   UNL     1     -37.521  25.827   3.382  0.00  0.00    +0.013 C 
ATOM     10  C   UNL     1     -35.770  27.331   2.427  0.00  0.00    +0.013 C 
ENDROOT
BRANCH   7  12
ATOM     11  O   UNL     1     -36.456  20.240   1.441  0.00  0.00    -0.275 OA
ATOM     12  N   UNL     1     -37.011  22.109   2.699  0.00  0.00    -0.296 N 
ATOM     13  C   UNL     1     -37.287  21.063   1.817  0.00  0.00    +0.227 C 
ATOM     14  H   UNL     1     -37.742  22.723   2.945  0.00  0.00    +0.150 HD
BRANCH  13  15
ATOM     15  C   UNL     1     -38.736  21.061   1.369  0.00  0.00    +0.111 C 
BRANCH  15  16
ATOM     16  C   UNL     1     -39.262  22.434   1.045  0.00  0.00    -0.013 C 
ATOM     17  C   UNL     1     -38.934  23.022  -0.169  0.00  0.00    -0.004 C 
ATOM     18  C   UNL     1     -40.069  23.090   1.964  0.00  0.00    -0.004 C 
ATOM     19  C   UNL     1     -39.423  24.293  -0.470  0.00  0.00    -0.000 C 
ATOM     20  C   UNL     1     -40.557  24.361   1.662  0.00  0.00    -0.000 C 
ATOM     21  C   UNL     1     -40.235  24.963   0.446  0.00  0.00    -0.000 C 
ENDBRANCH  15  16
ENDBRANCH  13  15
ENDBRANCH   7  12
BRANCH   6  23
ATOM     22  O   UNL     1     -32.832  25.644   3.435  0.00  0.00    -0.248 OA
ATOM     23  C   UNL     1     -33.739  26.100   4.118  0.00  0.00    +0.339 C 
BRANCH  23  24
ATOM     24  O   UNL     1     -33.666  27.177   4.951  0.00  0.00    -0.412 OA
BRANCH  24  25
ATOM     25  C   UNL     1     -32.481  27.993   4.875  0.00  0.00    +0.348 C 
ATOM     26  C   UNL     1     -32.701  29.092   3.846  0.00  0.00    +0.100 C 
BRANCH  25  27
ATOM     27  O   UNL     1     -32.216  28.640   6.137  0.00  0.00    -0.382 OA
BRANCH  27  29
ATOM     28  O   UNL     1     -30.453  29.819   7.039  0.00  0.00    -0.203 OA
ATOM     29  C   UNL     1     -30.907  28.846   6.450  0.00  0.00    +0.514 C 
BRANCH  29  30
ATOM     30  O   UNL     1     -30.192  27.781   5.994  0.00  0.00    -0.418 OA
BRANCH  30  31
ATOM     31  C   UNL     1     -28.771  27.952   5.976  0.00  0.00    +0.212 C 
ATOM     32  C   UNL     1     -28.153  27.072   7.042  0.00  0.00    +0.051 C 
ENDBRANCH  30  31
ENDBRANCH  29  30
ENDBRANCH  27  29
ENDBRANCH  25  27
ENDBRANCH  24  25
ENDBRANCH  23  24
ENDBRANCH   6  23
TORSDOF 10
ENDMDL
MODEL 7
REMARK VINA RESULT:      -5.8      4.989      6.435
REMARK  Name = 193750
REMARK  10 active torsions:
REMARK  status: ('A' for Active; 'I' for Inactive)
REMARK    1  A    between atoms: C_6  and  C_23
REMARK    2  A    between atoms: C_7  and  N_12
REMARK    3  A    between atoms: C_13  and  C_15
REMARK    4  A    between atoms: C_15  and  C_16
REMARK    5  A    between atoms: C_23  and  O_24
REMARK    6  A    between atoms: O_24  and  C_25
REMARK    7  A    between atoms: C_25  and  O_27
REMARK    8  A    between atoms: O_27  and  C_29
REMARK    9  A    between atoms: C_29  and  O_30
REMARK   10  A    between atoms: O_30  and  C_31
REMARK                            x       y       z     vdW  Elec       q    Type
REMARK                         _______ _______ _______ _____ _____    ______ ____
ROOT
ATOM      1  S   UNL     1     -37.190  24.201   0.698  0.00  0.00    -0.118 S 
ATOM      2  O   UNL     1     -40.273  21.466   2.195  0.00  0.00    -0.273 OA
ATOM      3  N   UNL     1     -39.240  23.587   2.215  0.00  0.00    -0.260 N 
ATOM      4  C   UNL     1     -37.783  23.627   2.335  0.00  0.00    +0.151 C 
ATOM      5  C   UNL     1     -38.901  24.463   0.013  0.00  0.00    +0.068 C 
ATOM      6  C   UNL     1     -39.874  24.412   1.213  0.00  0.00    +0.185 C 
ATOM      7  C   UNL     1     -37.826  22.104   2.541  0.00  0.00    +0.178 C 
ATOM      8  C   UNL     1     -39.347  22.233   2.334  0.00  0.00    +0.247 C 
ATOM      9  C   UNL     1     -39.184  23.309  -0.964  0.00  0.00    +0.013 C 
ATOM     10  C   UNL     1     -38.936  25.786  -0.758  0.00  0.00    +0.013 C 
ENDROOT
BRANCH   7  12
ATOM     11  O   UNL     1     -35.586  20.319   2.961  0.00  0.00    -0.275 OA
ATOM     12  N   UNL     1     -37.156  21.265   1.538  0.00  0.00    -0.296 N 
ATOM     13  C   UNL     1     -36.077  20.432   1.840  0.00  0.00    +0.227 C 
ATOM     14  H   UNL     1     -37.483  21.291   0.609  0.00  0.00    +0.150 HD
BRANCH  13  15
ATOM     15  C   UNL     1     -35.576  19.681   0.623  0.00  0.00    +0.111 C 
BRANCH  15  16
ATOM     16  C   UNL     1     -34.076  19.549   0.579  0.00  0.00    -0.013 C 
ATOM     17  C   UNL     1     -33.315  20.579   0.044  0.00  0.00    -0.004 C 
ATOM     18  C   UNL     1     -33.478  18.400   1.075  0.00  0.00    -0.004 C 
ATOM     19  C   UNL     1     -31.926  20.457   0.004  0.00  0.00    -0.000 C 
ATOM     20  C   UNL     1     -32.088  18.278   1.035  0.00  0.00    -0.000 C 
ATOM     21  C   UNL     1     -31.312  19.306   0.500  0.00  0.00    -0.000 C 
ENDBRANCH  15  16
ENDBRANCH  13  15
ENDBRANCH   7  12
BRANCH   6  23
ATOM     22  O   UNL     1     -39.207  26.412   2.373  0.00  0.00    -0.248 OA
ATOM     23  C   UNL     1     -40.102  25.717   1.913  0.00  0.00    +0.339 C 
BRANCH  23  24
ATOM     24  O   UNL     1     -41.438  25.985   1.950  0.00  0.00    -0.412 OA
BRANCH  24  25
ATOM     25  C   UNL     1     -41.833  27.359   2.128  0.00  0.00    +0.348 C 
ATOM     26  C   UNL     1     -42.154  27.962   0.769  0.00  0.00    +0.100 C 
BRANCH  25  27
ATOM     27  O   UNL     1     -43.030  27.454   2.928  0.00  0.00    -0.382 OA
BRANCH  27  29
ATOM     28  O   UNL     1     -41.933  28.738   4.497  0.00  0.00    -0.203 OA
ATOM     29  C   UNL     1     -42.923  28.133   4.103  0.00  0.00    +0.514 C 
BRANCH  29  30
ATOM     30  O   UNL     1     -44.109  28.023   4.763  0.00  0.00    -0.418 OA
BRANCH  30  31
ATOM     31  C   UNL     1     -44.754  26.750   4.667  0.00  0.00    +0.212 C 
ATOM     32  C   UNL     1     -45.686  26.578   5.849  0.00  0.00    +0.051 C 
ENDBRANCH  30  31
ENDBRANCH  29  30
ENDBRANCH  27  29
ENDBRANCH  25  27
ENDBRANCH  24  25
ENDBRANCH  23  24
ENDBRANCH   6  23
TORSDOF 10
ENDMDL
MODEL 8
REMARK VINA RESULT:      -5.8      3.103      4.588
REMARK  Name = 193750
REMARK  10 active torsions:
REMARK  status: ('A' for Active; 'I' for Inactive)
REMARK    1  A    between atoms: C_6  and  C_23
REMARK    2  A    between atoms: C_7  and  N_12
REMARK    3  A    between atoms: C_13  and  C_15
REMARK    4  A    between atoms: C_15  and  C_16
REMARK    5  A    between atoms: C_23  and  O_24
REMARK    6  A    between atoms: O_24  and  C_25
REMARK    7  A    between atoms: C_25  and  O_27
REMARK    8  A    between atoms: O_27  and  C_29
REMARK    9  A    between atoms: C_29  and  O_30
REMARK   10  A    between atoms: O_30  and  C_31
REMARK                            x       y       z     vdW  Elec       q    Type
REMARK                         _______ _______ _______ _____ _____    ______ ____
ROOT
ATOM      1  S   UNL     1     -34.161  25.993   1.097  0.00  0.00    -0.118 S 
ATOM      2  O   UNL     1     -35.649  26.542   5.185  0.00  0.00    -0.273 OA
ATOM      3  N   UNL     1     -33.960  26.854   3.567  0.00  0.00    -0.260 N 
ATOM      4  C   UNL     1     -33.541  25.684   2.795  0.00  0.00    +0.151 C 
ATOM      5  C   UNL     1     -34.819  27.689   1.494  0.00  0.00    +0.068 C 
ATOM      6  C   UNL     1     -34.224  28.088   2.864  0.00  0.00    +0.185 C 
ATOM      7  C   UNL     1     -34.453  24.843   3.702  0.00  0.00    +0.178 C 
ATOM      8  C   UNL     1     -34.830  26.178   4.372  0.00  0.00    +0.247 C 
ATOM      9  C   UNL     1     -36.351  27.576   1.580  0.00  0.00    +0.013 C 
ATOM     10  C   UNL     1     -34.455  28.648   0.357  0.00  0.00    +0.013 C 
ENDROOT
BRANCH   7  12
ATOM     11  O   UNL     1     -36.342  23.055   4.973  0.00  0.00    -0.275 OA
ATOM     12  N   UNL     1     -35.586  24.150   3.072  0.00  0.00    -0.296 N 
ATOM     13  C   UNL     1     -36.445  23.303   3.774  0.00  0.00    +0.227 C 
ATOM     14  H   UNL     1     -35.745  24.290   2.110  0.00  0.00    +0.150 HD
BRANCH  13  15
ATOM     15  C   UNL     1     -37.524  22.718   2.884  0.00  0.00    +0.111 C 
BRANCH  15  16
ATOM     16  C   UNL     1     -38.652  23.677   2.606  0.00  0.00    -0.013 C 
ATOM     17  C   UNL     1     -39.653  23.314   1.715  0.00  0.00    -0.004 C 
ATOM     18  C   UNL     1     -38.675  24.907   3.247  0.00  0.00    -0.004 C 
ATOM     19  C   UNL     1     -40.699  24.201   1.459  0.00  0.00    -0.000 C 
ATOM     20  C   UNL     1     -39.721  25.794   2.990  0.00  0.00    -0.000 C 
ATOM     21  C   UNL     1     -40.733  25.442   2.097  0.00  0.00    -0.000 C 
ENDBRANCH  15  16
ENDBRANCH  13  15
ENDBRANCH   7  12
BRANCH   6  23
ATOM     22  O   UNL     1     -31.953  28.383   2.127  0.00  0.00    -0.248 OA
ATOM     23  C   UNL     1     -32.890  28.767   2.814  0.00  0.00    +0.339 C 
BRANCH  23  24
ATOM     24  O   UNL     1     -32.900  29.849   3.643  0.00  0.00    -0.412 OA
BRANCH  24  25
ATOM     25  C   UNL     1     -31.888  29.908   4.666  0.00  0.00    +0.348 C 
ATOM     26  C   UNL     1     -31.643  31.363   5.038  0.00  0.00    +0.100 C 
BRANCH  25  27
ATOM     27  O   UNL     1     -32.324  29.232   5.864  0.00  0.00    -0.382 OA
BRANCH  27  29
ATOM     28  O   UNL     1     -32.214  27.121   6.784  0.00  0.00    -0.203 OA
ATOM     29  C   UNL     1     -31.724  28.041   6.141  0.00  0.00    +0.514 C 
BRANCH  29  30
ATOM     30  O   UNL     1     -30.484  28.053   5.579  0.00  0.00    -0.418 OA
BRANCH  30  31
ATOM     31  C   UNL     1     -29.388  27.985   6.496  0.00  0.00    +0.212 C 
ATOM     32  C   UNL     1     -29.119  29.370   7.046  0.00  0.00    +0.051 C 
ENDBRANCH  30  31
ENDBRANCH  29  30
ENDBRANCH  27  29
ENDBRANCH  25  27
ENDBRANCH  24  25
ENDBRANCH  23  24
ENDBRANCH   6  23
TORSDOF 10
ENDMDL
MODEL 9
REMARK VINA RESULT:      -5.8      5.189      8.387
REMARK  Name = 193750
REMARK  10 active torsions:
REMARK  status: ('A' for Active; 'I' for Inactive)
REMARK    1  A    between atoms: C_6  and  C_23
REMARK    2  A    between atoms: C_7  and  N_12
REMARK    3  A    between atoms: C_13  and  C_15
REMARK    4  A    between atoms: C_15  and  C_16
REMARK    5  A    between atoms: C_23  and  O_24
REMARK    6  A    between atoms: O_24  and  C_25
REMARK    7  A    between atoms: C_25  and  O_27
REMARK    8  A    between atoms: O_27  and  C_29
REMARK    9  A    between atoms: C_29  and  O_30
REMARK   10  A    between atoms: O_30  and  C_31
REMARK                            x       y       z     vdW  Elec       q    Type
REMARK                         _______ _______ _______ _____ _____    ______ ____
ROOT
ATOM      1  S   UNL     1     -39.946  23.125   1.749  0.00  0.00    -0.118 S 
ATOM      2  O   UNL     1     -38.304  27.191   1.762  0.00  0.00    -0.273 OA
ATOM      3  N   UNL     1     -38.100  24.904   2.305  0.00  0.00    -0.260 N 
ATOM      4  C   UNL     1     -39.227  24.270   2.988  0.00  0.00    +0.151 C 
ATOM      5  C   UNL     1     -38.644  23.473   0.465  0.00  0.00    +0.068 C 
ATOM      6  C   UNL     1     -37.498  24.221   1.183  0.00  0.00    +0.185 C 
ATOM      7  C   UNL     1     -39.872  25.662   3.074  0.00  0.00    +0.178 C 
ATOM      8  C   UNL     1     -38.637  26.158   2.295  0.00  0.00    +0.247 C 
ATOM      9  C   UNL     1     -39.288  24.367  -0.609  0.00  0.00    +0.013 C 
ATOM     10  C   UNL     1     -38.213  22.153  -0.182  0.00  0.00    +0.013 C 
ENDROOT
BRANCH   7  12
ATOM     11  O   UNL     1     -41.874  27.683   3.613  0.00  0.00    -0.275 OA
ATOM     12  N   UNL     1     -41.144  25.866   2.367  0.00  0.00    -0.296 N 
ATOM     13  C   UNL     1     -42.049  26.875   2.704  0.00  0.00    +0.227 C 
ATOM     14  H   UNL     1     -41.369  25.262   1.622  0.00  0.00    +0.150 HD
BRANCH  13  15
ATOM     15  C   UNL     1     -43.279  26.858   1.819  0.00  0.00    +0.111 C 
BRANCH  15  16
ATOM     16  C   UNL     1     -44.415  26.053   2.391  0.00  0.00    -0.013 C 
ATOM     17  C   UNL     1     -44.915  24.973   1.677  0.00  0.00    -0.004 C 
ATOM     18  C   UNL     1     -44.945  26.403   3.625  0.00  0.00    -0.004 C 
ATOM     19  C   UNL     1     -45.967  24.226   2.208  0.00  0.00    -0.000 C 
ATOM     20  C   UNL     1     -45.998  25.656   4.155  0.00  0.00    -0.000 C 
ATOM     21  C   UNL     1     -46.509  24.568   3.447  0.00  0.00    -0.000 C 
ENDBRANCH  15  16
ENDBRANCH  13  15
ENDBRANCH   7  12
BRANCH   6  23
ATOM     22  O   UNL     1     -36.696  22.302   2.393  0.00  0.00    -0.248 OA
ATOM     23  C   UNL     1     -36.453  23.350   1.811  0.00  0.00    +0.339 C 
BRANCH  23  24
ATOM     24  O   UNL     1     -35.225  23.913   1.628  0.00  0.00    -0.412 OA
BRANCH  24  25
ATOM     25  C   UNL     1     -34.523  24.362   2.803  0.00  0.00    +0.348 C 
ATOM     26  C   UNL     1     -33.515  25.428   2.401  0.00  0.00    +0.100 C 
BRANCH  25  27
ATOM     27  O   UNL     1     -35.430  24.971   3.746  0.00  0.00    -0.382 OA
BRANCH  27  29
ATOM     28  O   UNL     1     -34.462  25.210   5.824  0.00  0.00    -0.203 OA
ATOM     29  C   UNL     1     -35.241  24.658   5.058  0.00  0.00    +0.514 C 
BRANCH  29  30
ATOM     30  O   UNL     1     -36.071  23.624   5.369  0.00  0.00    -0.418 OA
BRANCH  30  31
ATOM     31  C   UNL     1     -35.522  22.633   6.244  0.00  0.00    +0.212 C 
ATOM     32  C   UNL     1     -35.049  21.454   5.419  0.00  0.00    +0.051 C 
ENDBRANCH  30  31
ENDBRANCH  29  30
ENDBRANCH  27  29
ENDBRANCH  25  27
ENDBRANCH  24  25
ENDBRANCH  23  24
ENDBRANCH   6  23
TORSDOF 10
ENDMDL
