MODEL 1
REMARK VINA RESULT:      -5.6      0.000      0.000
REMARK  Name = 5282192
REMARK  6 active torsions:
REMARK  status: ('A' for Active; 'I' for Inactive)
REMARK    1  A    between atoms: N_3  and  C1*_13
REMARK    2  A    between atoms: C_7  and  C_23
REMARK    3  A    between atoms: C2*_11  and  O2*_15
REMARK    4  A    between atoms: C3*_12  and  O3*_17
REMARK    5  A    between atoms: C4*_14  and  C5*_19
REMARK    6  A    between atoms: C5*_19  and  O5*_20
REMARK                            x       y       z     vdW  Elec       q    Type
REMARK                         _______ _______ _______ _____ _____    ______ ____
ROOT
ATOM      1  O   UNL     1     -37.699  22.337   2.597  0.00  0.00    -0.252 OA
ATOM      2  O   UNL     1     -35.201  22.613   6.443  0.00  0.00    -0.270 OA
ATOM      3  N   UNL     1     -36.602  24.350   3.036  0.00  0.00    -0.217 N 
ATOM      4  N   UNL     1     -36.447  22.494   4.511  0.00  0.00    -0.236 N 
ATOM      5  C   UNL     1     -35.772  25.045   3.914  0.00  0.00    +0.076 C 
ATOM      6  C   UNL     1     -36.970  23.015   3.323  0.00  0.00    +0.315 C 
ATOM      7  C   UNL     1     -35.271  24.545   5.051  0.00  0.00    +0.069 C 
ATOM      8  C   UNL     1     -35.619  23.142   5.416  0.00  0.00    +0.254 C 
ATOM      9  H   UNL     1     -36.693  21.566   4.729  0.00  0.00    +0.159 HD
ENDROOT
BRANCH   3  13
ATOM     10  O4* UNL     1     -36.123  25.953   1.396  0.00  0.00    -0.333 OA
ATOM     11  C2* UNL     1     -38.393  25.735   2.022  0.00  0.00    +0.187 C 
ATOM     12  C3* UNL     1     -38.323  26.743   0.895  0.00  0.00    +0.171 C 
ATOM     13  C1* UNL     1     -37.080  24.987   1.846  0.00  0.00    +0.229 C 
ATOM     14  C4* UNL     1     -36.829  27.055   0.788  0.00  0.00    +0.175 C 
BRANCH  11  15
ATOM     15  O2* UNL     1     -38.424  26.439   3.259  0.00  0.00    -0.378 OA
ATOM     16  H2* UNL     1     -39.095  26.046   3.838  0.00  0.00    +0.211 HD
ENDBRANCH  11  15
BRANCH  12  17
ATOM     17  O3* UNL     1     -38.740  26.122  -0.318  0.00  0.00    -0.379 OA
ATOM     18  H3* UNL     1     -38.687  26.764  -1.044  0.00  0.00    +0.211 HD
ENDBRANCH  12  17
BRANCH  14  19
ATOM     19  C5* UNL     1     -36.423  28.328   1.518  0.00  0.00    +0.169 C 
BRANCH  19  20
ATOM     20  O5* UNL     1     -35.809  27.972   2.744  0.00  0.00    -0.379 OA
ATOM     21  H5* UNL     1     -35.170  27.259   2.590  0.00  0.00    +0.211 HD
ENDBRANCH  19  20
ENDBRANCH  14  19
ENDBRANCH   3  13
BRANCH   7  23
ATOM     22 BR   UNL     1     -32.593  27.381   6.565  0.00  0.00    -0.048 Br
ATOM     23  C   UNL     1     -34.417  25.323   5.913  0.00  0.00    +0.013 C 
ATOM     24  C   UNL     1     -33.700  26.361   5.479  0.00  0.00    +0.041 C 
ENDBRANCH   7  23
TORSDOF 6
ENDMDL
MODEL 2
REMARK VINA RESULT:      -5.5      3.403      5.829
REMARK  Name = 5282192
REMARK  6 active torsions:
REMARK  status: ('A' for Active; 'I' for Inactive)
REMARK    1  A    between atoms: N_3  and  C1*_13
REMARK    2  A    between atoms: C_7  and  C_23
REMARK    3  A    between atoms: C2*_11  and  O2*_15
REMARK    4  A    between atoms: C3*_12  and  O3*_17
REMARK    5  A    between atoms: C4*_14  and  C5*_19
REMARK    6  A    between atoms: C5*_19  and  O5*_20
REMARK                            x       y       z     vdW  Elec       q    Type
REMARK                         _______ _______ _______ _____ _____    ______ ____
ROOT
ATOM      1  O   UNL     1     -32.370  27.072   6.002  0.00  0.00    -0.252 OA
ATOM      2  O   UNL     1     -32.774  30.814   3.368  0.00  0.00    -0.270 OA
ATOM      3  N   UNL     1     -33.901  27.000   4.241  0.00  0.00    -0.217 N 
ATOM      4  N   UNL     1     -32.586  28.930   4.676  0.00  0.00    -0.236 N 
ATOM      5  C   UNL     1     -34.466  27.695   3.174  0.00  0.00    +0.076 C 
ATOM      6  C   UNL     1     -32.916  27.621   5.043  0.00  0.00    +0.315 C 
ATOM      7  C   UNL     1     -34.149  28.948   2.822  0.00  0.00    +0.069 C 
ATOM      8  C   UNL     1     -33.117  29.663   3.625  0.00  0.00    +0.254 C 
ATOM      9  H   UNL     1     -31.901  29.380   5.223  0.00  0.00    +0.159 HD
ENDROOT
BRANCH   3  13
ATOM     10  O4* UNL     1     -34.901  25.075   3.354  0.00  0.00    -0.333 OA
ATOM     11  C2* UNL     1     -35.363  25.550   5.625  0.00  0.00    +0.187 C 
ATOM     12  C3* UNL     1     -36.021  24.229   5.289  0.00  0.00    +0.171 C 
ATOM     13  C1* UNL     1     -34.317  25.659   4.525  0.00  0.00    +0.229 C 
ATOM     14  C4* UNL     1     -35.951  24.172   3.762  0.00  0.00    +0.175 C 
BRANCH  11  15
ATOM     15  O2* UNL     1     -36.337  26.582   5.515  0.00  0.00    -0.378 OA
ATOM     16  H2* UNL     1     -36.432  26.840   4.586  0.00  0.00    +0.211 HD
ENDBRANCH  11  15
BRANCH  12  17
ATOM     17  O3* UNL     1     -35.233  23.164   5.814  0.00  0.00    -0.379 OA
ATOM     18  H3* UNL     1     -34.487  23.530   6.316  0.00  0.00    +0.211 HD
ENDBRANCH  12  17
BRANCH  14  19
ATOM     19  C5* UNL     1     -37.238  24.616   3.080  0.00  0.00    +0.169 C 
BRANCH  19  20
ATOM     20  O5* UNL     1     -38.246  24.761   4.065  0.00  0.00    -0.379 OA
ATOM     21  H5* UNL     1     -37.976  25.434   4.708  0.00  0.00    +0.211 HD
ENDBRANCH  19  20
ENDBRANCH  14  19
ENDBRANCH   3  13
BRANCH   7  23
ATOM     22 BR   UNL     1     -36.776  31.096   0.375  0.00  0.00    -0.048 Br
ATOM     23  C   UNL     1     -34.776  29.605   1.703  0.00  0.00    +0.013 C 
ATOM     24  C   UNL     1     -35.945  30.241   1.797  0.00  0.00    +0.041 C 
ENDBRANCH   7  23
TORSDOF 6
ENDMDL
MODEL 3
REMARK VINA RESULT:      -5.4      3.643      5.034
REMARK  Name = 5282192
REMARK  6 active torsions:
REMARK  status: ('A' for Active; 'I' for Inactive)
REMARK    1  A    between atoms: N_3  and  C1*_13
REMARK    2  A    between atoms: C_7  and  C_23
REMARK    3  A    between atoms: C2*_11  and  O2*_15
REMARK    4  A    between atoms: C3*_12  and  O3*_17
REMARK    5  A    between atoms: C4*_14  and  C5*_19
REMARK    6  A    between atoms: C5*_19  and  O5*_20
REMARK                            x       y       z     vdW  Elec       q    Type
REMARK                         _______ _______ _______ _____ _____    ______ ____
ROOT
ATOM      1  O   UNL     1     -39.057  22.425   1.909  0.00  0.00    -0.252 OA
ATOM      2  O   UNL     1     -36.633  18.728   0.657  0.00  0.00    -0.270 OA
ATOM      3  N   UNL     1     -36.741  22.498   2.193  0.00  0.00    -0.217 N 
ATOM      4  N   UNL     1     -37.830  20.590   1.289  0.00  0.00    -0.236 N 
ATOM      5  C   UNL     1     -35.538  21.813   2.043  0.00  0.00    +0.076 C 
ATOM      6  C   UNL     1     -37.955  21.883   1.807  0.00  0.00    +0.315 C 
ATOM      7  C   UNL     1     -35.418  20.574   1.547  0.00  0.00    +0.069 C 
ATOM      8  C   UNL     1     -36.659  19.866   1.120  0.00  0.00    +0.254 C 
ATOM      9  H   UNL     1     -38.664  20.144   1.016  0.00  0.00    +0.159 HD
ENDROOT
BRANCH   3  13
ATOM     10  O4* UNL     1     -35.443  24.402   2.622  0.00  0.00    -0.333 OA
ATOM     11  C2* UNL     1     -37.119  23.891   4.211  0.00  0.00    +0.187 C 
ATOM     12  C3* UNL     1     -36.474  25.196   4.627  0.00  0.00    +0.171 C 
ATOM     13  C1* UNL     1     -36.749  23.823   2.737  0.00  0.00    +0.229 C 
ATOM     14  C4* UNL     1     -35.220  25.269   3.754  0.00  0.00    +0.175 C 
BRANCH  11  15
ATOM     15  O2* UNL     1     -36.514  22.832   4.945  0.00  0.00    -0.378 OA
ATOM     16  H2* UNL     1     -37.094  22.056   4.930  0.00  0.00    +0.211 HD
ENDBRANCH  11  15
BRANCH  12  17
ATOM     17  O3* UNL     1     -37.331  26.278   4.274  0.00  0.00    -0.379 OA
ATOM     18  H3* UNL     1     -37.992  25.971   3.633  0.00  0.00    +0.211 HD
ENDBRANCH  12  17
BRANCH  14  19
ATOM     19  C5* UNL     1     -33.960  24.794   4.463  0.00  0.00    +0.169 C 
BRANCH  19  20
ATOM     20  O5* UNL     1     -33.469  25.849   5.272  0.00  0.00    -0.379 OA
ATOM     21  H5* UNL     1     -33.315  25.522   6.172  0.00  0.00    +0.211 HD
ENDBRANCH  19  20
ENDBRANCH  14  19
ENDBRANCH   3  13
BRANCH   7  23
ATOM     22 BR   UNL     1     -31.652  19.333   0.213  0.00  0.00    -0.048 Br
ATOM     23  C   UNL     1     -34.138  19.925   1.420  0.00  0.00    +0.013 C 
ATOM     24  C   UNL     1     -33.306  20.154   0.402  0.00  0.00    +0.041 C 
ENDBRANCH   7  23
TORSDOF 6
ENDMDL
MODEL 4
REMARK VINA RESULT:      -5.4      3.387      5.321
REMARK  Name = 5282192
REMARK  6 active torsions:
REMARK  status: ('A' for Active; 'I' for Inactive)
REMARK    1  A    between atoms: N_3  and  C1*_13
REMARK    2  A    between atoms: C_7  and  C_23
REMARK    3  A    between atoms: C2*_11  and  O2*_15
REMARK    4  A    between atoms: C3*_12  and  O3*_17
REMARK    5  A    between atoms: C4*_14  and  C5*_19
REMARK    6  A    between atoms: C5*_19  and  O5*_20
REMARK                            x       y       z     vdW  Elec       q    Type
REMARK                         _______ _______ _______ _____ _____    ______ ____
ROOT
ATOM      1  O   UNL     1     -35.516  20.424   2.818  0.00  0.00    -0.252 OA
ATOM      2  O   UNL     1     -39.614  20.778   0.771  0.00  0.00    -0.270 OA
ATOM      3  N   UNL     1     -36.726  22.393   3.145  0.00  0.00    -0.217 N 
ATOM      4  N   UNL     1     -37.563  20.619   1.805  0.00  0.00    -0.236 N 
ATOM      5  C   UNL     1     -37.899  23.088   2.857  0.00  0.00    +0.076 C 
ATOM      6  C   UNL     1     -36.525  21.101   2.608  0.00  0.00    +0.315 C 
ATOM      7  C   UNL     1     -38.894  22.627   2.088  0.00  0.00    +0.069 C 
ATOM      8  C   UNL     1     -38.747  21.270   1.489  0.00  0.00    +0.254 C 
ATOM      9  H   UNL     1     -37.441  19.720   1.421  0.00  0.00    +0.159 HD
ENDROOT
BRANCH   3  13
ATOM     10  O4* UNL     1     -36.356  23.724   5.037  0.00  0.00    -0.333 OA
ATOM     11  C2* UNL     1     -34.811  23.965   3.263  0.00  0.00    +0.187 C 
ATOM     12  C3* UNL     1     -34.335  24.834   4.408  0.00  0.00    +0.171 C 
ATOM     13  C1* UNL     1     -35.727  22.987   3.982  0.00  0.00    +0.229 C 
ATOM     14  C4* UNL     1     -35.537  24.869   5.354  0.00  0.00    +0.175 C 
BRANCH  11  15
ATOM     15  O2* UNL     1     -35.539  24.779   2.350  0.00  0.00    -0.378 OA
ATOM     16  H2* UNL     1     -35.410  24.448   1.448  0.00  0.00    +0.211 HD
ENDBRANCH  11  15
BRANCH  12  17
ATOM     17  O3* UNL     1     -33.258  24.182   5.076  0.00  0.00    -0.379 OA
ATOM     18  H3* UNL     1     -32.598  23.896   4.424  0.00  0.00    +0.211 HD
ENDBRANCH  12  17
BRANCH  14  19
ATOM     19  C5* UNL     1     -36.396  26.116   5.193  0.00  0.00    +0.169 C 
BRANCH  19  20
ATOM     20  O5* UNL     1     -35.674  27.070   4.434  0.00  0.00    -0.379 OA
ATOM     21  H5* UNL     1     -36.227  27.387   3.703  0.00  0.00    +0.211 HD
ENDBRANCH  19  20
ENDBRANCH  14  19
ENDBRANCH   3  13
BRANCH   7  23
ATOM     22 BR   UNL     1     -41.715  25.709   1.867  0.00  0.00    -0.048 Br
ATOM     23  C   UNL     1     -40.081  23.403   1.833  0.00  0.00    +0.013 C 
ATOM     24  C   UNL     1     -40.199  24.685   2.182  0.00  0.00    +0.041 C 
ENDBRANCH   7  23
TORSDOF 6
ENDMDL
MODEL 5
REMARK VINA RESULT:      -5.3      3.956      6.357
REMARK  Name = 5282192
REMARK  6 active torsions:
REMARK  status: ('A' for Active; 'I' for Inactive)
REMARK    1  A    between atoms: N_3  and  C1*_13
REMARK    2  A    between atoms: C_7  and  C_23
REMARK    3  A    between atoms: C2*_11  and  O2*_15
REMARK    4  A    between atoms: C3*_12  and  O3*_17
REMARK    5  A    between atoms: C4*_14  and  C5*_19
REMARK    6  A    between atoms: C5*_19  and  O5*_20
REMARK                            x       y       z     vdW  Elec       q    Type
REMARK                         _______ _______ _______ _____ _____    ______ ____
ROOT
ATOM      1  O   UNL     1     -34.287  29.387   2.384  0.00  0.00    -0.252 OA
ATOM      2  O   UNL     1     -36.832  25.991   4.143  0.00  0.00    -0.270 OA
ATOM      3  N   UNL     1     -33.225  27.845   3.779  0.00  0.00    -0.217 N 
ATOM      4  N   UNL     1     -35.540  27.685   3.271  0.00  0.00    -0.236 N 
ATOM      5  C   UNL     1     -33.375  26.701   4.560  0.00  0.00    +0.076 C 
ATOM      6  C   UNL     1     -34.340  28.381   3.094  0.00  0.00    +0.315 C 
ATOM      7  C   UNL     1     -34.524  26.035   4.730  0.00  0.00    +0.069 C 
ATOM      8  C   UNL     1     -35.741  26.545   4.036  0.00  0.00    +0.254 C 
ATOM      9  H   UNL     1     -36.329  28.043   2.803  0.00  0.00    +0.159 HD
ENDROOT
BRANCH   3  13
ATOM     10  O4* UNL     1     -30.949  27.666   4.306  0.00  0.00    -0.333 OA
ATOM     11  C2* UNL     1     -31.865  29.846   4.327  0.00  0.00    +0.187 C 
ATOM     12  C3* UNL     1     -30.380  29.970   4.597  0.00  0.00    +0.171 C 
ATOM     13  C1* UNL     1     -31.944  28.477   3.669  0.00  0.00    +0.229 C 
ATOM     14  C4* UNL     1     -29.949  28.530   4.885  0.00  0.00    +0.175 C 
BRANCH  11  15
ATOM     15  O2* UNL     1     -32.554  29.862   5.572  0.00  0.00    -0.378 OA
ATOM     16  H2* UNL     1     -32.250  30.615   6.101  0.00  0.00    +0.211 HD
ENDBRANCH  11  15
BRANCH  12  17
ATOM     17  O3* UNL     1     -29.722  30.406   3.410  0.00  0.00    -0.379 OA
ATOM     18  H3* UNL     1     -29.815  31.368   3.323  0.00  0.00    +0.211 HD
ENDBRANCH  12  17
BRANCH  14  19
ATOM     19  C5* UNL     1     -29.863  28.212   6.372  0.00  0.00    +0.169 C 
BRANCH  19  20
ATOM     20  O5* UNL     1     -30.981  27.420   6.732  0.00  0.00    -0.379 OA
ATOM     21  H5* UNL     1     -31.559  27.306   5.961  0.00  0.00    +0.211 HD
ENDBRANCH  19  20
ENDBRANCH  14  19
ENDBRANCH   3  13
BRANCH   7  23
ATOM     22 BR   UNL     1     -35.075  22.126   6.117  0.00  0.00    -0.048 Br
ATOM     23  C   UNL     1     -34.605  24.856   5.554  0.00  0.00    +0.013 C 
ATOM     24  C   UNL     1     -34.962  23.661   5.080  0.00  0.00    +0.041 C 
ENDBRANCH   7  23
TORSDOF 6
ENDMDL
MODEL 6
REMARK VINA RESULT:      -5.3      3.646      5.611
REMARK  Name = 5282192
REMARK  6 active torsions:
REMARK  status: ('A' for Active; 'I' for Inactive)
REMARK    1  A    between atoms: N_3  and  C1*_13
REMARK    2  A    between atoms: C_7  and  C_23
REMARK    3  A    between atoms: C2*_11  and  O2*_15
REMARK    4  A    between atoms: C3*_12  and  O3*_17
REMARK    5  A    between atoms: C4*_14  and  C5*_19
REMARK    6  A    between atoms: C5*_19  and  O5*_20
REMARK                            x       y       z     vdW  Elec       q    Type
REMARK                         _______ _______ _______ _____ _____    ______ ____
ROOT
ATOM      1  O   UNL     1     -36.468  25.262   0.498  0.00  0.00    -0.252 OA
ATOM      2  O   UNL     1     -35.660  21.109  -1.291  0.00  0.00    -0.270 OA
ATOM      3  N   UNL     1     -35.492  23.656   1.882  0.00  0.00    -0.217 N 
ATOM      4  N   UNL     1     -36.057  23.183  -0.377  0.00  0.00    -0.236 N 
ATOM      5  C   UNL     1     -35.024  22.347   1.979  0.00  0.00    +0.076 C 
ATOM      6  C   UNL     1     -36.036  24.120   0.662  0.00  0.00    +0.315 C 
ATOM      7  C   UNL     1     -35.044  21.450   0.984  0.00  0.00    +0.069 C 
ATOM      8  C   UNL     1     -35.605  21.873  -0.330  0.00  0.00    +0.254 C 
ATOM      9  H   UNL     1     -36.433  23.487  -1.235  0.00  0.00    +0.159 HD
ENDROOT
BRANCH   3  13
ATOM     10  O4* UNL     1     -34.622  23.927   4.041  0.00  0.00    -0.333 OA
ATOM     11  C2* UNL     1     -36.768  24.842   3.648  0.00  0.00    +0.187 C 
ATOM     12  C3* UNL     1     -36.363  25.211   5.059  0.00  0.00    +0.171 C 
ATOM     13  C1* UNL     1     -35.420  24.530   3.015  0.00  0.00    +0.229 C 
ATOM     14  C4* UNL     1     -35.147  24.321   5.326  0.00  0.00    +0.175 C 
BRANCH  11  15
ATOM     15  O2* UNL     1     -37.594  23.684   3.702  0.00  0.00    -0.378 OA
ATOM     16  H2* UNL     1     -37.150  22.994   4.218  0.00  0.00    +0.211 HD
ENDBRANCH  11  15
BRANCH  12  17
ATOM     17  O3* UNL     1     -35.938  26.571   5.086  0.00  0.00    -0.379 OA
ATOM     18  H3* UNL     1     -35.248  26.708   4.416  0.00  0.00    +0.211 HD
ENDBRANCH  12  17
BRANCH  14  19
ATOM     19  C5* UNL     1     -35.483  23.055   6.101  0.00  0.00    +0.169 C 
BRANCH  19  20
ATOM     20  O5* UNL     1     -35.998  22.093   5.197  0.00  0.00    -0.379 OA
ATOM     21  H5* UNL     1     -36.469  21.404   5.691  0.00  0.00    +0.211 HD
ENDBRANCH  19  20
ENDBRANCH  14  19
ENDBRANCH   3  13
BRANCH   7  23
ATOM     22 BR   UNL     1     -32.590  18.067   1.175  0.00  0.00    -0.048 Br
ATOM     23  C   UNL     1     -34.542  20.111   1.157  0.00  0.00    +0.013 C 
ATOM     24  C   UNL     1     -33.264  19.783   0.961  0.00  0.00    +0.041 C 
ENDBRANCH   7  23
TORSDOF 6
ENDMDL
MODEL 7
REMARK VINA RESULT:      -5.2      2.587      4.385
REMARK  Name = 5282192
REMARK  6 active torsions:
REMARK  status: ('A' for Active; 'I' for Inactive)
REMARK    1  A    between atoms: N_3  and  C1*_13
REMARK    2  A    between atoms: C_7  and  C_23
REMARK    3  A    between atoms: C2*_11  and  O2*_15
REMARK    4  A    between atoms: C3*_12  and  O3*_17
REMARK    5  A    between atoms: C4*_14  and  C5*_19
REMARK    6  A    between atoms: C5*_19  and  O5*_20
REMARK                            x       y       z     vdW  Elec       q    Type
REMARK                         _______ _______ _______ _____ _____    ______ ____
ROOT
ATOM      1  O   UNL     1     -37.697  27.671   1.127  0.00  0.00    -0.252 OA
ATOM      2  O   UNL     1     -34.650  26.991   4.498  0.00  0.00    -0.270 OA
ATOM      3  N   UNL     1     -37.784  25.641   2.276  0.00  0.00    -0.217 N 
ATOM      4  N   UNL     1     -36.185  27.313   2.813  0.00  0.00    -0.236 N 
ATOM      5  C   UNL     1     -37.227  24.863   3.289  0.00  0.00    +0.076 C 
ATOM      6  C   UNL     1     -37.259  26.925   2.005  0.00  0.00    +0.315 C 
ATOM      7  C   UNL     1     -36.199  25.235   4.063  0.00  0.00    +0.069 C 
ATOM      8  C   UNL     1     -35.596  26.578   3.832  0.00  0.00    +0.254 C 
ATOM      9  H   UNL     1     -35.804  28.205   2.640  0.00  0.00    +0.159 HD
ENDROOT
BRANCH   3  13
ATOM     10  O4* UNL     1     -39.525  24.073   2.222  0.00  0.00    -0.333 OA
ATOM     11  C2* UNL     1     -38.496  24.574   0.152  0.00  0.00    +0.187 C 
ATOM     12  C3* UNL     1     -39.643  23.625  -0.123  0.00  0.00    +0.171 C 
ATOM     13  C1* UNL     1     -38.885  25.139   1.509  0.00  0.00    +0.229 C 
ATOM     14  C4* UNL     1     -40.025  23.113   1.267  0.00  0.00    +0.175 C 
BRANCH  11  15
ATOM     15  O2* UNL     1     -37.293  23.818   0.233  0.00  0.00    -0.378 OA
ATOM     16  H2* UNL     1     -37.302  23.122  -0.441  0.00  0.00    +0.211 HD
ENDBRANCH  11  15
BRANCH  12  17
ATOM     17  O3* UNL     1     -40.745  24.360  -0.649  0.00  0.00    -0.379 OA
ATOM     18  H3* UNL     1     -40.418  25.043  -1.257  0.00  0.00    +0.211 HD
ENDBRANCH  12  17
BRANCH  14  19
ATOM     19  C5* UNL     1     -39.413  21.760   1.603  0.00  0.00    +0.169 C 
BRANCH  19  20
ATOM     20  O5* UNL     1     -40.400  20.957   2.224  0.00  0.00    -0.379 OA
ATOM     21  H5* UNL     1     -40.439  21.165   3.170  0.00  0.00    +0.211 HD
ENDBRANCH  19  20
ENDBRANCH  14  19
ENDBRANCH   3  13
BRANCH   7  23
ATOM     22 BR   UNL     1     -35.110  21.918   6.368  0.00  0.00    -0.048 Br
ATOM     23  C   UNL     1     -35.674  24.377   5.094  0.00  0.00    +0.013 C 
ATOM     24  C   UNL     1     -35.776  23.047   5.055  0.00  0.00    +0.041 C 
ENDBRANCH   7  23
TORSDOF 6
ENDMDL
MODEL 8
REMARK VINA RESULT:      -5.2      3.037      4.975
REMARK  Name = 5282192
REMARK  6 active torsions:
REMARK  status: ('A' for Active; 'I' for Inactive)
REMARK    1  A    between atoms: N_3  and  C1*_13
REMARK    2  A    between atoms: C_7  and  C_23
REMARK    3  A    between atoms: C2*_11  and  O2*_15
REMARK    4  A    between atoms: C3*_12  and  O3*_17
REMARK    5  A    between atoms: C4*_14  and  C5*_19
REMARK    6  A    between atoms: C5*_19  and  O5*_20
REMARK                            x       y       z     vdW  Elec       q    Type
REMARK                         _______ _______ _______ _____ _____    ______ ____
ROOT
ATOM      1  O   UNL     1     -35.217  21.052   5.094  0.00  0.00    -0.252 OA
ATOM      2  O   UNL     1     -36.282  25.479   5.709  0.00  0.00    -0.270 OA
ATOM      3  N   UNL     1     -35.566  22.359   3.192  0.00  0.00    -0.217 N 
ATOM      4  N   UNL     1     -35.749  23.264   5.381  0.00  0.00    -0.236 N 
ATOM      5  C   UNL     1     -35.880  23.625   2.703  0.00  0.00    +0.076 C 
ATOM      6  C   UNL     1     -35.490  22.142   4.587  0.00  0.00    +0.315 C 
ATOM      7  C   UNL     1     -36.128  24.700   3.463  0.00  0.00    +0.069 C 
ATOM      8  C   UNL     1     -36.065  24.542   4.944  0.00  0.00    +0.254 C 
ATOM      9  H   UNL     1     -35.702  23.133   6.356  0.00  0.00    +0.159 HD
ENDROOT
BRANCH   3  13
ATOM     10  O4* UNL     1     -35.154  21.793   0.955  0.00  0.00    -0.333 OA
ATOM     11  C2* UNL     1     -36.443  20.257   2.209  0.00  0.00    +0.187 C 
ATOM     12  C3* UNL     1     -36.219  19.656   0.837  0.00  0.00    +0.171 C 
ATOM     13  C1* UNL     1     -35.320  21.280   2.283  0.00  0.00    +0.229 C 
ATOM     14  C4* UNL     1     -35.678  20.830   0.018  0.00  0.00    +0.175 C 
BRANCH  11  15
ATOM     15  O2* UNL     1     -37.719  20.888   2.223  0.00  0.00    -0.378 OA
ATOM     16  H2* UNL     1     -38.177  20.673   3.049  0.00  0.00    +0.211 HD
ENDBRANCH  11  15
BRANCH  12  17
ATOM     17  O3* UNL     1     -35.202  18.661   0.921  0.00  0.00    -0.379 OA
ATOM     18  H3* UNL     1     -34.440  19.017   1.406  0.00  0.00    +0.211 HD
ENDBRANCH  12  17
BRANCH  14  19
ATOM     19  C5* UNL     1     -36.744  21.525  -0.818  0.00  0.00    +0.169 C 
BRANCH  19  20
ATOM     20  O5* UNL     1     -37.911  20.721  -0.826  0.00  0.00    -0.379 OA
ATOM     21  H5* UNL     1     -38.603  21.160  -1.344  0.00  0.00    +0.211 HD
ENDBRANCH  19  20
ENDBRANCH  14  19
ENDBRANCH   3  13
BRANCH   7  23
ATOM     22 BR   UNL     1     -35.900  28.493   1.713  0.00  0.00    -0.048 Br
ATOM     23  C   UNL     1     -36.448  25.982   2.888  0.00  0.00    +0.013 C 
ATOM     24  C   UNL     1     -35.518  26.837   2.458  0.00  0.00    +0.041 C 
ENDBRANCH   7  23
TORSDOF 6
ENDMDL
MODEL 9
REMARK VINA RESULT:      -5.2      2.930      3.953
REMARK  Name = 5282192
REMARK  6 active torsions:
REMARK  status: ('A' for Active; 'I' for Inactive)
REMARK    1  A    between atoms: N_3  and  C1*_13
REMARK    2  A    between atoms: C_7  and  C_23
REMARK    3  A    between atoms: C2*_11  and  O2*_15
REMARK    4  A    between atoms: C3*_12  and  O3*_17
REMARK    5  A    between atoms: C4*_14  and  C5*_19
REMARK    6  A    between atoms: C5*_19  and  O5*_20
REMARK                            x       y       z     vdW  Elec       q    Type
REMARK                         _______ _______ _______ _____ _____    ______ ____
ROOT
ATOM      1  O   UNL     1     -36.076  25.590   5.743  0.00  0.00    -0.252 OA
ATOM      2  O   UNL     1     -35.140  21.092   5.701  0.00  0.00    -0.270 OA
ATOM      3  N   UNL     1     -36.138  24.487   3.686  0.00  0.00    -0.217 N 
ATOM      4  N   UNL     1     -35.612  23.345   5.702  0.00  0.00    -0.236 N 
ATOM      5  C   UNL     1     -35.979  23.273   3.023  0.00  0.00    +0.076 C 
ATOM      6  C   UNL     1     -35.952  24.554   5.086  0.00  0.00    +0.315 C 
ATOM      7  C   UNL     1     -35.654  22.115   3.612  0.00  0.00    +0.069 C 
ATOM      8  C   UNL     1     -35.443  22.113   5.087  0.00  0.00    +0.254 C 
ATOM      9  H   UNL     1     -35.477  23.371   6.677  0.00  0.00    +0.159 HD
ENDROOT
BRANCH   3  13
ATOM     10  O4* UNL     1     -37.001  25.299   1.665  0.00  0.00    -0.333 OA
ATOM     11  C2* UNL     1     -35.325  26.611   2.695  0.00  0.00    +0.187 C 
ATOM     12  C3* UNL     1     -35.804  27.359   1.469  0.00  0.00    +0.171 C 
ATOM     13  C1* UNL     1     -36.489  25.666   2.952  0.00  0.00    +0.229 C 
ATOM     14  C4* UNL     1     -36.623  26.313   0.710  0.00  0.00    +0.175 C 
BRANCH  11  15
ATOM     15  O2* UNL     1     -34.143  25.895   2.355  0.00  0.00    -0.378 OA
ATOM     16  H2* UNL     1     -34.109  25.765   1.395  0.00  0.00    +0.211 HD
ENDBRANCH  11  15
BRANCH  12  17
ATOM     17  O3* UNL     1     -36.681  28.409   1.872  0.00  0.00    -0.379 OA
ATOM     18  H3* UNL     1     -36.840  28.349   2.827  0.00  0.00    +0.211 HD
ENDBRANCH  12  17
BRANCH  14  19
ATOM     19  C5* UNL     1     -35.845  25.633  -0.408  0.00  0.00    +0.169 C 
BRANCH  19  20
ATOM     20  O5* UNL     1     -34.634  26.338  -0.613  0.00  0.00    -0.379 OA
ATOM     21  H5* UNL     1     -34.034  25.800  -1.153  0.00  0.00    +0.211 HD
ENDBRANCH  19  20
ENDBRANCH  14  19
ENDBRANCH   3  13
BRANCH   7  23
ATOM     22 BR   UNL     1     -34.708  19.286   0.678  0.00  0.00    -0.048 Br
ATOM     23  C   UNL     1     -35.506  20.894   2.861  0.00  0.00    +0.013 C 
ATOM     24  C   UNL     1     -34.912  20.843   1.667  0.00  0.00    +0.041 C 
ENDBRANCH   7  23
TORSDOF 6
ENDMDL
