MODEL 1
REMARK VINA RESULT:      -6.6      0.000      0.000
REMARK  Name = 5288516
REMARK  9 active torsions:
REMARK  status: ('A' for Active; 'I' for Inactive)
REMARK    1  A    between atoms: O_1  and  C_5
REMARK    2  A    between atoms: O_1  and  C_22
REMARK    3  A    between atoms: N_4  and  O_13
REMARK    4  A    between atoms: C_11  and  O_15
REMARK    5  A    between atoms: C_18  and  O_23
REMARK    6  A    between atoms: C_19  and  O_25
REMARK    7  A    between atoms: C_20  and  O_27
REMARK    8  A    between atoms: C_21  and  C_29
REMARK    9  A    between atoms: C_29  and  O_30
REMARK                            x       y       z     vdW  Elec       q    Type
REMARK                         _______ _______ _______ _____ _____    ______ ____
ROOT
ATOM      1  O   UNL     1     -38.234  23.138   2.686  0.00  0.00    -0.286 OA
ENDROOT
BRANCH   1   5
ATOM      2  O   UNL     1     -36.852  21.503   1.769  0.00  0.00    -0.444 OA
ATOM      3  O   UNL     1     -40.370  22.225   1.352  0.00  0.00    -0.266 OA
ATOM      4  N   UNL     1     -39.085  20.578   0.376  0.00  0.00    -0.141 N 
ATOM      5  C   UNL     1     -38.158  21.791   2.235  0.00  0.00    +0.372 C 
ATOM      6  C   UNL     1     -39.325  21.583   1.273  0.00  0.00    +0.323 C 
ATOM      7  C   UNL     1     -36.775  20.385   0.981  0.00  0.00    +0.161 C 
ATOM      8  C   UNL     1     -37.870  19.896   0.260  0.00  0.00    +0.115 C 
ATOM      9  C   UNL     1     -35.524  19.780   0.860  0.00  0.00    +0.075 C 
ATOM     10  C   UNL     1     -37.707  18.787  -0.575  0.00  0.00    +0.023 C 
ATOM     11  C   UNL     1     -35.368  18.667   0.035  0.00  0.00    +0.142 C 
ATOM     12  C   UNL     1     -36.459  18.171  -0.681  0.00  0.00    +0.038 C 
BRANCH   4  13
ATOM     13  O   UNL     1     -40.146  20.192  -0.454  0.00  0.00    -0.287 OA
ATOM     14  H   UNL     1     -39.858  19.467  -1.030  0.00  0.00    +0.242 HD
ENDBRANCH   4  13
BRANCH  11  15
ATOM     15  O   UNL     1     -34.151  18.069  -0.079  0.00  0.00    -0.471 OA
ATOM     16  C   UNL     1     -33.258  18.198   1.026  0.00  0.00    +0.252 C 
ENDBRANCH  11  15
ENDBRANCH   1   5
BRANCH   1  22
ATOM     17  O   UNL     1     -36.719  22.844   4.436  0.00  0.00    -0.326 OA
ATOM     18  C   UNL     1     -35.869  25.582   4.274  0.00  0.00    +0.172 C 
ATOM     19  C   UNL     1     -35.513  24.683   5.457  0.00  0.00    +0.169 C 
ATOM     20  C   UNL     1     -37.106  25.067   3.538  0.00  0.00    +0.197 C 
ATOM     21  C   UNL     1     -35.472  23.214   5.030  0.00  0.00    +0.176 C 
ATOM     22  C   UNL     1     -36.992  23.571   3.241  0.00  0.00    +0.269 C 
BRANCH  18  23
ATOM     23  O   UNL     1     -36.128  26.894   4.779  0.00  0.00    -0.379 OA
ATOM     24  H   UNL     1     -35.616  27.034   5.591  0.00  0.00    +0.211 HD
ENDBRANCH  18  23
BRANCH  19  25
ATOM     25  O   UNL     1     -34.238  25.060   5.970  0.00  0.00    -0.379 OA
ATOM     26  H   UNL     1     -33.621  25.196   5.234  0.00  0.00    +0.211 HD
ENDBRANCH  19  25
BRANCH  20  27
ATOM     27  O   UNL     1     -37.243  25.760   2.298  0.00  0.00    -0.378 OA
ATOM     28  H   UNL     1     -37.983  25.384   1.798  0.00  0.00    +0.211 HD
ENDBRANCH  20  27
BRANCH  21  29
ATOM     29  C   UNL     1     -35.235  22.286   6.217  0.00  0.00    +0.169 C 
BRANCH  29  30
ATOM     30  O   UNL     1     -35.427  20.949   5.790  0.00  0.00    -0.379 OA
ATOM     31  H   UNL     1     -35.585  20.935   4.833  0.00  0.00    +0.211 HD
ENDBRANCH  29  30
ENDBRANCH  21  29
ENDBRANCH   1  22
TORSDOF 9
ENDMDL
MODEL 2
REMARK VINA RESULT:      -6.5      4.974      9.386
REMARK  Name = 5288516
REMARK  9 active torsions:
REMARK  status: ('A' for Active; 'I' for Inactive)
REMARK    1  A    between atoms: O_1  and  C_5
REMARK    2  A    between atoms: O_1  and  C_22
REMARK    3  A    between atoms: N_4  and  O_13
REMARK    4  A    between atoms: C_11  and  O_15
REMARK    5  A    between atoms: C_18  and  O_23
REMARK    6  A    between atoms: C_19  and  O_25
REMARK    7  A    between atoms: C_20  and  O_27
REMARK    8  A    between atoms: C_21  and  C_29
REMARK    9  A    between atoms: C_29  and  O_30
REMARK                            x       y       z     vdW  Elec       q    Type
REMARK                         _______ _______ _______ _____ _____    ______ ____
ROOT
ATOM      1  O   UNL     1     -32.960  25.758   4.547  0.00  0.00    -0.286 OA
ENDROOT
BRANCH   1   5
ATOM      2  O   UNL     1     -32.516  27.843   3.606  0.00  0.00    -0.444 OA
ATOM      3  O   UNL     1     -32.531  26.674   7.028  0.00  0.00    -0.266 OA
ATOM      4  N   UNL     1     -32.057  28.772   6.197  0.00  0.00    -0.141 N 
ATOM      5  C   UNL     1     -33.071  27.166   4.720  0.00  0.00    +0.372 C 
ATOM      6  C   UNL     1     -32.512  27.485   6.105  0.00  0.00    +0.323 C 
ATOM      7  C   UNL     1     -32.234  29.163   3.840  0.00  0.00    +0.161 C 
ATOM      8  C   UNL     1     -31.989  29.664   5.123  0.00  0.00    +0.115 C 
ATOM      9  C   UNL     1     -32.125  29.995   2.725  0.00  0.00    +0.075 C 
ATOM     10  C   UNL     1     -31.645  31.010   5.285  0.00  0.00    +0.023 C 
ATOM     11  C   UNL     1     -31.792  31.338   2.892  0.00  0.00    +0.142 C 
ATOM     12  C   UNL     1     -31.554  31.845   4.170  0.00  0.00    +0.038 C 
BRANCH   4  13
ATOM     13  O   UNL     1     -31.666  29.225   7.464  0.00  0.00    -0.287 OA
ATOM     14  H   UNL     1     -32.323  28.952   8.122  0.00  0.00    +0.242 HD
ENDBRANCH   4  13
BRANCH  11  15
ATOM     15  O   UNL     1     -31.694  32.154   1.807  0.00  0.00    -0.471 OA
ATOM     16  C   UNL     1     -32.494  33.335   1.807  0.00  0.00    +0.252 C 
ENDBRANCH  11  15
ENDBRANCH   1   5
BRANCH   1  22
ATOM     17  O   UNL     1     -34.314  23.995   5.257  0.00  0.00    -0.326 OA
ATOM     18  C   UNL     1     -35.726  23.962   2.756  0.00  0.00    +0.172 C 
ATOM     19  C   UNL     1     -35.841  22.830   3.778  0.00  0.00    +0.169 C 
ATOM     20  C   UNL     1     -34.437  24.758   2.954  0.00  0.00    +0.197 C 
ATOM     21  C   UNL     1     -35.587  23.350   5.195  0.00  0.00    +0.176 C 
ATOM     22  C   UNL     1     -34.244  25.148   4.420  0.00  0.00    +0.269 C 
BRANCH  18  23
ATOM     23  O   UNL     1     -35.731  23.380   1.451  0.00  0.00    -0.379 OA
ATOM     24  H   UNL     1     -36.408  22.687   1.408  0.00  0.00    +0.211 HD
ENDBRANCH  18  23
BRANCH  19  25
ATOM     25  O   UNL     1     -37.147  22.264   3.710  0.00  0.00    -0.379 OA
ATOM     26  H   UNL     1     -37.087  21.348   3.397  0.00  0.00    +0.211 HD
ENDBRANCH  19  25
BRANCH  20  27
ATOM     27  O   UNL     1     -34.495  25.955   2.177  0.00  0.00    -0.378 OA
ATOM     28  H   UNL     1     -33.910  25.869   1.409  0.00  0.00    +0.211 HD
ENDBRANCH  20  27
BRANCH  21  29
ATOM     29  C   UNL     1     -35.579  22.219   6.218  0.00  0.00    +0.169 C 
BRANCH  29  30
ATOM     30  O   UNL     1     -35.282  21.007   5.549  0.00  0.00    -0.379 OA
ATOM     31  H   UNL     1     -35.540  20.257   6.107  0.00  0.00    +0.211 HD
ENDBRANCH  29  30
ENDBRANCH  21  29
ENDBRANCH   1  22
TORSDOF 9
ENDMDL
MODEL 3
REMARK VINA RESULT:      -6.4      4.961      7.862
REMARK  Name = 5288516
REMARK  9 active torsions:
REMARK  status: ('A' for Active; 'I' for Inactive)
REMARK    1  A    between atoms: O_1  and  C_5
REMARK    2  A    between atoms: O_1  and  C_22
REMARK    3  A    between atoms: N_4  and  O_13
REMARK    4  A    between atoms: C_11  and  O_15
REMARK    5  A    between atoms: C_18  and  O_23
REMARK    6  A    between atoms: C_19  and  O_25
REMARK    7  A    between atoms: C_20  and  O_27
REMARK    8  A    between atoms: C_21  and  C_29
REMARK    9  A    between atoms: C_29  and  O_30
REMARK                            x       y       z     vdW  Elec       q    Type
REMARK                         _______ _______ _______ _____ _____    ______ ____
ROOT
ATOM      1  O   UNL     1     -31.628  27.993   3.353  0.00  0.00    -0.286 OA
ENDROOT
BRANCH   1   5
ATOM      2  O   UNL     1     -32.955  26.289   4.226  0.00  0.00    -0.444 OA
ATOM      3  O   UNL     1     -33.740  29.201   2.232  0.00  0.00    -0.266 OA
ATOM      4  N   UNL     1     -35.139  27.555   3.037  0.00  0.00    -0.141 N 
ATOM      5  C   UNL     1     -32.898  27.668   3.905  0.00  0.00    +0.372 C 
ATOM      6  C   UNL     1     -33.950  28.226   2.949  0.00  0.00    +0.323 C 
ATOM      7  C   UNL     1     -34.226  25.810   4.402  0.00  0.00    +0.161 C 
ATOM      8  C   UNL     1     -35.344  26.411   3.814  0.00  0.00    +0.115 C 
ATOM      9  C   UNL     1     -34.363  24.635   5.141  0.00  0.00    +0.075 C 
ATOM     10  C   UNL     1     -36.607  25.833   3.982  0.00  0.00    +0.023 C 
ATOM     11  C   UNL     1     -35.625  24.068   5.315  0.00  0.00    +0.142 C 
ATOM     12  C   UNL     1     -36.745  24.667   4.737  0.00  0.00    +0.038 C 
BRANCH   4  13
ATOM     13  O   UNL     1     -36.224  28.076   2.321  0.00  0.00    -0.287 OA
ATOM     14  H   UNL     1     -36.891  28.408   2.942  0.00  0.00    +0.242 HD
ENDBRANCH   4  13
BRANCH  11  15
ATOM     15  O   UNL     1     -35.764  22.927   6.043  0.00  0.00    -0.471 OA
ATOM     16  C   UNL     1     -35.110  21.759   5.551  0.00  0.00    +0.252 C 
ENDBRANCH  11  15
ENDBRANCH   1   5
BRANCH   1  22
ATOM     17  O   UNL     1     -29.777  27.635   4.729  0.00  0.00    -0.326 OA
ATOM     18  C   UNL     1     -30.768  29.488   6.686  0.00  0.00    +0.172 C 
ATOM     19  C   UNL     1     -29.618  28.524   6.978  0.00  0.00    +0.169 C 
ATOM     20  C   UNL     1     -31.630  28.987   5.528  0.00  0.00    +0.197 C 
ATOM     21  C   UNL     1     -28.867  28.170   5.692  0.00  0.00    +0.176 C 
ATOM     22  C   UNL     1     -30.770  28.578   4.331  0.00  0.00    +0.269 C 
BRANCH  18  23
ATOM     23  O   UNL     1     -31.569  29.589   7.865  0.00  0.00    -0.379 OA
ATOM     24  H   UNL     1     -31.129  29.125   8.595  0.00  0.00    +0.211 HD
ENDBRANCH  18  23
BRANCH  19  25
ATOM     25  O   UNL     1     -28.715  29.133   7.898  0.00  0.00    -0.379 OA
ATOM     26  H   UNL     1     -27.874  29.318   7.451  0.00  0.00    +0.211 HD
ENDBRANCH  19  25
BRANCH  20  27
ATOM     27  O   UNL     1     -32.513  30.028   5.109  0.00  0.00    -0.378 OA
ATOM     28  H   UNL     1     -32.083  30.887   5.239  0.00  0.00    +0.211 HD
ENDBRANCH  20  27
BRANCH  21  29
ATOM     29  C   UNL     1     -27.790  27.119   5.938  0.00  0.00    +0.169 C 
BRANCH  29  30
ATOM     30  O   UNL     1     -28.190  26.309   7.029  0.00  0.00    -0.379 OA
ATOM     31  H   UNL     1     -27.405  25.972   7.487  0.00  0.00    +0.211 HD
ENDBRANCH  29  30
ENDBRANCH  21  29
ENDBRANCH   1  22
TORSDOF 9
ENDMDL
MODEL 4
REMARK VINA RESULT:      -6.3      2.102      2.938
REMARK  Name = 5288516
REMARK  9 active torsions:
REMARK  status: ('A' for Active; 'I' for Inactive)
REMARK    1  A    between atoms: O_1  and  C_5
REMARK    2  A    between atoms: O_1  and  C_22
REMARK    3  A    between atoms: N_4  and  O_13
REMARK    4  A    between atoms: C_11  and  O_15
REMARK    5  A    between atoms: C_18  and  O_23
REMARK    6  A    between atoms: C_19  and  O_25
REMARK    7  A    between atoms: C_20  and  O_27
REMARK    8  A    between atoms: C_21  and  C_29
REMARK    9  A    between atoms: C_29  and  O_30
REMARK                            x       y       z     vdW  Elec       q    Type
REMARK                         _______ _______ _______ _____ _____    ______ ____
ROOT
ATOM      1  O   UNL     1     -35.883  23.231   0.855  0.00  0.00    -0.286 OA
ENDROOT
BRANCH   1   5
ATOM      2  O   UNL     1     -34.062  21.804   0.583  0.00  0.00    -0.444 OA
ATOM      3  O   UNL     1     -37.562  21.180   1.245  0.00  0.00    -0.266 OA
ATOM      4  N   UNL     1     -35.830  19.681   0.975  0.00  0.00    -0.141 N 
ATOM      5  C   UNL     1     -35.286  22.007   1.266  0.00  0.00    +0.372 C 
ATOM      6  C   UNL     1     -36.363  20.930   1.145  0.00  0.00    +0.323 C 
ATOM      7  C   UNL     1     -33.610  20.511   0.620  0.00  0.00    +0.161 C 
ATOM      8  C   UNL     1     -34.467  19.420   0.805  0.00  0.00    +0.115 C 
ATOM      9  C   UNL     1     -32.250  20.308   0.389  0.00  0.00    +0.075 C 
ATOM     10  C   UNL     1     -33.950  18.122   0.769  0.00  0.00    +0.023 C 
ATOM     11  C   UNL     1     -31.736  19.012   0.365  0.00  0.00    +0.142 C 
ATOM     12  C   UNL     1     -32.585  17.921   0.556  0.00  0.00    +0.038 C 
BRANCH   4  13
ATOM     13  O   UNL     1     -36.716  18.596   1.008  0.00  0.00    -0.287 OA
ATOM     14  H   UNL     1     -37.602  18.894   0.748  0.00  0.00    +0.242 HD
ENDBRANCH   4  13
BRANCH  11  15
ATOM     15  O   UNL     1     -30.408  18.811   0.148  0.00  0.00    -0.471 OA
ATOM     16  C   UNL     1     -29.804  17.697   0.804  0.00  0.00    +0.252 C 
ENDBRANCH  11  15
ENDBRANCH   1   5
BRANCH   1  22
ATOM     17  O   UNL     1     -35.486  23.595   3.126  0.00  0.00    -0.326 OA
ATOM     18  C   UNL     1     -37.216  25.887   3.148  0.00  0.00    +0.172 C 
ATOM     19  C   UNL     1     -36.714  25.227   4.432  0.00  0.00    +0.169 C 
ATOM     20  C   UNL     1     -37.164  24.916   1.968  0.00  0.00    +0.197 C 
ATOM     21  C   UNL     1     -35.369  24.535   4.196  0.00  0.00    +0.176 C 
ATOM     22  C   UNL     1     -35.806  24.217   1.884  0.00  0.00    +0.269 C 
BRANCH  18  23
ATOM     23  O   UNL     1     -38.567  26.301   3.363  0.00  0.00    -0.379 OA
ATOM     24  H   UNL     1     -38.654  27.242   3.148  0.00  0.00    +0.211 HD
ENDBRANCH  18  23
BRANCH  19  25
ATOM     25  O   UNL     1     -36.561  26.220   5.444  0.00  0.00    -0.379 OA
ATOM     26  H   UNL     1     -35.806  26.788   5.228  0.00  0.00    +0.211 HD
ENDBRANCH  19  25
BRANCH  20  27
ATOM     27  O   UNL     1     -37.373  25.635   0.753  0.00  0.00    -0.378 OA
ATOM     28  H   UNL     1     -36.665  25.422   0.126  0.00  0.00    +0.211 HD
ENDBRANCH  20  27
BRANCH  21  29
ATOM     29  C   UNL     1     -34.904  23.769   5.431  0.00  0.00    +0.169 C 
BRANCH  29  30
ATOM     30  O   UNL     1     -36.011  23.072   5.972  0.00  0.00    -0.379 OA
ATOM     31  H   UNL     1     -35.763  22.148   6.135  0.00  0.00    +0.211 HD
ENDBRANCH  29  30
ENDBRANCH  21  29
ENDBRANCH   1  22
TORSDOF 9
ENDMDL
MODEL 5
REMARK VINA RESULT:      -6.2      1.504      2.113
REMARK  Name = 5288516
REMARK  9 active torsions:
REMARK  status: ('A' for Active; 'I' for Inactive)
REMARK    1  A    between atoms: O_1  and  C_5
REMARK    2  A    between atoms: O_1  and  C_22
REMARK    3  A    between atoms: N_4  and  O_13
REMARK    4  A    between atoms: C_11  and  O_15
REMARK    5  A    between atoms: C_18  and  O_23
REMARK    6  A    between atoms: C_19  and  O_25
REMARK    7  A    between atoms: C_20  and  O_27
REMARK    8  A    between atoms: C_21  and  C_29
REMARK    9  A    between atoms: C_29  and  O_30
REMARK                            x       y       z     vdW  Elec       q    Type
REMARK                         _______ _______ _______ _____ _____    ______ ____
ROOT
ATOM      1  O   UNL     1     -37.128  22.139   1.641  0.00  0.00    -0.286 OA
ENDROOT
BRANCH   1   5
ATOM      2  O   UNL     1     -35.259  20.750   1.568  0.00  0.00    -0.444 OA
ATOM      3  O   UNL     1     -38.548  20.478   0.091  0.00  0.00    -0.266 OA
ATOM      4  N   UNL     1     -36.750  19.043  -0.059  0.00  0.00    -0.141 N 
ATOM      5  C   UNL     1     -36.675  20.791   1.592  0.00  0.00    +0.372 C 
ATOM      6  C   UNL     1     -37.432  20.113   0.452  0.00  0.00    +0.323 C 
ATOM      7  C   UNL     1     -34.743  19.553   1.146  0.00  0.00    +0.161 C 
ATOM      8  C   UNL     1     -35.456  18.676   0.322  0.00  0.00    +0.115 C 
ATOM      9  C   UNL     1     -33.428  19.266   1.512  0.00  0.00    +0.075 C 
ATOM     10  C   UNL     1     -34.847  17.499  -0.125  0.00  0.00    +0.023 C 
ATOM     11  C   UNL     1     -32.828  18.086   1.073  0.00  0.00    +0.142 C 
ATOM     12  C   UNL     1     -33.536  17.204   0.257  0.00  0.00    +0.038 C 
BRANCH   4  13
ATOM     13  O   UNL     1     -37.416  18.250  -1.004  0.00  0.00    -0.287 OA
ATOM     14  H   UNL     1     -38.373  18.368  -0.907  0.00  0.00    +0.242 HD
ENDBRANCH   4  13
BRANCH  11  15
ATOM     15  O   UNL     1     -31.548  17.799   1.435  0.00  0.00    -0.471 OA
ATOM     16  C   UNL     1     -30.654  17.398   0.398  0.00  0.00    +0.252 C 
ENDBRANCH  11  15
ENDBRANCH   1   5
BRANCH   1  22
ATOM     17  O   UNL     1     -36.267  22.270   3.806  0.00  0.00    -0.326 OA
ATOM     18  C   UNL     1     -36.303  25.140   3.738  0.00  0.00    +0.172 C 
ATOM     19  C   UNL     1     -36.101  24.354   5.033  0.00  0.00    +0.169 C 
ATOM     20  C   UNL     1     -37.002  24.290   2.677  0.00  0.00    +0.197 C 
ATOM     21  C   UNL     1     -35.467  22.990   4.746  0.00  0.00    +0.176 C 
ATOM     22  C   UNL     1     -36.340  22.919   2.539  0.00  0.00    +0.269 C 
BRANCH  18  23
ATOM     23  O   UNL     1     -37.108  26.283   4.037  0.00  0.00    -0.379 OA
ATOM     24  H   UNL     1     -36.843  26.648   4.896  0.00  0.00    +0.211 HD
ENDBRANCH  18  23
BRANCH  19  25
ATOM     25  O   UNL     1     -35.251  25.094   5.906  0.00  0.00    -0.379 OA
ATOM     26  H   UNL     1     -35.762  25.401   6.671  0.00  0.00    +0.211 HD
ENDBRANCH  19  25
BRANCH  20  27
ATOM     27  O   UNL     1     -36.927  24.952   1.414  0.00  0.00    -0.378 OA
ATOM     28  H   UNL     1     -36.625  25.864   1.546  0.00  0.00    +0.211 HD
ENDBRANCH  20  27
BRANCH  21  29
ATOM     29  C   UNL     1     -35.363  22.140   6.008  0.00  0.00    +0.169 C 
BRANCH  29  30
ATOM     30  O   UNL     1     -35.330  20.775   5.630  0.00  0.00    -0.379 OA
ATOM     31  H   UNL     1     -36.069  20.306   6.046  0.00  0.00    +0.211 HD
ENDBRANCH  29  30
ENDBRANCH  21  29
ENDBRANCH   1  22
TORSDOF 9
ENDMDL
MODEL 6
REMARK VINA RESULT:      -6.1      2.614      3.675
REMARK  Name = 5288516
REMARK  9 active torsions:
REMARK  status: ('A' for Active; 'I' for Inactive)
REMARK    1  A    between atoms: O_1  and  C_5
REMARK    2  A    between atoms: O_1  and  C_22
REMARK    3  A    between atoms: N_4  and  O_13
REMARK    4  A    between atoms: C_11  and  O_15
REMARK    5  A    between atoms: C_18  and  O_23
REMARK    6  A    between atoms: C_19  and  O_25
REMARK    7  A    between atoms: C_20  and  O_27
REMARK    8  A    between atoms: C_21  and  C_29
REMARK    9  A    between atoms: C_29  and  O_30
REMARK                            x       y       z     vdW  Elec       q    Type
REMARK                         _______ _______ _______ _____ _____    ______ ____
ROOT
ATOM      1  O   UNL     1     -36.346  24.390   1.623  0.00  0.00    -0.286 OA
ENDROOT
BRANCH   1   5
ATOM      2  O   UNL     1     -34.683  22.963   0.833  0.00  0.00    -0.444 OA
ATOM      3  O   UNL     1     -37.574  22.401   2.932  0.00  0.00    -0.266 OA
ATOM      4  N   UNL     1     -35.987  20.902   2.189  0.00  0.00    -0.141 N 
ATOM      5  C   UNL     1     -35.546  23.252   1.918  0.00  0.00    +0.372 C 
ATOM      6  C   UNL     1     -36.498  22.155   2.390  0.00  0.00    +0.323 C 
ATOM      7  C   UNL     1     -34.160  21.697   0.858  0.00  0.00    +0.161 C 
ATOM      8  C   UNL     1     -34.789  20.636   1.519  0.00  0.00    +0.115 C 
ATOM      9  C   UNL     1     -32.993  21.479   0.125  0.00  0.00    +0.075 C 
ATOM     10  C   UNL     1     -34.234  19.355   1.452  0.00  0.00    +0.023 C 
ATOM     11  C   UNL     1     -32.437  20.202   0.071  0.00  0.00    +0.142 C 
ATOM     12  C   UNL     1     -33.055  19.142   0.734  0.00  0.00    +0.038 C 
BRANCH   4  13
ATOM     13  O   UNL     1     -36.703  19.823   2.724  0.00  0.00    -0.287 OA
ATOM     14  H   UNL     1     -36.790  19.129   2.053  0.00  0.00    +0.242 HD
ENDBRANCH   4  13
BRANCH  11  15
ATOM     15  O   UNL     1     -31.293  19.988  -0.636  0.00  0.00    -0.471 OA
ATOM     16  C   UNL     1     -30.337  19.094  -0.068  0.00  0.00    +0.252 C 
ENDBRANCH  11  15
ENDBRANCH   1   5
BRANCH   1  22
ATOM     17  O   UNL     1     -34.469  25.743   1.925  0.00  0.00    -0.326 OA
ATOM     18  C   UNL     1     -35.347  26.521   4.547  0.00  0.00    +0.172 C 
ATOM     19  C   UNL     1     -33.929  26.791   4.043  0.00  0.00    +0.169 C 
ATOM     20  C   UNL     1     -36.000  25.375   3.774  0.00  0.00    +0.197 C 
ATOM     21  C   UNL     1     -33.909  26.917   2.518  0.00  0.00    +0.176 C 
ATOM     22  C   UNL     1     -35.842  25.561   2.265  0.00  0.00    +0.269 C 
BRANCH  18  23
ATOM     23  O   UNL     1     -35.265  26.176   5.931  0.00  0.00    -0.379 OA
ATOM     24  H   UNL     1     -35.857  25.429   6.113  0.00  0.00    +0.211 HD
ENDBRANCH  18  23
BRANCH  19  25
ATOM     25  O   UNL     1     -33.446  28.001   4.622  0.00  0.00    -0.379 OA
ATOM     26  H   UNL     1     -33.974  28.747   4.299  0.00  0.00    +0.211 HD
ENDBRANCH  19  25
BRANCH  20  27
ATOM     27  O   UNL     1     -37.395  25.334   4.076  0.00  0.00    -0.378 OA
ATOM     28  H   UNL     1     -37.635  24.441   4.368  0.00  0.00    +0.211 HD
ENDBRANCH  20  27
BRANCH  21  29
ATOM     29  C   UNL     1     -32.489  27.070   1.982  0.00  0.00    +0.169 C 
BRANCH  29  30
ATOM     30  O   UNL     1     -31.601  26.405   2.862  0.00  0.00    -0.379 OA
ATOM     31  H   UNL     1     -30.697  26.470   2.519  0.00  0.00    +0.211 HD
ENDBRANCH  29  30
ENDBRANCH  21  29
ENDBRANCH   1  22
TORSDOF 9
ENDMDL
MODEL 7
REMARK VINA RESULT:      -6.1      2.153      2.758
REMARK  Name = 5288516
REMARK  9 active torsions:
REMARK  status: ('A' for Active; 'I' for Inactive)
REMARK    1  A    between atoms: O_1  and  C_5
REMARK    2  A    between atoms: O_1  and  C_22
REMARK    3  A    between atoms: N_4  and  O_13
REMARK    4  A    between atoms: C_11  and  O_15
REMARK    5  A    between atoms: C_18  and  O_23
REMARK    6  A    between atoms: C_19  and  O_25
REMARK    7  A    between atoms: C_20  and  O_27
REMARK    8  A    between atoms: C_21  and  C_29
REMARK    9  A    between atoms: C_29  and  O_30
REMARK                            x       y       z     vdW  Elec       q    Type
REMARK                         _______ _______ _______ _____ _____    ______ ____
ROOT
ATOM      1  O   UNL     1     -38.928  24.491   3.650  0.00  0.00    -0.286 OA
ENDROOT
BRANCH   1   5
ATOM      2  O   UNL     1     -38.546  22.645   2.282  0.00  0.00    -0.444 OA
ATOM      3  O   UNL     1     -40.298  25.759   1.729  0.00  0.00    -0.266 OA
ATOM      4  N   UNL     1     -39.962  23.990   0.289  0.00  0.00    -0.141 N 
ATOM      5  C   UNL     1     -39.465  23.669   2.621  0.00  0.00    +0.372 C 
ATOM      6  C   UNL     1     -39.938  24.605   1.511  0.00  0.00    +0.323 C 
ATOM      7  C   UNL     1     -38.796  22.049   1.074  0.00  0.00    +0.161 C 
ATOM      8  C   UNL     1     -39.494  22.695   0.047  0.00  0.00    +0.115 C 
ATOM      9  C   UNL     1     -38.257  20.779   0.870  0.00  0.00    +0.075 C 
ATOM     10  C   UNL     1     -39.659  22.054  -1.184  0.00  0.00    +0.023 C 
ATOM     11  C   UNL     1     -38.433  20.139  -0.356  0.00  0.00    +0.142 C 
ATOM     12  C   UNL     1     -39.135  20.775  -1.381  0.00  0.00    +0.038 C 
BRANCH   4  13
ATOM     13  O   UNL     1     -40.527  24.703  -0.777  0.00  0.00    -0.287 OA
ATOM     14  H   UNL     1     -40.591  25.641  -0.540  0.00  0.00    +0.242 HD
ENDBRANCH   4  13
BRANCH  11  15
ATOM     15  O   UNL     1     -37.916  18.896  -0.556  0.00  0.00    -0.471 OA
ATOM     16  C   UNL     1     -38.787  17.911  -1.109  0.00  0.00    +0.252 C 
ENDBRANCH  11  15
ENDBRANCH   1   5
BRANCH   1  22
ATOM     17  O   UNL     1     -36.930  23.757   4.609  0.00  0.00    -0.326 OA
ATOM     18  C   UNL     1     -35.570  26.159   3.816  0.00  0.00    +0.172 C 
ATOM     19  C   UNL     1     -34.975  25.174   4.822  0.00  0.00    +0.169 C 
ATOM     20  C   UNL     1     -37.090  26.018   3.735  0.00  0.00    +0.197 C 
ATOM     21  C   UNL     1     -35.502  23.759   4.572  0.00  0.00    +0.176 C 
ATOM     22  C   UNL     1     -37.504  24.555   3.575  0.00  0.00    +0.269 C 
BRANCH  18  23
ATOM     23  O   UNL     1     -35.237  27.481   4.243  0.00  0.00    -0.379 OA
ATOM     24  H   UNL     1     -34.949  28.005   3.479  0.00  0.00    +0.211 HD
ENDBRANCH  18  23
BRANCH  19  25
ATOM     25  O   UNL     1     -33.554  25.175   4.700  0.00  0.00    -0.379 OA
ATOM     26  H   UNL     1     -33.309  25.023   3.774  0.00  0.00    +0.211 HD
ENDBRANCH  19  25
BRANCH  20  27
ATOM     27  O   UNL     1     -37.574  26.746   2.606  0.00  0.00    -0.378 OA
ATOM     28  H   UNL     1     -36.948  26.654   1.871  0.00  0.00    +0.211 HD
ENDBRANCH  20  27
BRANCH  21  29
ATOM     29  C   UNL     1     -35.015  22.779   5.635  0.00  0.00    +0.169 C 
BRANCH  29  30
ATOM     30  O   UNL     1     -36.122  22.025   6.094  0.00  0.00    -0.379 OA
ATOM     31  H   UNL     1     -35.834  21.425   6.800  0.00  0.00    +0.211 HD
ENDBRANCH  29  30
ENDBRANCH  21  29
ENDBRANCH   1  22
TORSDOF 9
ENDMDL
MODEL 8
REMARK VINA RESULT:      -6.1      3.198      7.621
REMARK  Name = 5288516
REMARK  9 active torsions:
REMARK  status: ('A' for Active; 'I' for Inactive)
REMARK    1  A    between atoms: O_1  and  C_5
REMARK    2  A    between atoms: O_1  and  C_22
REMARK    3  A    between atoms: N_4  and  O_13
REMARK    4  A    between atoms: C_11  and  O_15
REMARK    5  A    between atoms: C_18  and  O_23
REMARK    6  A    between atoms: C_19  and  O_25
REMARK    7  A    between atoms: C_20  and  O_27
REMARK    8  A    between atoms: C_21  and  C_29
REMARK    9  A    between atoms: C_29  and  O_30
REMARK                            x       y       z     vdW  Elec       q    Type
REMARK                         _______ _______ _______ _____ _____    ______ ____
ROOT
ATOM      1  O   UNL     1     -36.856  24.628   4.782  0.00  0.00    -0.286 OA
ENDROOT
BRANCH   1   5
ATOM      2  O   UNL     1     -36.574  26.247   3.131  0.00  0.00    -0.444 OA
ATOM      3  O   UNL     1     -34.510  25.240   5.924  0.00  0.00    -0.266 OA
ATOM      4  N   UNL     1     -34.128  26.857   4.325  0.00  0.00    -0.141 N 
ATOM      5  C   UNL     1     -36.337  25.920   4.489  0.00  0.00    +0.372 C 
ATOM      6  C   UNL     1     -34.895  25.941   4.991  0.00  0.00    +0.323 C 
ATOM      7  C   UNL     1     -35.800  27.275   2.661  0.00  0.00    +0.161 C 
ATOM      8  C   UNL     1     -34.564  27.605   3.228  0.00  0.00    +0.115 C 
ATOM      9  C   UNL     1     -36.261  27.950   1.531  0.00  0.00    +0.075 C 
ATOM     10  C   UNL     1     -33.795  28.626   2.660  0.00  0.00    +0.023 C 
ATOM     11  C   UNL     1     -35.496  28.974   0.975  0.00  0.00    +0.142 C 
ATOM     12  C   UNL     1     -34.266  29.312   1.539  0.00  0.00    +0.038 C 
BRANCH   4  13
ATOM     13  O   UNL     1     -32.829  27.075   4.804  0.00  0.00    -0.287 OA
ATOM     14  H   UNL     1     -32.237  26.392   4.455  0.00  0.00    +0.242 HD
ENDBRANCH   4  13
BRANCH  11  15
ATOM     15  O   UNL     1     -35.946  29.640  -0.123  0.00  0.00    -0.471 OA
ATOM     16  C   UNL     1     -37.286  30.128  -0.083  0.00  0.00    +0.252 C 
ENDBRANCH  11  15
ENDBRANCH   1   5
BRANCH   1  22
ATOM     17  O   UNL     1     -38.230  23.458   3.304  0.00  0.00    -0.326 OA
ATOM     18  C   UNL     1     -36.164  21.536   2.771  0.00  0.00    +0.172 C 
ATOM     19  C   UNL     1     -37.617  21.313   2.354  0.00  0.00    +0.169 C 
ATOM     20  C   UNL     1     -36.063  22.546   3.914  0.00  0.00    +0.197 C 
ATOM     21  C   UNL     1     -38.329  22.650   2.129  0.00  0.00    +0.176 C 
ATOM     22  C   UNL     1     -36.883  23.802   3.619  0.00  0.00    +0.269 C 
BRANCH  18  23
ATOM     23  O   UNL     1     -35.629  20.281   3.196  0.00  0.00    -0.379 OA
ATOM     24  H   UNL     1     -36.119  19.969   3.973  0.00  0.00    +0.211 HD
ENDBRANCH  18  23
BRANCH  19  25
ATOM     25  O   UNL     1     -37.652  20.553   1.149  0.00  0.00    -0.379 OA
ATOM     26  H   UNL     1     -37.625  21.153   0.388  0.00  0.00    +0.211 HD
ENDBRANCH  19  25
BRANCH  20  27
ATOM     27  O   UNL     1     -34.700  22.932   4.087  0.00  0.00    -0.378 OA
ATOM     28  H   UNL     1     -34.567  23.820   3.722  0.00  0.00    +0.211 HD
ENDBRANCH  20  27
BRANCH  21  29
ATOM     29  C   UNL     1     -39.811  22.457   1.828  0.00  0.00    +0.169 C 
BRANCH  29  30
ATOM     30  O   UNL     1     -40.173  21.133   2.174  0.00  0.00    -0.379 OA
ATOM     31  H   UNL     1     -40.825  21.153   2.892  0.00  0.00    +0.211 HD
ENDBRANCH  29  30
ENDBRANCH  21  29
ENDBRANCH   1  22
TORSDOF 9
ENDMDL
MODEL 9
REMARK VINA RESULT:      -6.1      1.647      2.229
REMARK  Name = 5288516
REMARK  9 active torsions:
REMARK  status: ('A' for Active; 'I' for Inactive)
REMARK    1  A    between atoms: O_1  and  C_5
REMARK    2  A    between atoms: O_1  and  C_22
REMARK    3  A    between atoms: N_4  and  O_13
REMARK    4  A    between atoms: C_11  and  O_15
REMARK    5  A    between atoms: C_18  and  O_23
REMARK    6  A    between atoms: C_19  and  O_25
REMARK    7  A    between atoms: C_20  and  O_27
REMARK    8  A    between atoms: C_21  and  C_29
REMARK    9  A    between atoms: C_29  and  O_30
REMARK                            x       y       z     vdW  Elec       q    Type
REMARK                         _______ _______ _______ _____ _____    ______ ____
ROOT
ATOM      1  O   UNL     1     -37.998  23.774   3.278  0.00  0.00    -0.286 OA
ENDROOT
BRANCH   1   5
ATOM      2  O   UNL     1     -36.333  22.319   2.544  0.00  0.00    -0.444 OA
ATOM      3  O   UNL     1     -39.908  22.393   2.004  0.00  0.00    -0.266 OA
ATOM      4  N   UNL     1     -38.336  20.905   1.211  0.00  0.00    -0.141 N 
ATOM      5  C   UNL     1     -37.684  22.423   2.959  0.00  0.00    +0.372 C 
ATOM      6  C   UNL     1     -38.769  21.933   2.003  0.00  0.00    +0.323 C 
ATOM      7  C   UNL     1     -36.046  21.163   1.868  0.00  0.00    +0.161 C 
ATOM      8  C   UNL     1     -37.020  20.432   1.180  0.00  0.00    +0.115 C 
ATOM      9  C   UNL     1     -34.708  20.769   1.826  0.00  0.00    +0.075 C 
ATOM     10  C   UNL     1     -36.648  19.294   0.457  0.00  0.00    +0.023 C 
ATOM     11  C   UNL     1     -34.343  19.628   1.113  0.00  0.00    +0.142 C 
ATOM     12  C   UNL     1     -35.312  18.891   0.431  0.00  0.00    +0.038 C 
BRANCH   4  13
ATOM     13  O   UNL     1     -39.290  20.271   0.404  0.00  0.00    -0.287 OA
ATOM     14  H   UNL     1     -39.800  19.644   0.939  0.00  0.00    +0.242 HD
ENDBRANCH   4  13
BRANCH  11  15
ATOM     15  O   UNL     1     -33.040  19.236   1.076  0.00  0.00    -0.471 OA
ATOM     16  C   UNL     1     -32.785  17.840   0.932  0.00  0.00    +0.252 C 
ENDBRANCH  11  15
ENDBRANCH   1   5
BRANCH   1  22
ATOM     17  O   UNL     1     -36.324  24.932   4.420  0.00  0.00    -0.326 OA
ATOM     18  C   UNL     1     -36.176  26.922   2.355  0.00  0.00    +0.172 C 
ATOM     19  C   UNL     1     -35.522  27.111   3.724  0.00  0.00    +0.169 C 
ATOM     20  C   UNL     1     -37.305  25.895   2.417  0.00  0.00    +0.197 C 
ATOM     21  C   UNL     1     -35.161  25.759   4.343  0.00  0.00    +0.176 C 
ATOM     22  C   UNL     1     -36.858  24.621   3.135  0.00  0.00    +0.269 C 
BRANCH  18  23
ATOM     23  O   UNL     1     -36.703  28.184   1.941  0.00  0.00    -0.379 OA
ATOM     24  H   UNL     1     -36.886  28.161   0.988  0.00  0.00    +0.211 HD
ENDBRANCH  18  23
BRANCH  19  25
ATOM     25  O   UNL     1     -34.339  27.893   3.577  0.00  0.00    -0.379 OA
ATOM     26  H   UNL     1     -34.464  28.538   2.865  0.00  0.00    +0.211 HD
ENDBRANCH  19  25
BRANCH  20  27
ATOM     27  O   UNL     1     -37.702  25.545   1.091  0.00  0.00    -0.378 OA
ATOM     28  H   UNL     1     -36.960  25.688   0.484  0.00  0.00    +0.211 HD
ENDBRANCH  20  27
BRANCH  21  29
ATOM     29  C   UNL     1     -34.615  25.914   5.759  0.00  0.00    +0.169 C 
BRANCH  29  30
ATOM     30  O   UNL     1     -33.258  26.314   5.678  0.00  0.00    -0.379 OA
ATOM     31  H   UNL     1     -32.693  25.529   5.618  0.00  0.00    +0.211 HD
ENDBRANCH  29  30
ENDBRANCH  21  29
ENDBRANCH   1  22
TORSDOF 9
ENDMDL
