MODEL 1
REMARK VINA RESULT:      -6.4      0.000      0.000
REMARK  Name = 196632
REMARK  6 active torsions:
REMARK  status: ('A' for Active; 'I' for Inactive)
REMARK    1  A    between atoms: C_1  and  O_2
REMARK    2  A    between atoms: C_1  and  C_6
REMARK    3  A    between atoms: C_1  and  C_16
REMARK    4  A    between atoms: O_2  and  C_4
REMARK    5  A    between atoms: C_6  and  N_7
REMARK    6  A    between atoms: C_16  and  N_17
REMARK                            x       y       z     vdW  Elec       q    Type
REMARK                         _______ _______ _______ _____ _____    ______ ____
ROOT
ATOM      1  C   UNL     1     -35.437  23.671   3.912  0.00  0.00    +0.208 C 
ENDROOT
BRANCH   1   2
ATOM      2  O   UNL     1     -36.193  22.646   4.561  0.00  0.00    -0.449 OA
BRANCH   2   4
ATOM      3  O   UNL     1     -35.025  20.681   4.895  0.00  0.00    -0.250 OA
ATOM      4  C   UNL     1     -35.466  21.753   5.291  0.00  0.00    +0.318 C 
ATOM      5  C   UNL     1     -35.273  22.276   6.682  0.00  0.00    +0.121 C 
ENDBRANCH   2   4
ENDBRANCH   1   2
BRANCH   1   6
ATOM      6  C   UNL     1     -35.474  23.437   2.398  0.00  0.00    +0.139 C 
BRANCH   6   7
ATOM      7  N   UNL     1     -36.640  22.657   1.983  0.00  0.00    -0.275 N 
ATOM      8  N   UNL     1     -37.854  20.951   1.298  0.00  0.00    -0.370 NA
ATOM      9  C   UNL     1     -36.643  21.352   1.613  0.00  0.00    +0.163 C 
ATOM     10  C   UNL     1     -37.906  23.134   1.906  0.00  0.00    +0.178 C 
ATOM     11  C   UNL     1     -38.647  22.057   1.478  0.00  0.00    +0.271 C 
ATOM     12  C   UNL     1     -35.419  20.526   1.583  0.00  0.00    +0.084 C 
ATOM     13  O   UNL     1     -40.741  23.008   1.397  0.00  0.00    -0.124 OA
ATOM     14  O   UNL     1     -40.526  20.894   0.835  0.00  0.00    -0.124 OA
ATOM     15  N   UNL     1     -40.023  21.984   1.227  0.00  0.00    +0.085 N 
ENDBRANCH   6   7
ENDBRANCH   1   6
BRANCH   1  16
ATOM     16  C   UNL     1     -36.039  25.037   4.264  0.00  0.00    +0.139 C 
BRANCH  16  17
ATOM     17  N   UNL     1     -35.029  26.094   4.312  0.00  0.00    -0.275 N 
ATOM     18  N   UNL     1     -33.901  27.906   3.771  0.00  0.00    -0.370 NA
ATOM     19  C   UNL     1     -34.914  27.134   3.450  0.00  0.00    +0.163 C 
ATOM     20  C   UNL     1     -34.047  26.188   5.242  0.00  0.00    +0.178 C 
ATOM     21  C   UNL     1     -33.356  27.323   4.887  0.00  0.00    +0.271 C 
ATOM     22  C   UNL     1     -35.831  27.333   2.308  0.00  0.00    +0.084 C 
ATOM     23  O   UNL     1     -31.746  27.351   6.532  0.00  0.00    -0.124 OA
ATOM     24  O   UNL     1     -31.737  28.953   5.026  0.00  0.00    -0.124 OA
ATOM     25  N   UNL     1     -32.239  27.898   5.505  0.00  0.00    +0.085 N 
ENDBRANCH  16  17
ENDBRANCH   1  16
TORSDOF 6
ENDMDL
MODEL 2
REMARK VINA RESULT:      -6.3      2.163      6.920
REMARK  Name = 196632
REMARK  6 active torsions:
REMARK  status: ('A' for Active; 'I' for Inactive)
REMARK    1  A    between atoms: C_1  and  O_2
REMARK    2  A    between atoms: C_1  and  C_6
REMARK    3  A    between atoms: C_1  and  C_16
REMARK    4  A    between atoms: O_2  and  C_4
REMARK    5  A    between atoms: C_6  and  N_7
REMARK    6  A    between atoms: C_16  and  N_17
REMARK                            x       y       z     vdW  Elec       q    Type
REMARK                         _______ _______ _______ _____ _____    ______ ____
ROOT
ATOM      1  C   UNL     1     -34.773  24.453   3.320  0.00  0.00    +0.208 C 
ENDROOT
BRANCH   1   2
ATOM      2  O   UNL     1     -34.489  23.657   4.472  0.00  0.00    -0.449 OA
BRANCH   2   4
ATOM      3  O   UNL     1     -36.411  24.348   5.553  0.00  0.00    -0.250 OA
ATOM      4  C   UNL     1     -35.506  23.542   5.373  0.00  0.00    +0.318 C 
ATOM      5  C   UNL     1     -35.363  22.259   6.134  0.00  0.00    +0.121 C 
ENDBRANCH   2   4
ENDBRANCH   1   2
BRANCH   1   6
ATOM      6  C   UNL     1     -33.633  25.454   3.107  0.00  0.00    +0.139 C 
BRANCH   6   7
ATOM      7  N   UNL     1     -34.115  26.829   2.980  0.00  0.00    -0.275 N 
ATOM      8  N   UNL     1     -34.286  29.002   3.299  0.00  0.00    -0.370 NA
ATOM      9  C   UNL     1     -33.632  27.912   3.637  0.00  0.00    +0.163 C 
ATOM     10  C   UNL     1     -35.131  27.224   2.176  0.00  0.00    +0.178 C 
ATOM     11  C   UNL     1     -35.222  28.580   2.388  0.00  0.00    +0.271 C 
ATOM     12  C   UNL     1     -32.515  27.833   4.600  0.00  0.00    +0.084 C 
ATOM     13  O   UNL     1     -36.962  29.100   0.975  0.00  0.00    -0.124 OA
ATOM     14  O   UNL     1     -36.034  30.719   2.138  0.00  0.00    -0.124 OA
ATOM     15  N   UNL     1     -36.106  29.501   1.812  0.00  0.00    +0.085 N 
ENDBRANCH   6   7
ENDBRANCH   1   6
BRANCH   1  16
ATOM     16  C   UNL     1     -34.922  23.533   2.101  0.00  0.00    +0.139 C 
BRANCH  16  17
ATOM     17  N   UNL     1     -36.177  22.783   2.120  0.00  0.00    -0.275 N 
ATOM     18  N   UNL     1     -37.570  21.078   2.205  0.00  0.00    -0.370 NA
ATOM     19  C   UNL     1     -36.305  21.436   2.217  0.00  0.00    +0.163 C 
ATOM     20  C   UNL     1     -37.413  23.334   2.042  0.00  0.00    +0.178 C 
ATOM     21  C   UNL     1     -38.266  22.256   2.096  0.00  0.00    +0.271 C 
ATOM     22  C   UNL     1     -35.146  20.527   2.318  0.00  0.00    +0.084 C 
ATOM     23  O   UNL     1     -40.294  23.333   1.955  0.00  0.00    -0.124 OA
ATOM     24  O   UNL     1     -40.279  21.141   2.119  0.00  0.00    -0.124 OA
ATOM     25  N   UNL     1     -39.665  22.243   2.056  0.00  0.00    +0.085 N 
ENDBRANCH  16  17
ENDBRANCH   1  16
TORSDOF 6
ENDMDL
MODEL 3
REMARK VINA RESULT:      -6.2      1.872      2.889
REMARK  Name = 196632
REMARK  6 active torsions:
REMARK  status: ('A' for Active; 'I' for Inactive)
REMARK    1  A    between atoms: C_1  and  O_2
REMARK    2  A    between atoms: C_1  and  C_6
REMARK    3  A    between atoms: C_1  and  C_16
REMARK    4  A    between atoms: O_2  and  C_4
REMARK    5  A    between atoms: C_6  and  N_7
REMARK    6  A    between atoms: C_16  and  N_17
REMARK                            x       y       z     vdW  Elec       q    Type
REMARK                         _______ _______ _______ _____ _____    ______ ____
ROOT
ATOM      1  C   UNL     1     -35.943  23.664   3.672  0.00  0.00    +0.208 C 
ENDROOT
BRANCH   1   2
ATOM      2  O   UNL     1     -36.488  22.638   4.503  0.00  0.00    -0.449 OA
BRANCH   2   4
ATOM      3  O   UNL     1     -35.074  20.831   4.777  0.00  0.00    -0.250 OA
ATOM      4  C   UNL     1     -35.576  21.876   5.172  0.00  0.00    +0.318 C 
ATOM      5  C   UNL     1     -35.262  22.510   6.493  0.00  0.00    +0.121 C 
ENDBRANCH   2   4
ENDBRANCH   1   2
BRANCH   1   6
ATOM      6  C   UNL     1     -36.386  23.424   2.224  0.00  0.00    +0.139 C 
BRANCH   6   7
ATOM      7  N   UNL     1     -36.046  22.081   1.753  0.00  0.00    -0.275 N 
ATOM      8  N   UNL     1     -36.293  20.004   1.065  0.00  0.00    -0.370 NA
ATOM      9  C   UNL     1     -36.922  21.087   1.463  0.00  0.00    +0.163 C 
ATOM     10  C   UNL     1     -34.787  21.630   1.536  0.00  0.00    +0.178 C 
ATOM     11  C   UNL     1     -34.962  20.335   1.108  0.00  0.00    +0.271 C 
ATOM     12  C   UNL     1     -38.384  21.245   1.593  0.00  0.00    +0.084 C 
ATOM     13  O   UNL     1     -32.770  19.711   0.784  0.00  0.00    -0.124 OA
ATOM     14  O   UNL     1     -34.352  18.242   0.370  0.00  0.00    -0.124 OA
ATOM     15  N   UNL     1     -33.992  19.394   0.740  0.00  0.00    +0.085 N 
ENDBRANCH   6   7
ENDBRANCH   1   6
BRANCH   1  16
ATOM     16  C   UNL     1     -36.436  25.027   4.170  0.00  0.00    +0.139 C 
BRANCH  16  17
ATOM     17  N   UNL     1     -35.354  26.004   4.282  0.00  0.00    -0.275 N 
ATOM     18  N   UNL     1     -34.055  27.719   3.808  0.00  0.00    -0.370 NA
ATOM     19  C   UNL     1     -35.101  27.024   3.424  0.00  0.00    +0.163 C 
ATOM     20  C   UNL     1     -34.432  26.033   5.275  0.00  0.00    +0.178 C 
ATOM     21  C   UNL     1     -33.632  27.107   4.962  0.00  0.00    +0.271 C 
ATOM     22  C   UNL     1     -35.921  27.281   2.222  0.00  0.00    +0.084 C 
ATOM     23  O   UNL     1     -32.139  27.028   6.712  0.00  0.00    -0.124 OA
ATOM     24  O   UNL     1     -31.906  28.610   5.202  0.00  0.00    -0.124 OA
ATOM     25  N   UNL     1     -32.518  27.601   5.651  0.00  0.00    +0.085 N 
ENDBRANCH  16  17
ENDBRANCH   1  16
TORSDOF 6
ENDMDL
MODEL 4
REMARK VINA RESULT:      -6.2      1.382      7.623
REMARK  Name = 196632
REMARK  6 active torsions:
REMARK  status: ('A' for Active; 'I' for Inactive)
REMARK    1  A    between atoms: C_1  and  O_2
REMARK    2  A    between atoms: C_1  and  C_6
REMARK    3  A    between atoms: C_1  and  C_16
REMARK    4  A    between atoms: O_2  and  C_4
REMARK    5  A    between atoms: C_6  and  N_7
REMARK    6  A    between atoms: C_16  and  N_17
REMARK                            x       y       z     vdW  Elec       q    Type
REMARK                         _______ _______ _______ _____ _____    ______ ____
ROOT
ATOM      1  C   UNL     1     -35.032  24.614   2.674  0.00  0.00    +0.208 C 
ENDROOT
BRANCH   1   2
ATOM      2  O   UNL     1     -34.611  24.476   4.032  0.00  0.00    -0.449 OA
BRANCH   2   4
ATOM      3  O   UNL     1     -36.229  23.386   5.270  0.00  0.00    -0.250 OA
ATOM      4  C   UNL     1     -35.613  24.396   4.954  0.00  0.00    +0.318 C 
ATOM      5  C   UNL     1     -35.864  25.751   5.543  0.00  0.00    +0.121 C 
ENDBRANCH   2   4
ENDBRANCH   1   2
BRANCH   1   6
ATOM      6  C   UNL     1     -34.130  25.634   1.970  0.00  0.00    +0.139 C 
BRANCH   6   7
ATOM      7  N   UNL     1     -33.822  26.784   2.820  0.00  0.00    -0.275 N 
ATOM      8  N   UNL     1     -33.982  28.775   3.749  0.00  0.00    -0.370 NA
ATOM      9  C   UNL     1     -34.523  27.944   2.886  0.00  0.00    +0.163 C 
ATOM     10  C   UNL     1     -32.775  26.859   3.677  0.00  0.00    +0.178 C 
ATOM     11  C   UNL     1     -32.892  28.106   4.245  0.00  0.00    +0.271 C 
ATOM     12  C   UNL     1     -35.731  28.197   2.076  0.00  0.00    +0.084 C 
ATOM     13  O   UNL     1     -31.073  28.085   5.655  0.00  0.00    -0.124 OA
ATOM     14  O   UNL     1     -32.345  29.877   5.609  0.00  0.00    -0.124 OA
ATOM     15  N   UNL     1     -32.072  28.712   5.205  0.00  0.00    +0.085 N 
ENDBRANCH   6   7
ENDBRANCH   1   6
BRANCH   1  16
ATOM     16  C   UNL     1     -34.949  23.249   1.981  0.00  0.00    +0.139 C 
BRANCH  16  17
ATOM     17  N   UNL     1     -36.234  22.550   1.972  0.00  0.00    -0.275 N 
ATOM     18  N   UNL     1     -37.695  20.901   1.964  0.00  0.00    -0.370 NA
ATOM     19  C   UNL     1     -36.416  21.206   1.976  0.00  0.00    +0.163 C 
ATOM     20  C   UNL     1     -37.447  23.155   1.958  0.00  0.00    +0.178 C 
ATOM     21  C   UNL     1     -38.343  22.111   1.952  0.00  0.00    +0.271 C 
ATOM     22  C   UNL     1     -35.294  20.246   1.989  0.00  0.00    +0.084 C 
ATOM     23  O   UNL     1     -40.327  23.277   1.929  0.00  0.00    -0.124 OA
ATOM     24  O   UNL     1     -40.401  21.080   1.937  0.00  0.00    -0.124 OA
ATOM     25  N   UNL     1     -39.742  22.157   1.940  0.00  0.00    +0.085 N 
ENDBRANCH  16  17
ENDBRANCH   1  16
TORSDOF 6
ENDMDL
MODEL 5
REMARK VINA RESULT:      -6.1      2.480      3.349
REMARK  Name = 196632
REMARK  6 active torsions:
REMARK  status: ('A' for Active; 'I' for Inactive)
REMARK    1  A    between atoms: C_1  and  O_2
REMARK    2  A    between atoms: C_1  and  C_6
REMARK    3  A    between atoms: C_1  and  C_16
REMARK    4  A    between atoms: O_2  and  C_4
REMARK    5  A    between atoms: C_6  and  N_7
REMARK    6  A    between atoms: C_16  and  N_17
REMARK                            x       y       z     vdW  Elec       q    Type
REMARK                         _______ _______ _______ _____ _____    ______ ____
ROOT
ATOM      1  C   UNL     1     -36.480  23.182   3.327  0.00  0.00    +0.208 C 
ENDROOT
BRANCH   1   2
ATOM      2  O   UNL     1     -36.506  22.853   4.717  0.00  0.00    -0.449 OA
BRANCH   2   4
ATOM      3  O   UNL     1     -35.131  21.015   4.452  0.00  0.00    -0.250 OA
ATOM      4  C   UNL     1     -35.581  21.937   5.122  0.00  0.00    +0.318 C 
ATOM      5  C   UNL     1     -35.178  22.219   6.537  0.00  0.00    +0.121 C 
ENDBRANCH   2   4
ENDBRANCH   1   2
BRANCH   1   6
ATOM      6  C   UNL     1     -37.778  22.695   2.673  0.00  0.00    +0.139 C 
BRANCH   6   7
ATOM      7  N   UNL     1     -37.550  21.592   1.739  0.00  0.00    -0.275 N 
ATOM      8  N   UNL     1     -37.944  20.070   0.196  0.00  0.00    -0.370 NA
ATOM      9  C   UNL     1     -38.469  21.044   0.906  0.00  0.00    +0.163 C 
ATOM     10  C   UNL     1     -36.370  20.949   1.569  0.00  0.00    +0.178 C 
ATOM     11  C   UNL     1     -36.635  20.005   0.605  0.00  0.00    +0.271 C 
ATOM     12  C   UNL     1     -39.868  21.511   0.838  0.00  0.00    +0.084 C 
ATOM     13  O   UNL     1     -34.568  19.010   0.426  0.00  0.00    -0.124 OA
ATOM     14  O   UNL     1     -36.203  18.267  -0.841  0.00  0.00    -0.124 OA
ATOM     15  N   UNL     1     -35.770  19.059   0.043  0.00  0.00    +0.085 N 
ENDBRANCH   6   7
ENDBRANCH   1   6
BRANCH   1  16
ATOM     16  C   UNL     1     -36.333  24.701   3.174  0.00  0.00    +0.139 C 
BRANCH  16  17
ATOM     17  N   UNL     1     -34.935  25.129   3.183  0.00  0.00    -0.275 N 
ATOM     18  N   UNL     1     -33.015  25.919   3.920  0.00  0.00    -0.370 NA
ATOM     19  C   UNL     1     -34.256  25.632   4.244  0.00  0.00    +0.163 C 
ATOM     20  C   UNL     1     -34.101  25.082   2.115  0.00  0.00    +0.178 C 
ATOM     21  C   UNL     1     -32.912  25.579   2.595  0.00  0.00    +0.271 C 
ATOM     22  C   UNL     1     -34.873  25.819   5.573  0.00  0.00    +0.084 C 
ATOM     23  O   UNL     1     -31.617  25.440   0.697  0.00  0.00    -0.124 OA
ATOM     24  O   UNL     1     -30.706  26.233   2.534  0.00  0.00    -0.124 OA
ATOM     25  N   UNL     1     -31.699  25.756   1.917  0.00  0.00    +0.085 N 
ENDBRANCH  16  17
ENDBRANCH   1  16
TORSDOF 6
ENDMDL
MODEL 6
REMARK VINA RESULT:      -6.0      0.890      7.469
REMARK  Name = 196632
REMARK  6 active torsions:
REMARK  status: ('A' for Active; 'I' for Inactive)
REMARK    1  A    between atoms: C_1  and  O_2
REMARK    2  A    between atoms: C_1  and  C_6
REMARK    3  A    between atoms: C_1  and  C_16
REMARK    4  A    between atoms: O_2  and  C_4
REMARK    5  A    between atoms: C_6  and  N_7
REMARK    6  A    between atoms: C_16  and  N_17
REMARK                            x       y       z     vdW  Elec       q    Type
REMARK                         _______ _______ _______ _____ _____    ______ ____
ROOT
ATOM      1  C   UNL     1     -36.411  23.485   3.795  0.00  0.00    +0.208 C 
ENDROOT
BRANCH   1   2
ATOM      2  O   UNL     1     -35.188  23.087   4.418  0.00  0.00    -0.449 OA
BRANCH   2   4
ATOM      3  O   UNL     1     -35.137  20.782   4.578  0.00  0.00    -0.250 OA
ATOM      4  C   UNL     1     -35.227  21.895   5.080  0.00  0.00    +0.318 C 
ATOM      5  C   UNL     1     -35.398  22.141   6.548  0.00  0.00    +0.121 C 
ENDBRANCH   2   4
ENDBRANCH   1   2
BRANCH   1   6
ATOM      6  C   UNL     1     -36.826  24.857   4.337  0.00  0.00    +0.139 C 
BRANCH   6   7
ATOM      7  N   UNL     1     -35.697  25.783   4.430  0.00  0.00    -0.275 N 
ATOM      8  N   UNL     1     -34.302  27.407   3.911  0.00  0.00    -0.370 NA
ATOM      9  C   UNL     1     -35.373  26.746   3.532  0.00  0.00    +0.163 C 
ATOM     10  C   UNL     1     -34.798  25.813   5.444  0.00  0.00    +0.178 C 
ATOM     11  C   UNL     1     -33.938  26.830   5.102  0.00  0.00    +0.271 C 
ATOM     12  C   UNL     1     -36.151  26.987   2.300  0.00  0.00    +0.084 C 
ATOM     13  O   UNL     1     -32.491  26.759   6.891  0.00  0.00    -0.124 OA
ATOM     14  O   UNL     1     -32.142  28.253   5.317  0.00  0.00    -0.124 OA
ATOM     15  N   UNL     1     -32.815  27.298   5.796  0.00  0.00    +0.085 N 
ENDBRANCH   6   7
ENDBRANCH   1   6
BRANCH   1  16
ATOM     16  C   UNL     1     -36.205  23.542   2.276  0.00  0.00    +0.139 C 
BRANCH  16  17
ATOM     17  N   UNL     1     -36.940  22.491   1.575  0.00  0.00    -0.275 N 
ATOM     18  N   UNL     1     -37.344  20.620   0.484  0.00  0.00    -0.370 NA
ATOM     19  C   UNL     1     -36.414  21.357   1.049  0.00  0.00    +0.163 C 
ATOM     20  C   UNL     1     -38.277  22.498   1.346  0.00  0.00    +0.178 C 
ATOM     21  C   UNL     1     -38.507  21.325   0.665  0.00  0.00    +0.271 C 
ATOM     22  C   UNL     1     -34.975  21.034   1.121  0.00  0.00    +0.084 C 
ATOM     23  O   UNL     1     -40.783  21.477   0.352  0.00  0.00    -0.124 OA
ATOM     24  O   UNL     1     -39.731  19.711  -0.428  0.00  0.00    -0.124 OA
ATOM     25  N   UNL     1     -39.719  20.818   0.179  0.00  0.00    +0.085 N 
ENDBRANCH  16  17
ENDBRANCH   1  16
TORSDOF 6
ENDMDL
MODEL 7
REMARK VINA RESULT:      -6.0      3.223      6.456
REMARK  Name = 196632
REMARK  6 active torsions:
REMARK  status: ('A' for Active; 'I' for Inactive)
REMARK    1  A    between atoms: C_1  and  O_2
REMARK    2  A    between atoms: C_1  and  C_6
REMARK    3  A    between atoms: C_1  and  C_16
REMARK    4  A    between atoms: O_2  and  C_4
REMARK    5  A    between atoms: C_6  and  N_7
REMARK    6  A    between atoms: C_16  and  N_17
REMARK                            x       y       z     vdW  Elec       q    Type
REMARK                         _______ _______ _______ _____ _____    ______ ____
ROOT
ATOM      1  C   UNL     1     -36.444  22.055   2.095  0.00  0.00    +0.208 C 
ENDROOT
BRANCH   1   2
ATOM      2  O   UNL     1     -37.832  21.865   2.376  0.00  0.00    -0.449 OA
BRANCH   2   4
ATOM      3  O   UNL     1     -38.389  23.903   3.312  0.00  0.00    -0.250 OA
ATOM      4  C   UNL     1     -38.569  23.006   2.498  0.00  0.00    +0.318 C 
ATOM      5  C   UNL     1     -39.659  23.014   1.470  0.00  0.00    +0.121 C 
ENDBRANCH   2   4
ENDBRANCH   1   2
BRANCH   1   6
ATOM      6  C   UNL     1     -35.632  21.768   3.363  0.00  0.00    +0.139 C 
BRANCH   6   7
ATOM      7  N   UNL     1     -35.201  22.992   4.037  0.00  0.00    -0.275 N 
ATOM      8  N   UNL     1     -34.694  24.397   5.657  0.00  0.00    -0.370 NA
ATOM      9  C   UNL     1     -35.116  23.183   5.377  0.00  0.00    +0.163 C 
ATOM     10  C   UNL     1     -34.817  24.131   3.410  0.00  0.00    +0.178 C 
ATOM     11  C   UNL     1     -34.506  24.993   4.435  0.00  0.00    +0.271 C 
ATOM     12  C   UNL     1     -35.464  22.137   6.359  0.00  0.00    +0.084 C 
ATOM     13  O   UNL     1     -33.882  26.852   3.231  0.00  0.00    -0.124 OA
ATOM     14  O   UNL     1     -33.817  26.952   5.426  0.00  0.00    -0.124 OA
ATOM     15  N   UNL     1     -34.052  26.315   4.361  0.00  0.00    +0.085 N 
ENDBRANCH   6   7
ENDBRANCH   1   6
BRANCH   1  16
ATOM     16  C   UNL     1     -36.029  21.111   0.960  0.00  0.00    +0.139 C 
BRANCH  16  17
ATOM     17  N   UNL     1     -34.644  21.322   0.539  0.00  0.00    -0.275 N 
ATOM     18  N   UNL     1     -32.506  20.932   0.179  0.00  0.00    -0.370 NA
ATOM     19  C   UNL     1     -33.626  20.434   0.653  0.00  0.00    +0.163 C 
ATOM     20  C   UNL     1     -34.172  22.455  -0.037  0.00  0.00    +0.178 C 
ATOM     21  C   UNL     1     -32.839  22.192  -0.252  0.00  0.00    +0.271 C 
ATOM     22  C   UNL     1     -33.798  19.091   1.243  0.00  0.00    +0.084 C 
ATOM     23  O   UNL     1     -32.183  24.175  -1.220  0.00  0.00    -0.124 OA
ATOM     24  O   UNL     1     -30.680  22.594  -0.940  0.00  0.00    -0.124 OA
ATOM     25  N   UNL     1     -31.864  23.017  -0.826  0.00  0.00    +0.085 N 
ENDBRANCH  16  17
ENDBRANCH   1  16
TORSDOF 6
ENDMDL
MODEL 8
REMARK VINA RESULT:      -6.0      2.077      7.065
REMARK  Name = 196632
REMARK  6 active torsions:
REMARK  status: ('A' for Active; 'I' for Inactive)
REMARK    1  A    between atoms: C_1  and  O_2
REMARK    2  A    between atoms: C_1  and  C_6
REMARK    3  A    between atoms: C_1  and  C_16
REMARK    4  A    between atoms: O_2  and  C_4
REMARK    5  A    between atoms: C_6  and  N_7
REMARK    6  A    between atoms: C_16  and  N_17
REMARK                            x       y       z     vdW  Elec       q    Type
REMARK                         _______ _______ _______ _____ _____    ______ ____
ROOT
ATOM      1  C   UNL     1     -34.935  24.685   2.906  0.00  0.00    +0.208 C 
ENDROOT
BRANCH   1   2
ATOM      2  O   UNL     1     -34.548  24.361   4.243  0.00  0.00    -0.449 OA
BRANCH   2   4
ATOM      3  O   UNL     1     -36.081  23.324   5.626  0.00  0.00    -0.250 OA
ATOM      4  C   UNL     1     -35.559  24.328   5.157  0.00  0.00    +0.318 C 
ATOM      5  C   UNL     1     -35.957  25.726   5.520  0.00  0.00    +0.121 C 
ENDBRANCH   2   4
ENDBRANCH   1   2
BRANCH   1   6
ATOM      6  C   UNL     1     -33.977  25.743   2.349  0.00  0.00    +0.139 C 
BRANCH   6   7
ATOM      7  N   UNL     1     -34.618  27.048   2.192  0.00  0.00    -0.275 N 
ATOM      8  N   UNL     1     -35.893  28.644   1.367  0.00  0.00    -0.370 NA
ATOM      9  C   UNL     1     -35.505  27.396   1.227  0.00  0.00    +0.163 C 
ATOM     10  C   UNL     1     -34.415  28.115   3.002  0.00  0.00    +0.178 C 
ATOM     11  C   UNL     1     -35.218  29.098   2.472  0.00  0.00    +0.271 C 
ATOM     12  C   UNL     1     -35.948  26.462   0.172  0.00  0.00    +0.084 C 
ATOM     13  O   UNL     1     -34.773  30.821   3.932  0.00  0.00    -0.124 OA
ATOM     14  O   UNL     1     -36.188  31.177   2.288  0.00  0.00    -0.124 OA
ATOM     15  N   UNL     1     -35.399  30.415   2.914  0.00  0.00    +0.085 N 
ENDBRANCH   6   7
ENDBRANCH   1   6
BRANCH   1  16
ATOM     16  C   UNL     1     -34.895  23.412   2.051  0.00  0.00    +0.139 C 
BRANCH  16  17
ATOM     17  N   UNL     1     -36.166  22.690   2.069  0.00  0.00    -0.275 N 
ATOM     18  N   UNL     1     -37.596  21.014   2.116  0.00  0.00    -0.370 NA
ATOM     19  C   UNL     1     -36.324  21.343   2.112  0.00  0.00    +0.163 C 
ATOM     20  C   UNL     1     -37.391  23.271   2.044  0.00  0.00    +0.178 C 
ATOM     21  C   UNL     1     -38.267  22.211   2.073  0.00  0.00    +0.271 C 
ATOM     22  C   UNL     1     -35.183  20.405   2.147  0.00  0.00    +0.084 C 
ATOM     23  O   UNL     1     -40.273  23.338   2.027  0.00  0.00    -0.124 OA
ATOM     24  O   UNL     1     -40.305  21.141   2.099  0.00  0.00    -0.124 OA
ATOM     25  N   UNL     1     -39.667  22.231   2.067  0.00  0.00    +0.085 N 
ENDBRANCH  16  17
ENDBRANCH   1  16
TORSDOF 6
ENDMDL
MODEL 9
REMARK VINA RESULT:      -5.9      2.295      6.309
REMARK  Name = 196632
REMARK  6 active torsions:
REMARK  status: ('A' for Active; 'I' for Inactive)
REMARK    1  A    between atoms: C_1  and  O_2
REMARK    2  A    between atoms: C_1  and  C_6
REMARK    3  A    between atoms: C_1  and  C_16
REMARK    4  A    between atoms: O_2  and  C_4
REMARK    5  A    between atoms: C_6  and  N_7
REMARK    6  A    between atoms: C_16  and  N_17
REMARK                            x       y       z     vdW  Elec       q    Type
REMARK                         _______ _______ _______ _____ _____    ______ ____
ROOT
ATOM      1  C   UNL     1     -35.179  24.392   3.639  0.00  0.00    +0.208 C 
ENDROOT
BRANCH   1   2
ATOM      2  O   UNL     1     -34.204  24.862   4.572  0.00  0.00    -0.449 OA
BRANCH   2   4
ATOM      3  O   UNL     1     -33.916  26.646   6.012  0.00  0.00    -0.250 OA
ATOM      4  C   UNL     1     -34.626  25.844   5.419  0.00  0.00    +0.318 C 
ATOM      5  C   UNL     1     -36.120  25.808   5.528  0.00  0.00    +0.121 C 
ENDBRANCH   2   4
ENDBRANCH   1   2
BRANCH   1   6
ATOM      6  C   UNL     1     -34.898  25.010   2.266  0.00  0.00    +0.139 C 
BRANCH   6   7
ATOM      7  N   UNL     1     -35.931  25.963   1.862  0.00  0.00    -0.275 N 
ATOM      8  N   UNL     1     -36.970  27.879   1.541  0.00  0.00    -0.370 NA
ATOM      9  C   UNL     1     -35.879  27.311   2.005  0.00  0.00    +0.163 C 
ATOM     10  C   UNL     1     -37.109  25.632   1.279  0.00  0.00    +0.178 C 
ATOM     11  C   UNL     1     -37.741  26.838   1.087  0.00  0.00    +0.271 C 
ATOM     12  C   UNL     1     -34.727  28.009   2.610  0.00  0.00    +0.084 C 
ATOM     13  O   UNL     1     -39.695  26.123   0.104  0.00  0.00    -0.124 OA
ATOM     14  O   UNL     1     -39.410  28.279   0.427  0.00  0.00    -0.124 OA
ATOM     15  N   UNL     1     -38.996  27.089   0.518  0.00  0.00    +0.085 N 
ENDBRANCH   6   7
ENDBRANCH   1   6
BRANCH   1  16
ATOM     16  C   UNL     1     -35.108  22.861   3.570  0.00  0.00    +0.139 C 
BRANCH  16  17
ATOM     17  N   UNL     1     -36.281  22.279   2.919  0.00  0.00    -0.275 N 
ATOM     18  N   UNL     1     -37.524  20.879   1.757  0.00  0.00    -0.370 NA
ATOM     19  C   UNL     1     -36.315  21.122   2.212  0.00  0.00    +0.163 C 
ATOM     20  C   UNL     1     -37.524  22.819   2.930  0.00  0.00    +0.178 C 
ATOM     21  C   UNL     1     -38.283  21.933   2.200  0.00  0.00    +0.271 C 
ATOM     22  C   UNL     1     -35.122  20.276   2.003  0.00  0.00    +0.084 C 
ATOM     23  O   UNL     1     -40.335  22.970   2.305  0.00  0.00    -0.124 OA
ATOM     24  O   UNL     1     -40.171  21.075   1.202  0.00  0.00    -0.124 OA
ATOM     25  N   UNL     1     -39.647  21.995   1.892  0.00  0.00    +0.085 N 
ENDBRANCH  16  17
ENDBRANCH   1  16
TORSDOF 6
ENDMDL
