MODEL 1
REMARK VINA RESULT:      -5.3      0.000      0.000
REMARK  Name = 54120
REMARK  7 active torsions:
REMARK  status: ('A' for Active; 'I' for Inactive)
REMARK    1  A    between atoms: C_1  and  C_5
REMARK    2  A    between atoms: C_1  and  S_12
REMARK    3  A    between atoms: N_4  and  C_7
REMARK    4  A    between atoms: C_7  and  C_9
REMARK    5  A    between atoms: C_9  and  O_10
REMARK    6  A    between atoms: S_12  and  C_14
REMARK    7  A    between atoms: C_14  and  C_16
REMARK                            x       y       z     vdW  Elec       q    Type
REMARK                         _______ _______ _______ _____ _____    ______ ____
ROOT
ATOM      1  C   UNL     1     -35.233  23.262   4.878  0.00  0.00    +0.131 C 
ATOM      2  C   UNL     1     -35.385  22.391   6.118  0.00  0.00    +0.022 C 
ENDROOT
BRANCH   1   5
ATOM      3  O   UNL     1     -37.268  22.807   3.652  0.00  0.00    -0.274 OA
ATOM      4  N   UNL     1     -35.242  22.151   2.727  0.00  0.00    -0.294 N 
ATOM      5  C   UNL     1     -36.042  22.721   3.708  0.00  0.00    +0.233 C 
ATOM      6  H   UNL     1     -34.268  22.131   2.865  0.00  0.00    +0.150 HD
BRANCH   4   7
ATOM      7  C   UNL     1     -35.783  21.587   1.513  0.00  0.00    +0.200 C 
BRANCH   7   9
ATOM      8  O   UNL     1     -35.486  19.294   0.846  0.00  0.00    -0.248 OA
ATOM      9  C   UNL     1     -36.008  20.100   1.606  0.00  0.00    +0.334 C 
BRANCH   9  10
ATOM     10  O   UNL     1     -36.843  19.741   2.609  0.00  0.00    -0.479 OA
ATOM     11  H   UNL     1     -37.732  20.035   2.605  0.00  0.00    +0.295 HD
ENDBRANCH   9  10
ENDBRANCH   7   9
ENDBRANCH   4   7
ENDBRANCH   1   5
BRANCH   1  12
ATOM     12  S   UNL     1     -35.823  24.949   5.233  0.00  0.00    -0.064 S 
BRANCH  12  14
ATOM     13  O   UNL     1     -34.743  25.925   3.050  0.00  0.00    -0.279 OA
ATOM     14  C   UNL     1     -34.674  25.892   4.274  0.00  0.00    +0.228 C 
BRANCH  14  16
ATOM     15  S   UNL     1     -32.759  27.809   4.248  0.00  0.00    -0.083 S 
ATOM     16  C   UNL     1     -33.699  26.656   5.058  0.00  0.00    +0.074 C 
ATOM     17  C   UNL     1     -33.447  26.557   6.384  0.00  0.00    +0.011 C 
ATOM     18  C   UNL     1     -32.425  27.472   6.773  0.00  0.00    +0.008 C 
ATOM     19  C   UNL     1     -31.964  28.215   5.709  0.00  0.00    +0.036 C 
ENDBRANCH  14  16
ENDBRANCH  12  14
ENDBRANCH   1  12
TORSDOF 7
ENDMDL
MODEL 2
REMARK VINA RESULT:      -5.2      3.220      6.823
REMARK  Name = 54120
REMARK  7 active torsions:
REMARK  status: ('A' for Active; 'I' for Inactive)
REMARK    1  A    between atoms: C_1  and  C_5
REMARK    2  A    between atoms: C_1  and  S_12
REMARK    3  A    between atoms: N_4  and  C_7
REMARK    4  A    between atoms: C_7  and  C_9
REMARK    5  A    between atoms: C_9  and  O_10
REMARK    6  A    between atoms: S_12  and  C_14
REMARK    7  A    between atoms: C_14  and  C_16
REMARK                            x       y       z     vdW  Elec       q    Type
REMARK                         _______ _______ _______ _____ _____    ______ ____
ROOT
ATOM      1  C   UNL     1     -34.715  26.363   3.481  0.00  0.00    +0.131 C 
ATOM      2  C   UNL     1     -35.465  27.379   2.631  0.00  0.00    +0.022 C 
ENDROOT
BRANCH   1   5
ATOM      3  O   UNL     1     -32.301  26.237   3.393  0.00  0.00    -0.274 OA
ATOM      4  N   UNL     1     -33.282  27.983   4.566  0.00  0.00    -0.294 N 
ATOM      5  C   UNL     1     -33.301  26.828   3.798  0.00  0.00    +0.233 C 
ATOM      6  H   UNL     1     -34.139  28.381   4.841  0.00  0.00    +0.150 HD
BRANCH   4   7
ATOM      7  C   UNL     1     -32.055  28.624   4.978  0.00  0.00    +0.200 C 
BRANCH   7   9
ATOM      8  O   UNL     1     -31.659  29.506   7.181  0.00  0.00    -0.248 OA
ATOM      9  C   UNL     1     -31.811  28.527   6.461  0.00  0.00    +0.334 C 
BRANCH   9  10
ATOM     10  O   UNL     1     -31.774  27.255   6.921  0.00  0.00    -0.479 OA
ATOM     11  H   UNL     1     -32.436  26.950   7.508  0.00  0.00    +0.295 HD
ENDBRANCH   9  10
ENDBRANCH   7   9
ENDBRANCH   4   7
ENDBRANCH   1   5
BRANCH   1  12
ATOM     12  S   UNL     1     -35.590  26.114   5.060  0.00  0.00    -0.064 S 
BRANCH  12  14
ATOM     13  O   UNL     1     -37.721  24.876   4.160  0.00  0.00    -0.279 OA
ATOM     14  C   UNL     1     -36.604  24.726   4.642  0.00  0.00    +0.228 C 
BRANCH  14  16
ATOM     15  S   UNL     1     -35.883  22.353   3.550  0.00  0.00    -0.083 S 
ATOM     16  C   UNL     1     -35.978  23.419   4.863  0.00  0.00    +0.074 C 
ATOM     17  C   UNL     1     -35.449  22.940   6.013  0.00  0.00    +0.011 C 
ATOM     18  C   UNL     1     -34.934  21.625   5.823  0.00  0.00    +0.008 C 
ATOM     19  C   UNL     1     -35.104  21.185   4.530  0.00  0.00    +0.036 C 
ENDBRANCH  14  16
ENDBRANCH  12  14
ENDBRANCH   1  12
TORSDOF 7
ENDMDL
MODEL 3
REMARK VINA RESULT:      -5.2      1.491      1.893
REMARK  Name = 54120
REMARK  7 active torsions:
REMARK  status: ('A' for Active; 'I' for Inactive)
REMARK    1  A    between atoms: C_1  and  C_5
REMARK    2  A    between atoms: C_1  and  S_12
REMARK    3  A    between atoms: N_4  and  C_7
REMARK    4  A    between atoms: C_7  and  C_9
REMARK    5  A    between atoms: C_9  and  O_10
REMARK    6  A    between atoms: S_12  and  C_14
REMARK    7  A    between atoms: C_14  and  C_16
REMARK                            x       y       z     vdW  Elec       q    Type
REMARK                         _______ _______ _______ _____ _____    ______ ____
ROOT
ATOM      1  C   UNL     1     -35.202  23.066   4.985  0.00  0.00    +0.131 C 
ATOM      2  C   UNL     1     -35.511  22.277   6.251  0.00  0.00    +0.022 C 
ENDROOT
BRANCH   1   5
ATOM      3  O   UNL     1     -35.578  21.253   3.428  0.00  0.00    -0.274 OA
ATOM      4  N   UNL     1     -36.668  23.271   3.070  0.00  0.00    -0.294 N 
ATOM      5  C   UNL     1     -35.815  22.416   3.753  0.00  0.00    +0.233 C 
ATOM      6  H   UNL     1     -36.792  24.186   3.411  0.00  0.00    +0.150 HD
BRANCH   4   7
ATOM      7  C   UNL     1     -37.381  22.873   1.879  0.00  0.00    +0.200 C 
BRANCH   7   9
ATOM      8  O   UNL     1     -39.747  22.690   2.281  0.00  0.00    -0.248 OA
ATOM      9  C   UNL     1     -38.660  22.134   2.180  0.00  0.00    +0.334 C 
BRANCH   9  10
ATOM     10  O   UNL     1     -38.492  20.800   2.329  0.00  0.00    -0.479 OA
ATOM     11  H   UNL     1     -37.633  20.447   2.452  0.00  0.00    +0.295 HD
ENDBRANCH   9  10
ENDBRANCH   7   9
ENDBRANCH   4   7
ENDBRANCH   1   5
BRANCH   1  12
ATOM     12  S   UNL     1     -35.885  24.749   5.128  0.00  0.00    -0.064 S 
BRANCH  12  14
ATOM     13  O   UNL     1     -34.654  25.629   2.984  0.00  0.00    -0.279 OA
ATOM     14  C   UNL     1     -34.675  25.657   4.210  0.00  0.00    +0.228 C 
BRANCH  14  16
ATOM     15  S   UNL     1     -32.827  27.639   4.238  0.00  0.00    -0.083 S 
ATOM     16  C   UNL     1     -33.767  26.469   5.024  0.00  0.00    +0.074 C 
ATOM     17  C   UNL     1     -33.578  26.405   6.363  0.00  0.00    +0.011 C 
ATOM     18  C   UNL     1     -32.608  27.362   6.782  0.00  0.00    +0.008 C 
ATOM     19  C   UNL     1     -32.120  28.100   5.727  0.00  0.00    +0.036 C 
ENDBRANCH  14  16
ENDBRANCH  12  14
ENDBRANCH   1  12
TORSDOF 7
ENDMDL
MODEL 4
REMARK VINA RESULT:      -5.2      2.447      3.296
REMARK  Name = 54120
REMARK  7 active torsions:
REMARK  status: ('A' for Active; 'I' for Inactive)
REMARK    1  A    between atoms: C_1  and  C_5
REMARK    2  A    between atoms: C_1  and  S_12
REMARK    3  A    between atoms: N_4  and  C_7
REMARK    4  A    between atoms: C_7  and  C_9
REMARK    5  A    between atoms: C_9  and  O_10
REMARK    6  A    between atoms: S_12  and  C_14
REMARK    7  A    between atoms: C_14  and  C_16
REMARK                            x       y       z     vdW  Elec       q    Type
REMARK                         _______ _______ _______ _____ _____    ______ ____
ROOT
ATOM      1  C   UNL     1     -35.285  22.696   4.935  0.00  0.00    +0.131 C 
ATOM      2  C   UNL     1     -35.526  22.083   6.308  0.00  0.00    +0.022 C 
ENDROOT
BRANCH   1   5
ATOM      3  O   UNL     1     -35.377  20.790   3.449  0.00  0.00    -0.274 OA
ATOM      4  N   UNL     1     -37.057  22.386   3.316  0.00  0.00    -0.294 N 
ATOM      5  C   UNL     1     -35.885  21.846   3.825  0.00  0.00    +0.233 C 
ATOM      6  H   UNL     1     -37.382  23.239   3.684  0.00  0.00    +0.150 HD
BRANCH   4   7
ATOM      7  C   UNL     1     -37.817  21.748   2.267  0.00  0.00    +0.200 C 
BRANCH   7   9
ATOM      8  O   UNL     1     -39.679  23.265   2.419  0.00  0.00    -0.248 OA
ATOM      9  C   UNL     1     -39.278  22.115   2.295  0.00  0.00    +0.334 C 
BRANCH   9  10
ATOM     10  O   UNL     1     -40.105  21.050   2.172  0.00  0.00    -0.479 OA
ATOM     11  H   UNL     1     -40.195  20.620   1.345  0.00  0.00    +0.295 HD
ENDBRANCH   9  10
ENDBRANCH   7   9
ENDBRANCH   4   7
ENDBRANCH   1   5
BRANCH   1  12
ATOM     12  S   UNL     1     -36.054  24.346   4.853  0.00  0.00    -0.064 S 
BRANCH  12  14
ATOM     13  O   UNL     1     -33.537  24.984   4.473  0.00  0.00    -0.279 OA
ATOM     14  C   UNL     1     -34.698  25.295   4.227  0.00  0.00    +0.228 C 
BRANCH  14  16
ATOM     15  S   UNL     1     -36.390  26.200   2.314  0.00  0.00    -0.083 S 
ATOM     16  C   UNL     1     -35.078  26.416   3.364  0.00  0.00    +0.074 C 
ATOM     17  C   UNL     1     -34.501  27.638   3.295  0.00  0.00    +0.011 C 
ATOM     18  C   UNL     1     -35.160  28.455   2.330  0.00  0.00    +0.008 C 
ATOM     19  C   UNL     1     -36.206  27.796   1.724  0.00  0.00    +0.036 C 
ENDBRANCH  14  16
ENDBRANCH  12  14
ENDBRANCH   1  12
TORSDOF 7
ENDMDL
MODEL 5
REMARK VINA RESULT:      -5.1      3.171      6.985
REMARK  Name = 54120
REMARK  7 active torsions:
REMARK  status: ('A' for Active; 'I' for Inactive)
REMARK    1  A    between atoms: C_1  and  C_5
REMARK    2  A    between atoms: C_1  and  S_12
REMARK    3  A    between atoms: N_4  and  C_7
REMARK    4  A    between atoms: C_7  and  C_9
REMARK    5  A    between atoms: C_9  and  O_10
REMARK    6  A    between atoms: S_12  and  C_14
REMARK    7  A    between atoms: C_14  and  C_16
REMARK                            x       y       z     vdW  Elec       q    Type
REMARK                         _______ _______ _______ _____ _____    ______ ____
ROOT
ATOM      1  C   UNL     1     -36.508  23.215   1.982  0.00  0.00    +0.131 C 
ATOM      2  C   UNL     1     -37.223  24.008   0.895  0.00  0.00    +0.022 C 
ENDROOT
BRANCH   1   5
ATOM      3  O   UNL     1     -37.883  24.130   3.748  0.00  0.00    -0.274 OA
ATOM      4  N   UNL     1     -35.605  23.888   4.123  0.00  0.00    -0.294 N 
ATOM      5  C   UNL     1     -36.763  23.798   3.364  0.00  0.00    +0.233 C 
ATOM      6  H   UNL     1     -34.755  23.596   3.724  0.00  0.00    +0.150 HD
BRANCH   4   7
ATOM      7  C   UNL     1     -35.599  24.394   5.476  0.00  0.00    +0.200 C 
BRANCH   7   9
ATOM      8  O   UNL     1     -34.375  26.447   5.754  0.00  0.00    -0.248 OA
ATOM      9  C   UNL     1     -35.445  25.892   5.542  0.00  0.00    +0.334 C 
BRANCH   9  10
ATOM     10  O   UNL     1     -36.604  26.563   5.346  0.00  0.00    -0.479 OA
ATOM     11  H   UNL     1     -37.417  26.100   5.334  0.00  0.00    +0.295 HD
ENDBRANCH   9  10
ENDBRANCH   7   9
ENDBRANCH   4   7
ENDBRANCH   1   5
BRANCH   1  12
ATOM     12  S   UNL     1     -37.108  21.494   1.982  0.00  0.00    -0.064 S 
BRANCH  12  14
ATOM     13  O   UNL     1     -35.281  20.725   3.700  0.00  0.00    -0.279 OA
ATOM     14  C   UNL     1     -35.651  20.654   2.534  0.00  0.00    +0.228 C 
BRANCH  14  16
ATOM     15  S   UNL     1     -35.814  19.553   0.063  0.00  0.00    -0.083 S 
ATOM     16  C   UNL     1     -34.985  19.843   1.512  0.00  0.00    +0.074 C 
ATOM     17  C   UNL     1     -33.756  19.279   1.577  0.00  0.00    +0.011 C 
ATOM     18  C   UNL     1     -33.464  18.564   0.378  0.00  0.00    +0.008 C 
ATOM     19  C   UNL     1     -34.498  18.633  -0.529  0.00  0.00    +0.036 C 
ENDBRANCH  14  16
ENDBRANCH  12  14
ENDBRANCH   1  12
TORSDOF 7
ENDMDL
MODEL 6
REMARK VINA RESULT:      -5.0      2.772      6.581
REMARK  Name = 54120
REMARK  7 active torsions:
REMARK  status: ('A' for Active; 'I' for Inactive)
REMARK    1  A    between atoms: C_1  and  C_5
REMARK    2  A    between atoms: C_1  and  S_12
REMARK    3  A    between atoms: N_4  and  C_7
REMARK    4  A    between atoms: C_7  and  C_9
REMARK    5  A    between atoms: C_9  and  O_10
REMARK    6  A    between atoms: S_12  and  C_14
REMARK    7  A    between atoms: C_14  and  C_16
REMARK                            x       y       z     vdW  Elec       q    Type
REMARK                         _______ _______ _______ _____ _____    ______ ____
ROOT
ATOM      1  C   UNL     1     -35.972  22.455   4.214  0.00  0.00    +0.131 C 
ATOM      2  C   UNL     1     -35.097  21.552   5.072  0.00  0.00    +0.022 C 
ENDROOT
BRANCH   1   5
ATOM      3  O   UNL     1     -36.962  24.607   4.702  0.00  0.00    -0.274 OA
ATOM      4  N   UNL     1     -34.718  24.277   5.196  0.00  0.00    -0.294 N 
ATOM      5  C   UNL     1     -35.961  23.891   4.716  0.00  0.00    +0.233 C 
ATOM      6  H   UNL     1     -33.978  23.630   5.162  0.00  0.00    +0.150 HD
BRANCH   4   7
ATOM      7  C   UNL     1     -34.467  25.590   5.741  0.00  0.00    +0.200 C 
BRANCH   7   9
ATOM      8  O   UNL     1     -32.997  26.817   4.283  0.00  0.00    -0.248 OA
ATOM      9  C   UNL     1     -34.136  26.612   4.684  0.00  0.00    +0.334 C 
BRANCH   9  10
ATOM     10  O   UNL     1     -35.217  27.282   4.223  0.00  0.00    -0.479 OA
ATOM     11  H   UNL     1     -35.357  27.366   3.301  0.00  0.00    +0.295 HD
ENDBRANCH   9  10
ENDBRANCH   7   9
ENDBRANCH   4   7
ENDBRANCH   1   5
BRANCH   1  12
ATOM     12  S   UNL     1     -35.358  22.457   2.498  0.00  0.00    -0.064 S 
BRANCH  12  14
ATOM     13  O   UNL     1     -36.337  20.024   2.460  0.00  0.00    -0.279 OA
ATOM     14  C   UNL     1     -35.376  20.722   2.156  0.00  0.00    +0.228 C 
BRANCH  14  16
ATOM     15  S   UNL     1     -33.496  21.227   0.271  0.00  0.00    -0.083 S 
ATOM     16  C   UNL     1     -34.198  20.223   1.441  0.00  0.00    +0.074 C 
ATOM     17  C   UNL     1     -33.578  19.030   1.601  0.00  0.00    +0.011 C 
ATOM     18  C   UNL     1     -32.464  18.918   0.719  0.00  0.00    +0.008 C 
ATOM     19  C   UNL     1     -32.305  20.043  -0.059  0.00  0.00    +0.036 C 
ENDBRANCH  14  16
ENDBRANCH  12  14
ENDBRANCH   1  12
TORSDOF 7
ENDMDL
MODEL 7
REMARK VINA RESULT:      -5.0      2.914      6.812
REMARK  Name = 54120
REMARK  7 active torsions:
REMARK  status: ('A' for Active; 'I' for Inactive)
REMARK    1  A    between atoms: C_1  and  C_5
REMARK    2  A    between atoms: C_1  and  S_12
REMARK    3  A    between atoms: N_4  and  C_7
REMARK    4  A    between atoms: C_7  and  C_9
REMARK    5  A    between atoms: C_9  and  O_10
REMARK    6  A    between atoms: S_12  and  C_14
REMARK    7  A    between atoms: C_14  and  C_16
REMARK                            x       y       z     vdW  Elec       q    Type
REMARK                         _______ _______ _______ _____ _____    ______ ____
ROOT
ATOM      1  C   UNL     1     -35.269  25.927   3.201  0.00  0.00    +0.131 C 
ATOM      2  C   UNL     1     -35.441  27.355   2.700  0.00  0.00    +0.022 C 
ENDROOT
BRANCH   1   5
ATOM      3  O   UNL     1     -33.111  25.150   3.967  0.00  0.00    -0.274 OA
ATOM      4  N   UNL     1     -34.344  26.550   5.349  0.00  0.00    -0.294 N 
ATOM      5  C   UNL     1     -34.122  25.814   4.194  0.00  0.00    +0.233 C 
ATOM      6  H   UNL     1     -35.187  27.049   5.435  0.00  0.00    +0.150 HD
BRANCH   4   7
ATOM      7  C   UNL     1     -33.387  26.612   6.429  0.00  0.00    +0.200 C 
BRANCH   7   9
ATOM      8  O   UNL     1     -32.558  28.709   5.590  0.00  0.00    -0.248 OA
ATOM      9  C   UNL     1     -32.351  27.689   6.235  0.00  0.00    +0.334 C 
BRANCH   9  10
ATOM     10  O   UNL     1     -31.171  27.419   6.840  0.00  0.00    -0.479 OA
ATOM     11  H   UNL     1     -30.444  27.997   6.726  0.00  0.00    +0.295 HD
ENDBRANCH   9  10
ENDBRANCH   7   9
ENDBRANCH   4   7
ENDBRANCH   1   5
BRANCH   1  12
ATOM     12  S   UNL     1     -36.791  25.381   4.041  0.00  0.00    -0.064 S 
BRANCH  12  14
ATOM     13  O   UNL     1     -35.921  23.625   5.785  0.00  0.00    -0.279 OA
ATOM     14  C   UNL     1     -36.276  23.792   4.623  0.00  0.00    +0.228 C 
BRANCH  14  16
ATOM     15  S   UNL     1     -37.674  22.737   2.555  0.00  0.00    -0.083 S 
ATOM     16  C   UNL     1     -36.367  22.715   3.634  0.00  0.00    +0.074 C 
ATOM     17  C   UNL     1     -35.518  21.674   3.464  0.00  0.00    +0.011 C 
ATOM     18  C   UNL     1     -35.951  20.839   2.394  0.00  0.00    +0.008 C 
ATOM     19  C   UNL     1     -37.109  21.302   1.812  0.00  0.00    +0.036 C 
ENDBRANCH  14  16
ENDBRANCH  12  14
ENDBRANCH   1  12
TORSDOF 7
ENDMDL
MODEL 8
REMARK VINA RESULT:      -5.0      1.809      2.392
REMARK  Name = 54120
REMARK  7 active torsions:
REMARK  status: ('A' for Active; 'I' for Inactive)
REMARK    1  A    between atoms: C_1  and  C_5
REMARK    2  A    between atoms: C_1  and  S_12
REMARK    3  A    between atoms: N_4  and  C_7
REMARK    4  A    between atoms: C_7  and  C_9
REMARK    5  A    between atoms: C_9  and  O_10
REMARK    6  A    between atoms: S_12  and  C_14
REMARK    7  A    between atoms: C_14  and  C_16
REMARK                            x       y       z     vdW  Elec       q    Type
REMARK                         _______ _______ _______ _____ _____    ______ ____
ROOT
ATOM      1  C   UNL     1     -34.995  23.563   5.052  0.00  0.00    +0.131 C 
ATOM      2  C   UNL     1     -35.413  22.523   6.084  0.00  0.00    +0.022 C 
ENDROOT
BRANCH   1   5
ATOM      3  O   UNL     1     -34.901  23.514   2.636  0.00  0.00    -0.274 OA
ATOM      4  N   UNL     1     -36.708  22.517   3.699  0.00  0.00    -0.294 N 
ATOM      5  C   UNL     1     -35.509  23.214   3.663  0.00  0.00    +0.233 C 
ATOM      6  H   UNL     1     -37.116  22.325   4.574  0.00  0.00    +0.150 HD
BRANCH   4   7
ATOM      7  C   UNL     1     -37.380  22.062   2.505  0.00  0.00    +0.200 C 
BRANCH   7   9
ATOM      8  O   UNL     1     -36.203  20.810   0.821  0.00  0.00    -0.248 OA
ATOM      9  C   UNL     1     -36.755  20.825   1.914  0.00  0.00    +0.334 C 
BRANCH   9  10
ATOM     10  O   UNL     1     -36.864  19.733   2.706  0.00  0.00    -0.479 OA
ATOM     11  H   UNL     1     -36.622  18.891   2.378  0.00  0.00    +0.295 HD
ENDBRANCH   9  10
ENDBRANCH   7   9
ENDBRANCH   4   7
ENDBRANCH   1   5
BRANCH   1  12
ATOM     12  S   UNL     1     -35.676  25.191   5.508  0.00  0.00    -0.064 S 
BRANCH  12  14
ATOM     13  O   UNL     1     -33.323  26.280   5.910  0.00  0.00    -0.279 OA
ATOM     14  C   UNL     1     -34.285  26.224   5.151  0.00  0.00    +0.228 C 
BRANCH  14  16
ATOM     15  S   UNL     1     -32.990  27.789   3.358  0.00  0.00    -0.083 S 
ATOM     16  C   UNL     1     -34.360  26.936   3.873  0.00  0.00    +0.074 C 
ATOM     17  C   UNL     1     -35.413  27.002   3.024  0.00  0.00    +0.011 C 
ATOM     18  C   UNL     1     -35.094  27.794   1.884  0.00  0.00    +0.008 C 
ATOM     19  C   UNL     1     -33.807  28.283   1.937  0.00  0.00    +0.036 C 
ENDBRANCH  14  16
ENDBRANCH  12  14
ENDBRANCH   1  12
TORSDOF 7
ENDMDL
MODEL 9
REMARK VINA RESULT:      -4.9      3.307      4.805
REMARK  Name = 54120
REMARK  7 active torsions:
REMARK  status: ('A' for Active; 'I' for Inactive)
REMARK    1  A    between atoms: C_1  and  C_5
REMARK    2  A    between atoms: C_1  and  S_12
REMARK    3  A    between atoms: N_4  and  C_7
REMARK    4  A    between atoms: C_7  and  C_9
REMARK    5  A    between atoms: C_9  and  O_10
REMARK    6  A    between atoms: S_12  and  C_14
REMARK    7  A    between atoms: C_14  and  C_16
REMARK                            x       y       z     vdW  Elec       q    Type
REMARK                         _______ _______ _______ _____ _____    ______ ____
ROOT
ATOM      1  C   UNL     1     -38.556  21.891   2.109  0.00  0.00    +0.131 C 
ATOM      2  C   UNL     1     -39.303  23.208   2.281  0.00  0.00    +0.022 C 
ENDROOT
BRANCH   1   5
ATOM      3  O   UNL     1     -40.433  20.969   0.895  0.00  0.00    -0.274 OA
ATOM      4  N   UNL     1     -38.292  20.269   0.333  0.00  0.00    -0.294 N 
ATOM      5  C   UNL     1     -39.215  21.003   1.064  0.00  0.00    +0.233 C 
ATOM      6  H   UNL     1     -37.336  20.367   0.546  0.00  0.00    +0.150 HD
BRANCH   4   7
ATOM      7  C   UNL     1     -38.678  19.369  -0.728  0.00  0.00    +0.200 C 
BRANCH   7   9
ATOM      8  O   UNL     1     -38.412  17.041  -1.280  0.00  0.00    -0.248 OA
ATOM      9  C   UNL     1     -38.113  17.982  -0.556  0.00  0.00    +0.334 C 
BRANCH   9  10
ATOM     10  O   UNL     1     -37.245  17.877   0.477  0.00  0.00    -0.479 OA
ATOM     11  H   UNL     1     -37.544  18.000   1.355  0.00  0.00    +0.295 HD
ENDBRANCH   9  10
ENDBRANCH   7   9
ENDBRANCH   4   7
ENDBRANCH   1   5
BRANCH   1  12
ATOM     12  S   UNL     1     -36.847  22.219   1.568  0.00  0.00    -0.064 S 
BRANCH  12  14
ATOM     13  O   UNL     1     -35.567  20.171   2.594  0.00  0.00    -0.279 OA
ATOM     14  C   UNL     1     -35.950  21.317   2.799  0.00  0.00    +0.228 C 
BRANCH  14  16
ATOM     15  S   UNL     1     -35.773  23.758   3.964  0.00  0.00    -0.083 S 
ATOM     16  C   UNL     1     -35.664  22.068   4.024  0.00  0.00    +0.074 C 
ATOM     17  C   UNL     1     -35.315  21.572   5.235  0.00  0.00    +0.011 C 
ATOM     18  C   UNL     1     -35.121  22.625   6.175  0.00  0.00    +0.008 C 
ATOM     19  C   UNL     1     -35.339  23.865   5.616  0.00  0.00    +0.036 C 
ENDBRANCH  14  16
ENDBRANCH  12  14
ENDBRANCH   1  12
TORSDOF 7
ENDMDL
