MODEL 1
REMARK VINA RESULT:      -6.1      0.000      0.000
REMARK  Name = 53468494
REMARK  9 active torsions:
REMARK  status: ('A' for Active; 'I' for Inactive)
REMARK    1  A    between atoms: N_2  and  CA_17
REMARK    2  A    between atoms: C_3  and  CA_8
REMARK    3  A    between atoms: C_9  and  C_14
REMARK    4  A    between atoms: CA_17  and  C_20
REMARK    5  A    between atoms: CA_17  and  CB_28
REMARK    6  A    between atoms: N_19  and  CA_22
REMARK    7  A    between atoms: CA_22  and  C_25
REMARK    8  A    between atoms: C_25  and  O_26
REMARK    9  A    between atoms: CB_28  and  CG_29
REMARK                            x       y       z     vdW  Elec       q    Type
REMARK                         _______ _______ _______ _____ _____    ______ ____
ROOT
ATOM      1  O   UNL     1     -36.415  19.528   2.089  0.00  0.00    -0.268 OA
ATOM      2  N   UNL     1     -34.500  20.671   1.405  0.00  0.00    -0.293 N 
ATOM      3  C   UNL     1     -35.757  20.556   1.973  0.00  0.00    +0.273 C 
ATOM      4  H   UNL     1     -34.080  21.561   1.375  0.00  0.00    +0.150 HD
ENDROOT
BRANCH   3   8
ATOM      5  O   UNL     1     -37.493  25.325   3.951  0.00  0.00    -0.268 OA
ATOM      6  N   UNL     1     -35.779  22.239   3.678  0.00  0.00    -0.400 NA
ATOM      7  N   UNL     1     -37.598  23.760   2.244  0.00  0.00    -0.294 N 
ATOM      8  CA  UNL     1     -36.283  21.843   2.462  0.00  0.00    +0.179 C 
ATOM      9  C   UNL     1     -36.176  23.373   4.163  0.00  0.00    +0.161 C 
ATOM     10  C   UNL     1     -37.172  22.552   1.740  0.00  0.00    +0.129 C 
ATOM     11  C   UNL     1     -37.161  24.264   3.445  0.00  0.00    +0.272 C 
ATOM     12  C   UNL     1     -37.787  22.184   0.420  0.00  0.00    +0.029 C 
ATOM     13  H   UNL     1     -38.246  24.286   1.721  0.00  0.00    +0.150 HD
BRANCH   9  14
ATOM     14  C   UNL     1     -35.656  23.853   5.488  0.00  0.00    +0.057 C 
ATOM     15  C   UNL     1     -34.429  24.724   5.266  0.00  0.00    +0.008 C 
ATOM     16  C   UNL     1     -35.341  22.648   6.360  0.00  0.00    +0.008 C 
ENDBRANCH   9  14
ENDBRANCH   3   8
BRANCH   2  17
ATOM     17  CA  UNL     1     -33.777  19.553   0.856  0.00  0.00    +0.149 C 
BRANCH  17  20
ATOM     18  O   UNL     1     -35.097  19.403  -1.172  0.00  0.00    -0.273 OA
ATOM     19  N   UNL     1     -35.001  17.562   0.240  0.00  0.00    -0.295 N 
ATOM     20  C   ACE A   1     -34.705  18.864  -0.140  0.00  0.00    +0.241 C 
ATOM     21  H   UNL     1     -34.635  17.228   1.090  0.00  0.00    +0.150 HD
BRANCH  19  22
ATOM     22  CA  UNL     1     -35.820  16.673  -0.552  0.00  0.00    +0.171 C 
ATOM     23  CB  UNL     1     -35.275  15.253  -0.496  0.00  0.00    +0.033 C 
BRANCH  22  25
ATOM     24  OXT UNL     1     -37.911  15.684   0.150  0.00  0.00    -0.248 OA
ATOM     25  C   UNL     1     -37.273  16.700  -0.108  0.00  0.00    +0.332 C 
BRANCH  25  26
ATOM     26  O   UNL     1     -37.818  17.936  -0.030  0.00  0.00    -0.479 OA
ATOM     27  H   UNL     1     -37.596  18.502   0.684  0.00  0.00    +0.295 HD
ENDBRANCH  25  26
ENDBRANCH  22  25
ENDBRANCH  19  22
ENDBRANCH  17  20
BRANCH  17  28
ATOM     28  CB  UNL     1     -32.480  19.985   0.161  0.00  0.00    +0.029 C 
BRANCH  28  29
ATOM     29  CG  UNL     1     -31.460  18.851  -0.066  0.00  0.00    +0.002 C 
ATOM     30  CD1 UNL     1     -31.410  17.948   1.169  0.00  0.00    +0.000 C 
ATOM     31  CD2 UNL     1     -30.058  19.381  -0.373  0.00  0.00    +0.000 C 
ENDBRANCH  28  29
ENDBRANCH  17  28
ENDBRANCH   2  17
TORSDOF 9
ENDMDL
MODEL 2
REMARK VINA RESULT:      -6.1      1.876      2.927
REMARK  Name = 53468494
REMARK  9 active torsions:
REMARK  status: ('A' for Active; 'I' for Inactive)
REMARK    1  A    between atoms: N_2  and  CA_17
REMARK    2  A    between atoms: C_3  and  CA_8
REMARK    3  A    between atoms: C_9  and  C_14
REMARK    4  A    between atoms: CA_17  and  C_20
REMARK    5  A    between atoms: CA_17  and  CB_28
REMARK    6  A    between atoms: N_19  and  CA_22
REMARK    7  A    between atoms: CA_22  and  C_25
REMARK    8  A    between atoms: C_25  and  O_26
REMARK    9  A    between atoms: CB_28  and  CG_29
REMARK                            x       y       z     vdW  Elec       q    Type
REMARK                         _______ _______ _______ _____ _____    ______ ____
ROOT
ATOM      1  O   UNL     1     -36.453  20.320   3.076  0.00  0.00    -0.268 OA
ATOM      2  N   UNL     1     -34.743  21.338   1.862  0.00  0.00    -0.293 N 
ATOM      3  C   UNL     1     -35.731  21.279   2.828  0.00  0.00    +0.273 C 
ATOM      4  H   UNL     1     -34.232  22.175   1.766  0.00  0.00    +0.150 HD
ENDROOT
BRANCH   3   8
ATOM      5  O   UNL     1     -36.369  26.014   5.444  0.00  0.00    -0.268 OA
ATOM      6  N   UNL     1     -36.275  23.613   2.844  0.00  0.00    -0.400 NA
ATOM      7  N   UNL     1     -35.779  23.775   5.565  0.00  0.00    -0.294 N 
ATOM      8  CA  UNL     1     -35.863  22.534   3.589  0.00  0.00    +0.179 C 
ATOM      9  C   UNL     1     -36.438  24.746   3.449  0.00  0.00    +0.161 C 
ATOM     10  C   UNL     1     -35.606  22.576   4.912  0.00  0.00    +0.129 C 
ATOM     11  C   UNL     1     -36.193  24.921   4.929  0.00  0.00    +0.272 C 
ATOM     12  C   UNL     1     -35.134  21.456   5.793  0.00  0.00    +0.029 C 
ATOM     13  H   UNL     1     -35.596  23.815   6.532  0.00  0.00    +0.150 HD
BRANCH   9  14
ATOM     14  C   UNL     1     -36.887  25.956   2.682  0.00  0.00    +0.057 C 
ATOM     15  C   UNL     1     -38.402  25.935   2.542  0.00  0.00    +0.008 C 
ATOM     16  C   UNL     1     -36.198  25.965   1.327  0.00  0.00    +0.008 C 
ENDBRANCH   9  14
ENDBRANCH   3   8
BRANCH   2  17
ATOM     17  CA  UNL     1     -34.424  20.237   0.991  0.00  0.00    +0.149 C 
BRANCH  17  20
ATOM     18  O   UNL     1     -35.497  20.887  -1.084  0.00  0.00    -0.273 OA
ATOM     19  N   UNL     1     -36.469  19.218   0.204  0.00  0.00    -0.295 N 
ATOM     20  C   ACE A   1     -35.511  20.182  -0.078  0.00  0.00    +0.241 C 
ATOM     21  H   UNL     1     -36.386  18.707   1.041  0.00  0.00    +0.150 HD
BRANCH  19  22
ATOM     22  CA  UNL     1     -37.581  18.926  -0.671  0.00  0.00    +0.171 C 
ATOM     23  CB  UNL     1     -37.875  17.433  -0.682  0.00  0.00    +0.033 C 
BRANCH  22  25
ATOM     24  OXT UNL     1     -39.827  19.764  -0.986  0.00  0.00    -0.248 OA
ATOM     25  C   UNL     1     -38.825  19.706  -0.280  0.00  0.00    +0.332 C 
BRANCH  25  26
ATOM     26  O   UNL     1     -38.740  20.349   0.909  0.00  0.00    -0.479 OA
ATOM     27  H   UNL     1     -38.968  21.255   0.970  0.00  0.00    +0.295 HD
ENDBRANCH  25  26
ENDBRANCH  22  25
ENDBRANCH  19  22
ENDBRANCH  17  20
BRANCH  17  28
ATOM     28  CB  UNL     1     -33.045  20.395   0.337  0.00  0.00    +0.029 C 
BRANCH  28  29
ATOM     29  CG  UNL     1     -32.252  19.082   0.177  0.00  0.00    +0.002 C 
ATOM     30  CD1 UNL     1     -32.519  18.169   1.377  0.00  0.00    +0.000 C 
ATOM     31  CD2 UNL     1     -30.747  19.323   0.039  0.00  0.00    +0.000 C 
ENDBRANCH  28  29
ENDBRANCH  17  28
ENDBRANCH   2  17
TORSDOF 9
ENDMDL
MODEL 3
REMARK VINA RESULT:      -6.0      2.551      4.016
REMARK  Name = 53468494
REMARK  9 active torsions:
REMARK  status: ('A' for Active; 'I' for Inactive)
REMARK    1  A    between atoms: N_2  and  CA_17
REMARK    2  A    between atoms: C_3  and  CA_8
REMARK    3  A    between atoms: C_9  and  C_14
REMARK    4  A    between atoms: CA_17  and  C_20
REMARK    5  A    between atoms: CA_17  and  CB_28
REMARK    6  A    between atoms: N_19  and  CA_22
REMARK    7  A    between atoms: CA_22  and  C_25
REMARK    8  A    between atoms: C_25  and  O_26
REMARK    9  A    between atoms: CB_28  and  CG_29
REMARK                            x       y       z     vdW  Elec       q    Type
REMARK                         _______ _______ _______ _____ _____    ______ ____
ROOT
ATOM      1  O   UNL     1     -37.340  22.193   3.125  0.00  0.00    -0.268 OA
ATOM      2  N   UNL     1     -35.174  21.747   2.385  0.00  0.00    -0.293 N 
ATOM      3  C   UNL     1     -36.138  22.431   3.105  0.00  0.00    +0.273 C 
ATOM      4  H   UNL     1     -34.237  22.043   2.459  0.00  0.00    +0.150 HD
ENDROOT
BRANCH   3   8
ATOM      5  O   UNL     1     -34.165  26.701   5.853  0.00  0.00    -0.268 OA
ATOM      6  N   UNL     1     -35.432  24.719   3.206  0.00  0.00    -0.400 NA
ATOM      7  N   UNL     1     -34.775  24.464   5.886  0.00  0.00    -0.294 N 
ATOM      8  CA  UNL     1     -35.579  23.540   3.898  0.00  0.00    +0.179 C 
ATOM      9  C   UNL     1     -34.970  25.748   3.844  0.00  0.00    +0.161 C 
ATOM     10  C   UNL     1     -35.265  23.377   5.198  0.00  0.00    +0.129 C 
ATOM     11  C   UNL     1     -34.591  25.696   5.305  0.00  0.00    +0.272 C 
ATOM     12  C   UNL     1     -35.373  22.125   6.021  0.00  0.00    +0.029 C 
ATOM     13  H   UNL     1     -34.546  24.355   6.838  0.00  0.00    +0.150 HD
BRANCH   9  14
ATOM     14  C   UNL     1     -34.791  27.059   3.135  0.00  0.00    +0.057 C 
ATOM     15  C   UNL     1     -35.961  27.290   2.192  0.00  0.00    +0.008 C 
ATOM     16  C   UNL     1     -33.464  27.041   2.392  0.00  0.00    +0.008 C 
ENDBRANCH   9  14
ENDBRANCH   3   8
BRANCH   2  17
ATOM     17  CA  UNL     1     -35.473  20.623   1.536  0.00  0.00    +0.149 C 
BRANCH  17  20
ATOM     18  O   UNL     1     -36.253  21.883  -0.383  0.00  0.00    -0.273 OA
ATOM     19  N   UNL     1     -37.742  20.483   0.718  0.00  0.00    -0.295 N 
ATOM     20  C   ACE A   1     -36.510  21.091   0.521  0.00  0.00    +0.241 C 
ATOM     21  H   UNL     1     -37.842  19.863   1.476  0.00  0.00    +0.150 HD
BRANCH  19  22
ATOM     22  CA  UNL     1     -38.885  20.714  -0.135  0.00  0.00    +0.171 C 
ATOM     23  CB  UNL     1     -39.211  19.465  -0.942  0.00  0.00    +0.033 C 
BRANCH  22  25
ATOM     24  OXT UNL     1     -41.114  21.610   0.135  0.00  0.00    -0.248 OA
ATOM     25  C   UNL     1     -40.100  21.161   0.660  0.00  0.00    +0.332 C 
BRANCH  25  26
ATOM     26  O   UNL     1     -39.975  21.037   2.003  0.00  0.00    -0.479 OA
ATOM     27  H   UNL     1     -39.147  20.809   2.377  0.00  0.00    +0.295 HD
ENDBRANCH  25  26
ENDBRANCH  22  25
ENDBRANCH  19  22
ENDBRANCH  17  20
BRANCH  17  28
ATOM     28  CB  UNL     1     -34.227  20.093   0.815  0.00  0.00    +0.029 C 
BRANCH  28  29
ATOM     29  CG  UNL     1     -33.952  18.589   1.020  0.00  0.00    +0.002 C 
ATOM     30  CD1 UNL     1     -32.469  18.373   1.330  0.00  0.00    +0.000 C 
ATOM     31  CD2 UNL     1     -34.350  17.753  -0.199  0.00  0.00    +0.000 C 
ENDBRANCH  28  29
ENDBRANCH  17  28
ENDBRANCH   2  17
TORSDOF 9
ENDMDL
MODEL 4
REMARK VINA RESULT:      -5.9      5.294      8.015
REMARK  Name = 53468494
REMARK  9 active torsions:
REMARK  status: ('A' for Active; 'I' for Inactive)
REMARK    1  A    between atoms: N_2  and  CA_17
REMARK    2  A    between atoms: C_3  and  CA_8
REMARK    3  A    between atoms: C_9  and  C_14
REMARK    4  A    between atoms: CA_17  and  C_20
REMARK    5  A    between atoms: CA_17  and  CB_28
REMARK    6  A    between atoms: N_19  and  CA_22
REMARK    7  A    between atoms: CA_22  and  C_25
REMARK    8  A    between atoms: C_25  and  O_26
REMARK    9  A    between atoms: CB_28  and  CG_29
REMARK                            x       y       z     vdW  Elec       q    Type
REMARK                         _______ _______ _______ _____ _____    ______ ____
ROOT
ATOM      1  O   UNL     1     -33.250  25.626   3.593  0.00  0.00    -0.268 OA
ATOM      2  N   UNL     1     -35.100  26.488   4.721  0.00  0.00    -0.293 N 
ATOM      3  C   UNL     1     -33.862  26.556   4.107  0.00  0.00    +0.273 C 
ATOM      4  H   UNL     1     -35.482  27.314   5.096  0.00  0.00    +0.150 HD
ENDROOT
BRANCH   3   8
ATOM      5  O   UNL     1     -31.572  31.494   4.302  0.00  0.00    -0.268 OA
ATOM      6  N   UNL     1     -32.440  28.171   5.161  0.00  0.00    -0.400 NA
ATOM      7  N   UNL     1     -33.008  30.045   3.201  0.00  0.00    -0.294 N 
ATOM      8  CA  UNL     1     -33.294  27.915   4.115  0.00  0.00    +0.179 C 
ATOM      9  C   UNL     1     -31.880  29.338   5.222  0.00  0.00    +0.161 C 
ATOM     10  C   UNL     1     -33.598  28.803   3.147  0.00  0.00    +0.129 C 
ATOM     11  C   UNL     1     -32.132  30.415   4.194  0.00  0.00    +0.272 C 
ATOM     12  C   UNL     1     -34.533  28.614   1.987  0.00  0.00    +0.029 C 
ATOM     13  H   UNL     1     -33.222  30.699   2.496  0.00  0.00    +0.150 HD
BRANCH   9  14
ATOM     14  C   UNL     1     -30.939  29.669   6.344  0.00  0.00    +0.057 C 
ATOM     15  C   UNL     1     -29.795  28.666   6.359  0.00  0.00    +0.008 C 
ATOM     16  C   UNL     1     -31.711  29.660   7.654  0.00  0.00    +0.008 C 
ENDBRANCH   9  14
ENDBRANCH   3   8
BRANCH   2  17
ATOM     17  CA  UNL     1     -35.856  25.268   4.839  0.00  0.00    +0.149 C 
BRANCH  17  20
ATOM     18  O   UNL     1     -36.185  24.927   2.461  0.00  0.00    -0.273 OA
ATOM     19  N   UNL     1     -38.047  25.212   3.819  0.00  0.00    -0.295 N 
ATOM     20  C   ACE A   1     -36.684  25.130   3.565  0.00  0.00    +0.241 C 
ATOM     21  H   UNL     1     -38.341  25.379   4.744  0.00  0.00    +0.150 HD
BRANCH  19  22
ATOM     22  CA  UNL     1     -39.054  25.064   2.794  0.00  0.00    +0.171 C 
ATOM     23  CB  UNL     1     -39.562  23.630   2.746  0.00  0.00    +0.033 C 
BRANCH  22  25
ATOM     24  OXT UNL     1     -40.524  26.881   2.174  0.00  0.00    -0.248 OA
ATOM     25  C   UNL     1     -40.211  26.028   2.998  0.00  0.00    +0.332 C 
BRANCH  25  26
ATOM     26  O   UNL     1     -40.868  25.882   4.173  0.00  0.00    -0.479 OA
ATOM     27  H   UNL     1     -41.184  26.637   4.630  0.00  0.00    +0.295 HD
ENDBRANCH  25  26
ENDBRANCH  22  25
ENDBRANCH  19  22
ENDBRANCH  17  20
BRANCH  17  28
ATOM     28  CB  UNL     1     -34.955  24.040   5.021  0.00  0.00    +0.029 C 
BRANCH  28  29
ATOM     29  CG  UNL     1     -35.707  22.700   5.152  0.00  0.00    +0.002 C 
ATOM     30  CD1 UNL     1     -35.323  22.020   6.469  0.00  0.00    +0.000 C 
ATOM     31  CD2 UNL     1     -35.422  21.756   3.983  0.00  0.00    +0.000 C 
ENDBRANCH  28  29
ENDBRANCH  17  28
ENDBRANCH   2  17
TORSDOF 9
ENDMDL
MODEL 5
REMARK VINA RESULT:      -5.8      5.046      9.804
REMARK  Name = 53468494
REMARK  9 active torsions:
REMARK  status: ('A' for Active; 'I' for Inactive)
REMARK    1  A    between atoms: N_2  and  CA_17
REMARK    2  A    between atoms: C_3  and  CA_8
REMARK    3  A    between atoms: C_9  and  C_14
REMARK    4  A    between atoms: CA_17  and  C_20
REMARK    5  A    between atoms: CA_17  and  CB_28
REMARK    6  A    between atoms: N_19  and  CA_22
REMARK    7  A    between atoms: CA_22  and  C_25
REMARK    8  A    between atoms: C_25  and  O_26
REMARK    9  A    between atoms: CB_28  and  CG_29
REMARK                            x       y       z     vdW  Elec       q    Type
REMARK                         _______ _______ _______ _____ _____    ______ ____
ROOT
ATOM      1  O   UNL     1     -32.292  26.089   3.011  0.00  0.00    -0.268 OA
ATOM      2  N   UNL     1     -33.265  27.561   4.535  0.00  0.00    -0.293 N 
ATOM      3  C   UNL     1     -33.250  26.485   3.666  0.00  0.00    +0.273 C 
ATOM      4  H   UNL     1     -34.106  27.773   5.002  0.00  0.00    +0.150 HD
ENDROOT
BRANCH   3   8
ATOM      5  O   UNL     1     -37.989  23.802   3.548  0.00  0.00    -0.268 OA
ATOM      6  N   UNL     1     -34.595  24.574   4.196  0.00  0.00    -0.400 NA
ATOM      7  N   UNL     1     -36.794  25.692   2.934  0.00  0.00    -0.294 N 
ATOM      8  CA  UNL     1     -34.553  25.801   3.579  0.00  0.00    +0.179 C 
ATOM      9  C   UNL     1     -35.715  23.922   4.184  0.00  0.00    +0.161 C 
ATOM     10  C   UNL     1     -35.599  26.374   2.951  0.00  0.00    +0.129 C 
ATOM     11  C   UNL     1     -36.961  24.461   3.522  0.00  0.00    +0.272 C 
ATOM     12  C   UNL     1     -35.632  27.694   2.237  0.00  0.00    +0.029 C 
ATOM     13  H   UNL     1     -37.565  26.104   2.480  0.00  0.00    +0.150 HD
BRANCH   9  14
ATOM     14  C   UNL     1     -35.815  22.577   4.843  0.00  0.00    +0.057 C 
ATOM     15  C   UNL     1     -34.982  22.572   6.116  0.00  0.00    +0.008 C 
ATOM     16  C   UNL     1     -35.350  21.512   3.863  0.00  0.00    +0.008 C 
ENDBRANCH   9  14
ENDBRANCH   3   8
BRANCH   2  17
ATOM     17  CA  UNL     1     -32.113  28.386   4.790  0.00  0.00    +0.149 C 
BRANCH  17  20
ATOM     18  O   UNL     1     -32.510  30.649   5.565  0.00  0.00    -0.273 OA
ATOM     19  N   UNL     1     -32.970  30.127   3.350  0.00  0.00    -0.295 N 
ATOM     20  C   ACE A   1     -32.558  29.837   4.643  0.00  0.00    +0.241 C 
ATOM     21  H   UNL     1     -32.970  29.400   2.685  0.00  0.00    +0.150 HD
BRANCH  19  22
ATOM     22  CA  UNL     1     -33.395  31.442   2.929  0.00  0.00    +0.171 C 
ATOM     23  CB  UNL     1     -32.639  31.875   1.681  0.00  0.00    +0.033 C 
BRANCH  22  25
ATOM     24  OXT UNL     1     -35.392  32.065   1.717  0.00  0.00    -0.248 OA
ATOM     25  C   UNL     1     -34.894  31.497   2.685  0.00  0.00    +0.332 C 
BRANCH  25  26
ATOM     26  O   UNL     1     -35.644  30.881   3.628  0.00  0.00    -0.479 OA
ATOM     27  H   UNL     1     -36.358  30.330   3.372  0.00  0.00    +0.295 HD
ENDBRANCH  25  26
ENDBRANCH  22  25
ENDBRANCH  19  22
ENDBRANCH  17  20
BRANCH  17  28
ATOM     28  CB  UNL     1     -31.528  28.150   6.189  0.00  0.00    +0.029 C 
BRANCH  28  29
ATOM     29  CG  UNL     1     -29.988  28.206   6.263  0.00  0.00    +0.002 C 
ATOM     30  CD1 UNL     1     -29.555  29.445   7.052  0.00  0.00    +0.000 C 
ATOM     31  CD2 UNL     1     -29.339  28.226   4.878  0.00  0.00    +0.000 C 
ENDBRANCH  28  29
ENDBRANCH  17  28
ENDBRANCH   2  17
TORSDOF 9
ENDMDL
MODEL 6
REMARK VINA RESULT:      -5.8     12.788     16.069
REMARK  Name = 53468494
REMARK  9 active torsions:
REMARK  status: ('A' for Active; 'I' for Inactive)
REMARK    1  A    between atoms: N_2  and  CA_17
REMARK    2  A    between atoms: C_3  and  CA_8
REMARK    3  A    between atoms: C_9  and  C_14
REMARK    4  A    between atoms: CA_17  and  C_20
REMARK    5  A    between atoms: CA_17  and  CB_28
REMARK    6  A    between atoms: N_19  and  CA_22
REMARK    7  A    between atoms: CA_22  and  C_25
REMARK    8  A    between atoms: C_25  and  O_26
REMARK    9  A    between atoms: CB_28  and  CG_29
REMARK                            x       y       z     vdW  Elec       q    Type
REMARK                         _______ _______ _______ _____ _____    ______ ____
ROOT
ATOM      1  O   UNL     1     -43.970  31.967   1.913  0.00  0.00    -0.268 OA
ATOM      2  N   UNL     1     -44.496  33.752   3.318  0.00  0.00    -0.293 N 
ATOM      3  C   UNL     1     -43.878  33.145   2.239  0.00  0.00    +0.273 C 
ATOM      4  H   UNL     1     -44.337  34.713   3.468  0.00  0.00    +0.150 HD
ENDROOT
BRANCH   3   8
ATOM      5  O   UNL     1     -40.593  36.473  -0.556  0.00  0.00    -0.268 OA
ATOM      6  N   UNL     1     -41.743  34.171   1.877  0.00  0.00    -0.400 NA
ATOM      7  N   UNL     1     -42.720  35.586  -0.297  0.00  0.00    -0.294 N 
ATOM      8  CA  UNL     1     -43.048  34.078   1.456  0.00  0.00    +0.179 C 
ATOM      9  C   UNL     1     -40.945  34.953   1.222  0.00  0.00    +0.161 C 
ATOM     10  C   UNL     1     -43.560  34.754   0.408  0.00  0.00    +0.129 C 
ATOM     11  C   UNL     1     -41.394  35.756   0.024  0.00  0.00    +0.272 C 
ATOM     12  C   UNL     1     -44.972  34.727  -0.103  0.00  0.00    +0.029 C 
ATOM     13  H   UNL     1     -43.084  36.082  -1.065  0.00  0.00    +0.150 HD
BRANCH   9  14
ATOM     14  C   UNL     1     -39.509  35.091   1.640  0.00  0.00    +0.057 C 
ATOM     15  C   UNL     1     -38.860  33.716   1.688  0.00  0.00    +0.008 C 
ATOM     16  C   UNL     1     -39.454  35.787   2.990  0.00  0.00    +0.008 C 
ENDBRANCH   9  14
ENDBRANCH   3   8
BRANCH   2  17
ATOM     17  CA  UNL     1     -45.358  33.049   4.232  0.00  0.00    +0.149 C 
BRANCH  17  20
ATOM     18  O   UNL     1     -43.647  32.161   5.702  0.00  0.00    -0.273 OA
ATOM     19  N   UNL     1     -44.917  30.682   4.441  0.00  0.00    -0.295 N 
ATOM     20  C   ACE A   1     -44.526  31.942   4.872  0.00  0.00    +0.241 C 
ATOM     21  H   UNL     1     -45.634  30.619   3.769  0.00  0.00    +0.150 HD
BRANCH  19  22
ATOM     22  CA  UNL     1     -44.324  29.458   4.930  0.00  0.00    +0.171 C 
ATOM     23  CB  UNL     1     -45.299  28.298   4.788  0.00  0.00    +0.033 C 
BRANCH  22  25
ATOM     24  OXT UNL     1     -41.995  28.822   4.814  0.00  0.00    -0.248 OA
ATOM     25  C   UNL     1     -43.019  29.142   4.219  0.00  0.00    +0.332 C 
BRANCH  25  26
ATOM     26  O   UNL     1     -43.068  29.252   2.870  0.00  0.00    -0.479 OA
ATOM     27  H   UNL     1     -42.320  29.560   2.398  0.00  0.00    +0.295 HD
ENDBRANCH  25  26
ENDBRANCH  22  25
ENDBRANCH  19  22
ENDBRANCH  17  20
BRANCH  17  28
ATOM     28  CB  UNL     1     -45.935  33.972   5.313  0.00  0.00    +0.029 C 
BRANCH  28  29
ATOM     29  CG  UNL     1     -47.308  33.540   5.866  0.00  0.00    +0.002 C 
ATOM     30  CD1 UNL     1     -48.160  34.779   6.156  0.00  0.00    +0.000 C 
ATOM     31  CD2 UNL     1     -47.185  32.692   7.133  0.00  0.00    +0.000 C 
ENDBRANCH  28  29
ENDBRANCH  17  28
ENDBRANCH   2  17
TORSDOF 9
ENDMDL
MODEL 7
REMARK VINA RESULT:      -5.8      4.009      9.127
REMARK  Name = 53468494
REMARK  9 active torsions:
REMARK  status: ('A' for Active; 'I' for Inactive)
REMARK    1  A    between atoms: N_2  and  CA_17
REMARK    2  A    between atoms: C_3  and  CA_8
REMARK    3  A    between atoms: C_9  and  C_14
REMARK    4  A    between atoms: CA_17  and  C_20
REMARK    5  A    between atoms: CA_17  and  CB_28
REMARK    6  A    between atoms: N_19  and  CA_22
REMARK    7  A    between atoms: CA_22  and  C_25
REMARK    8  A    between atoms: C_25  and  O_26
REMARK    9  A    between atoms: CB_28  and  CG_29
REMARK                            x       y       z     vdW  Elec       q    Type
REMARK                         _______ _______ _______ _____ _____    ______ ____
ROOT
ATOM      1  O   UNL     1     -36.616  25.339   5.090  0.00  0.00    -0.268 OA
ATOM      2  N   UNL     1     -35.022  25.748   3.437  0.00  0.00    -0.293 N 
ATOM      3  C   UNL     1     -35.903  24.967   4.165  0.00  0.00    +0.273 C 
ATOM      4  H   UNL     1     -34.506  25.322   2.715  0.00  0.00    +0.150 HD
ENDROOT
BRANCH   3   8
ATOM      5  O   UNL     1     -35.979  19.863   2.263  0.00  0.00    -0.268 OA
ATOM      6  N   UNL     1     -36.300  23.386   2.408  0.00  0.00    -0.400 NA
ATOM      7  N   UNL     1     -35.597  21.276   4.061  0.00  0.00    -0.294 N 
ATOM      8  CA  UNL     1     -35.925  23.563   3.719  0.00  0.00    +0.179 C 
ATOM      9  C   UNL     1     -36.319  22.181   1.935  0.00  0.00    +0.161 C 
ATOM     10  C   UNL     1     -35.582  22.562   4.553  0.00  0.00    +0.129 C 
ATOM     11  C   UNL     1     -35.947  20.976   2.766  0.00  0.00    +0.272 C 
ATOM     12  C   UNL     1     -35.184  22.664   5.997  0.00  0.00    +0.029 C 
ATOM     13  H   UNL     1     -35.345  20.539   4.663  0.00  0.00    +0.150 HD
BRANCH   9  14
ATOM     14  C   UNL     1     -36.721  21.933   0.510  0.00  0.00    +0.057 C 
ATOM     15  C   UNL     1     -36.095  22.992  -0.385  0.00  0.00    +0.008 C 
ATOM     16  C   UNL     1     -38.238  21.943   0.417  0.00  0.00    +0.008 C 
ENDBRANCH   9  14
ENDBRANCH   3   8
BRANCH   2  17
ATOM     17  CA  UNL     1     -34.824  27.153   3.684  0.00  0.00    +0.149 C 
BRANCH  17  20
ATOM     18  O   UNL     1     -32.543  26.428   4.074  0.00  0.00    -0.273 OA
ATOM     19  N   UNL     1     -33.115  28.628   4.546  0.00  0.00    -0.295 N 
ATOM     20  C   ACE A   1     -33.376  27.330   4.129  0.00  0.00    +0.241 C 
ATOM     21  H   UNL     1     -33.857  29.276   4.551  0.00  0.00    +0.150 HD
BRANCH  19  22
ATOM     22  CA  UNL     1     -31.809  29.077   4.972  0.00  0.00    +0.171 C 
ATOM     23  CB  UNL     1     -31.649  30.569   4.722  0.00  0.00    +0.033 C 
BRANCH  22  25
ATOM     24  OXT UNL     1     -31.747  29.560   7.339  0.00  0.00    -0.248 OA
ATOM     25  C   UNL     1     -31.552  28.755   6.434  0.00  0.00    +0.332 C 
BRANCH  25  26
ATOM     26  O   UNL     1     -31.078  27.508   6.665  0.00  0.00    -0.479 OA
ATOM     27  H   UNL     1     -31.660  26.829   6.943  0.00  0.00    +0.295 HD
ENDBRANCH  25  26
ENDBRANCH  22  25
ENDBRANCH  19  22
ENDBRANCH  17  20
BRANCH  17  28
ATOM     28  CB  UNL     1     -35.105  28.006   2.440  0.00  0.00    +0.029 C 
BRANCH  28  29
ATOM     29  CG  UNL     1     -34.379  27.542   1.161  0.00  0.00    +0.002 C 
ATOM     30  CD1 UNL     1     -33.480  28.666   0.642  0.00  0.00    +0.000 C 
ATOM     31  CD2 UNL     1     -35.353  27.113   0.062  0.00  0.00    +0.000 C 
ENDBRANCH  28  29
ENDBRANCH  17  28
ENDBRANCH   2  17
TORSDOF 9
ENDMDL
MODEL 8
REMARK VINA RESULT:      -5.7     14.613     17.252
REMARK  Name = 53468494
REMARK  9 active torsions:
REMARK  status: ('A' for Active; 'I' for Inactive)
REMARK    1  A    between atoms: N_2  and  CA_17
REMARK    2  A    between atoms: C_3  and  CA_8
REMARK    3  A    between atoms: C_9  and  C_14
REMARK    4  A    between atoms: CA_17  and  C_20
REMARK    5  A    between atoms: CA_17  and  CB_28
REMARK    6  A    between atoms: N_19  and  CA_22
REMARK    7  A    between atoms: CA_22  and  C_25
REMARK    8  A    between atoms: C_25  and  O_26
REMARK    9  A    between atoms: CB_28  and  CG_29
REMARK                            x       y       z     vdW  Elec       q    Type
REMARK                         _______ _______ _______ _____ _____    ______ ____
ROOT
ATOM      1  O   UNL     1     -42.585  32.544   1.012  0.00  0.00    -0.268 OA
ATOM      2  N   UNL     1     -42.581  34.751   1.765  0.00  0.00    -0.293 N 
ATOM      3  C   UNL     1     -43.088  33.470   1.639  0.00  0.00    +0.273 C 
ATOM      4  H   UNL     1     -43.087  35.404   2.302  0.00  0.00    +0.150 HD
ENDROOT
BRANCH   3   8
ATOM      5  O   UNL     1     -47.645  32.721   4.528  0.00  0.00    -0.268 OA
ATOM      6  N   UNL     1     -44.253  32.562   3.526  0.00  0.00    -0.400 NA
ATOM      7  N   UNL     1     -46.653  33.621   2.635  0.00  0.00    -0.294 N 
ATOM      8  CA  UNL     1     -44.359  33.284   2.361  0.00  0.00    +0.179 C 
ATOM      9  C   UNL     1     -45.324  32.378   4.230  0.00  0.00    +0.161 C 
ATOM     10  C   UNL     1     -45.509  33.809   1.894  0.00  0.00    +0.129 C 
ATOM     11  C   UNL     1     -46.671  32.924   3.819  0.00  0.00    +0.272 C 
ATOM     12  C   UNL     1     -45.716  34.587   0.626  0.00  0.00    +0.029 C 
ATOM     13  H   UNL     1     -47.498  34.003   2.302  0.00  0.00    +0.150 HD
BRANCH   9  14
ATOM     14  C   UNL     1     -45.263  31.597   5.512  0.00  0.00    +0.057 C 
ATOM     15  C   UNL     1     -43.889  31.764   6.142  0.00  0.00    +0.008 C 
ATOM     16  C   UNL     1     -45.573  30.139   5.215  0.00  0.00    +0.008 C 
ENDBRANCH   9  14
ENDBRANCH   3   8
BRANCH   2  17
ATOM     17  CA  UNL     1     -41.350  35.177   1.151  0.00  0.00    +0.149 C 
BRANCH  17  20
ATOM     18  O   UNL     1     -41.084  35.960  -1.128  0.00  0.00    -0.273 OA
ATOM     19  N   UNL     1     -42.881  36.737   0.120  0.00  0.00    -0.295 N 
ATOM     20  C   ACE A   1     -41.723  35.998  -0.079  0.00  0.00    +0.241 C 
ATOM     21  H   UNL     1     -43.316  36.696   1.002  0.00  0.00    +0.150 HD
BRANCH  19  22
ATOM     22  CA  UNL     1     -43.480  37.563  -0.903  0.00  0.00    +0.171 C 
ATOM     23  CB  UNL     1     -44.989  37.628  -0.721  0.00  0.00    +0.033 C 
BRANCH  22  25
ATOM     24  OXT UNL     1     -42.064  39.331  -1.747  0.00  0.00    -0.248 OA
ATOM     25  C   UNL     1     -42.888  38.962  -0.915  0.00  0.00    +0.332 C 
BRANCH  25  26
ATOM     26  O   UNL     1     -43.330  39.773   0.074  0.00  0.00    -0.479 OA
ATOM     27  H   UNL     1     -44.166  39.618   0.468  0.00  0.00    +0.295 HD
ENDBRANCH  25  26
ENDBRANCH  22  25
ENDBRANCH  19  22
ENDBRANCH  17  20
BRANCH  17  28
ATOM     28  CB  UNL     1     -40.485  36.012   2.103  0.00  0.00    +0.029 C 
BRANCH  28  29
ATOM     29  CG  UNL     1     -39.036  35.509   2.270  0.00  0.00    +0.002 C 
ATOM     30  CD1 UNL     1     -38.107  36.295   1.341  0.00  0.00    +0.000 C 
ATOM     31  CD2 UNL     1     -38.904  34.012   1.983  0.00  0.00    +0.000 C 
ENDBRANCH  28  29
ENDBRANCH  17  28
ENDBRANCH   2  17
TORSDOF 9
ENDMDL
MODEL 9
REMARK VINA RESULT:      -5.7      1.246      2.783
REMARK  Name = 53468494
REMARK  9 active torsions:
REMARK  status: ('A' for Active; 'I' for Inactive)
REMARK    1  A    between atoms: N_2  and  CA_17
REMARK    2  A    between atoms: C_3  and  CA_8
REMARK    3  A    between atoms: C_9  and  C_14
REMARK    4  A    between atoms: CA_17  and  C_20
REMARK    5  A    between atoms: CA_17  and  CB_28
REMARK    6  A    between atoms: N_19  and  CA_22
REMARK    7  A    between atoms: CA_22  and  C_25
REMARK    8  A    between atoms: C_25  and  O_26
REMARK    9  A    between atoms: CB_28  and  CG_29
REMARK                            x       y       z     vdW  Elec       q    Type
REMARK                         _______ _______ _______ _____ _____    ______ ____
ROOT
ATOM      1  O   UNL     1     -35.220  20.561   3.892  0.00  0.00    -0.268 OA
ATOM      2  N   UNL     1     -35.256  20.964   1.595  0.00  0.00    -0.293 N 
ATOM      3  C   UNL     1     -35.553  21.230   2.920  0.00  0.00    +0.273 C 
ATOM      4  H   UNL     1     -35.586  21.587   0.907  0.00  0.00    +0.150 HD
ENDROOT
BRANCH   3   8
ATOM      5  O   UNL     1     -38.670  25.675   3.365  0.00  0.00    -0.268 OA
ATOM      6  N   UNL     1     -37.203  22.733   2.050  0.00  0.00    -0.400 NA
ATOM      7  N   UNL     1     -37.036  24.328   4.310  0.00  0.00    -0.294 N 
ATOM      8  CA  UNL     1     -36.351  22.457   3.092  0.00  0.00    +0.179 C 
ATOM      9  C   UNL     1     -37.957  23.783   2.139  0.00  0.00    +0.161 C 
ATOM     10  C   UNL     1     -36.238  23.211   4.203  0.00  0.00    +0.129 C 
ATOM     11  C   UNL     1     -37.931  24.703   3.336  0.00  0.00    +0.272 C 
ATOM     12  C   UNL     1     -35.322  22.994   5.372  0.00  0.00    +0.029 C 
ATOM     13  H   UNL     1     -36.962  24.884   5.119  0.00  0.00    +0.150 HD
BRANCH   9  14
ATOM     14  C   UNL     1     -38.906  24.130   1.028  0.00  0.00    +0.057 C 
ATOM     15  C   UNL     1     -40.143  23.249   1.124  0.00  0.00    +0.008 C 
ATOM     16  C   UNL     1     -38.193  23.956  -0.303  0.00  0.00    +0.008 C 
ENDBRANCH   9  14
ENDBRANCH   3   8
BRANCH   2  17
ATOM     17  CA  UNL     1     -34.486  19.822   1.173  0.00  0.00    +0.149 C 
BRANCH  17  20
ATOM     18  O   UNL     1     -35.716  19.674  -0.911  0.00  0.00    -0.273 OA
ATOM     19  N   UNL     1     -35.453  17.757   0.372  0.00  0.00    -0.295 N 
ATOM     20  C   ACE A   1     -35.297  19.109   0.096  0.00  0.00    +0.241 C 
ATOM     21  H   UNL     1     -35.078  17.405   1.212  0.00  0.00    +0.150 HD
BRANCH  19  22
ATOM     22  CA  UNL     1     -36.139  16.842  -0.510  0.00  0.00    +0.171 C 
ATOM     23  CB  UNL     1     -35.461  15.479  -0.500  0.00  0.00    +0.033 C 
BRANCH  22  25
ATOM     24  OXT UNL     1     -38.107  15.647   0.227  0.00  0.00    -0.248 OA
ATOM     25  C   UNL     1     -37.608  16.704  -0.148  0.00  0.00    +0.332 C 
BRANCH  25  26
ATOM     26  O   UNL     1     -38.334  17.839  -0.282  0.00  0.00    -0.479 OA
ATOM     27  H   UNL     1     -39.019  18.031   0.327  0.00  0.00    +0.295 HD
ENDBRANCH  25  26
ENDBRANCH  22  25
ENDBRANCH  19  22
ENDBRANCH  17  20
BRANCH  17  28
ATOM     28  CB  UNL     1     -33.110  20.221   0.624  0.00  0.00    +0.029 C 
BRANCH  28  29
ATOM     29  CG  UNL     1     -32.187  19.036   0.272  0.00  0.00    +0.002 C 
ATOM     30  CD1 UNL     1     -32.126  18.062   1.452  0.00  0.00    +0.000 C 
ATOM     31  CD2 UNL     1     -30.773  19.488  -0.095  0.00  0.00    +0.000 C 
ENDBRANCH  28  29
ENDBRANCH  17  28
ENDBRANCH   2  17
TORSDOF 9
ENDMDL
