MODEL 1
REMARK VINA RESULT:      -6.5      0.000      0.000
REMARK  Name = 5473310
REMARK  5 active torsions:
REMARK  status: ('A' for Active; 'I' for Inactive)
REMARK    1  A    between atoms: C_5  and  C_12
REMARK    2  A    between atoms: C_8  and  O_22
REMARK    3  A    between atoms: C_10  and  O_24
REMARK    4  A    between atoms: C_15  and  O_18
REMARK    5  A    between atoms: C_17  and  O_20
REMARK                            x       y       z     vdW  Elec       q    Type
REMARK                         _______ _______ _______ _____ _____    ______ ____
ROOT
ATOM      1  O   UNL     1     -33.508  26.063   6.109  0.00  0.00    -0.421 OA
ATOM      2  O   UNL     1     -32.697  27.275   7.845  0.00  0.00    -0.244 OA
ATOM      3  C   UNL     1     -32.596  27.991   4.304  0.00  0.00    +0.015 C 
ATOM      4  C   UNL     1     -32.384  28.163   5.676  0.00  0.00    +0.110 C 
ATOM      5  C   UNL     1     -33.710  25.899   4.717  0.00  0.00    +0.149 C 
ATOM      6  C   UNL     1     -33.292  26.806   3.825  0.00  0.00    +0.038 C 
ATOM      7  C   UNL     1     -32.135  28.962   3.409  0.00  0.00    +0.037 C 
ATOM      8  C   UNL     1     -31.716  29.298   6.148  0.00  0.00    +0.143 C 
ATOM      9  C   UNL     1     -32.866  27.147   6.640  0.00  0.00    +0.349 C 
ATOM     10  C   UNL     1     -31.469  30.094   3.881  0.00  0.00    +0.137 C 
ATOM     11  C   UNL     1     -31.260  30.261   5.248  0.00  0.00    +0.073 C 
ENDROOT
BRANCH   5  12
ATOM     12  C   UNL     1     -34.432  24.667   4.347  0.00  0.00    +0.038 C 
ATOM     13  C   UNL     1     -34.909  23.806   5.339  0.00  0.00    +0.043 C 
ATOM     14  C   UNL     1     -34.641  24.352   3.001  0.00  0.00    +0.006 C 
ATOM     15  C   UNL     1     -35.590  22.639   4.988  0.00  0.00    +0.168 C 
ATOM     16  C   UNL     1     -35.322  23.186   2.650  0.00  0.00    +0.040 C 
ATOM     17  C   UNL     1     -35.797  22.330   3.644  0.00  0.00    +0.167 C 
BRANCH  15  18
ATOM     18  O   UNL     1     -36.049  21.811   5.968  0.00  0.00    -0.503 OA
ATOM     19  H   UNL     1     -35.752  20.923   6.008  0.00  0.00    +0.292 HD
ENDBRANCH  15  18
BRANCH  17  20
ATOM     20  O   UNL     1     -36.461  21.196   3.289  0.00  0.00    -0.503 OA
ATOM     21  H   UNL     1     -36.053  20.360   3.400  0.00  0.00    +0.292 HD
ENDBRANCH  17  20
ENDBRANCH   5  12
BRANCH   8  22
ATOM     22  O   UNL     1     -31.482  29.518   7.473  0.00  0.00    -0.505 OA
ATOM     23  H   UNL     1     -32.161  29.867   8.017  0.00  0.00    +0.292 HD
ENDBRANCH   8  22
BRANCH  10  24
ATOM     24  O   UNL     1     -31.022  31.035   3.005  0.00  0.00    -0.505 OA
ATOM     25  H   UNL     1     -30.305  31.591   3.238  0.00  0.00    +0.292 HD
ENDBRANCH  10  24
TORSDOF 5
ENDMDL
MODEL 2
REMARK VINA RESULT:      -6.5      1.280      2.561
REMARK  Name = 5473310
REMARK  5 active torsions:
REMARK  status: ('A' for Active; 'I' for Inactive)
REMARK    1  A    between atoms: C_5  and  C_12
REMARK    2  A    between atoms: C_8  and  O_22
REMARK    3  A    between atoms: C_10  and  O_24
REMARK    4  A    between atoms: C_15  and  O_18
REMARK    5  A    between atoms: C_17  and  O_20
REMARK                            x       y       z     vdW  Elec       q    Type
REMARK                         _______ _______ _______ _____ _____    ______ ____
ROOT
ATOM      1  O   UNL     1     -33.991  26.524   3.036  0.00  0.00    -0.421 OA
ATOM      2  O   UNL     1     -33.492  28.509   2.059  0.00  0.00    -0.244 OA
ATOM      3  C   UNL     1     -32.879  27.399   5.444  0.00  0.00    +0.015 C 
ATOM      4  C   UNL     1     -32.888  28.246   4.331  0.00  0.00    +0.110 C 
ATOM      5  C   UNL     1     -33.979  25.679   4.172  0.00  0.00    +0.149 C 
ATOM      6  C   UNL     1     -33.449  26.064   5.340  0.00  0.00    +0.038 C 
ATOM      7  C   UNL     1     -32.319  27.848   6.646  0.00  0.00    +0.037 C 
ATOM      8  C   UNL     1     -32.343  29.532   4.419  0.00  0.00    +0.143 C 
ATOM      9  C   UNL     1     -33.474  27.789   3.049  0.00  0.00    +0.349 C 
ATOM     10  C   UNL     1     -31.775  29.130   6.733  0.00  0.00    +0.137 C 
ATOM     11  C   UNL     1     -31.787  29.970   5.621  0.00  0.00    +0.073 C 
ENDROOT
BRANCH   5  12
ATOM     12  C   UNL     1     -34.577  24.349   3.949  0.00  0.00    +0.038 C 
ATOM     13  C   UNL     1     -34.972  23.564   5.036  0.00  0.00    +0.043 C 
ATOM     14  C   UNL     1     -34.751  23.866   2.650  0.00  0.00    +0.006 C 
ATOM     15  C   UNL     1     -35.537  22.306   4.824  0.00  0.00    +0.168 C 
ATOM     16  C   UNL     1     -35.315  22.608   2.438  0.00  0.00    +0.040 C 
ATOM     17  C   UNL     1     -35.709  21.828   3.525  0.00  0.00    +0.167 C 
BRANCH  15  18
ATOM     18  O   UNL     1     -35.917  21.553   5.895  0.00  0.00    -0.503 OA
ATOM     19  H   UNL     1     -36.692  21.776   6.372  0.00  0.00    +0.292 HD
ENDBRANCH  15  18
BRANCH  17  20
ATOM     20  O   UNL     1     -36.259  20.602   3.306  0.00  0.00    -0.503 OA
ATOM     21  H   UNL     1     -36.254  20.234   2.444  0.00  0.00    +0.292 HD
ENDBRANCH  17  20
ENDBRANCH   5  12
BRANCH   8  22
ATOM     22  O   UNL     1     -32.324  30.399   3.367  0.00  0.00    -0.505 OA
ATOM     23  H   UNL     1     -32.664  31.267   3.469  0.00  0.00    +0.292 HD
ENDBRANCH   8  22
BRANCH  10  24
ATOM     24  O   UNL     1     -31.233  29.560   7.904  0.00  0.00    -0.505 OA
ATOM     25  H   UNL     1     -31.503  30.378   8.274  0.00  0.00    +0.292 HD
ENDBRANCH  10  24
TORSDOF 5
ENDMDL
MODEL 3
REMARK VINA RESULT:      -6.4      4.393      9.021
REMARK  Name = 5473310
REMARK  5 active torsions:
REMARK  status: ('A' for Active; 'I' for Inactive)
REMARK    1  A    between atoms: C_5  and  C_12
REMARK    2  A    between atoms: C_8  and  O_22
REMARK    3  A    between atoms: C_10  and  O_24
REMARK    4  A    between atoms: C_15  and  O_18
REMARK    5  A    between atoms: C_17  and  O_20
REMARK                            x       y       z     vdW  Elec       q    Type
REMARK                         _______ _______ _______ _____ _____    ______ ____
ROOT
ATOM      1  O   UNL     1     -37.147  21.573   1.720  0.00  0.00    -0.421 OA
ATOM      2  O   UNL     1     -38.213  20.243   0.226  0.00  0.00    -0.244 OA
ATOM      3  C   UNL     1     -34.867  19.968   1.563  0.00  0.00    +0.015 C 
ATOM      4  C   UNL     1     -35.996  19.653   0.801  0.00  0.00    +0.110 C 
ATOM      5  C   UNL     1     -35.994  21.883   2.483  0.00  0.00    +0.149 C 
ATOM      6  C   UNL     1     -34.887  21.132   2.436  0.00  0.00    +0.038 C 
ATOM      7  C   UNL     1     -33.729  19.157   1.476  0.00  0.00    +0.037 C 
ATOM      8  C   UNL     1     -35.988  18.536  -0.043  0.00  0.00    +0.143 C 
ATOM      9  C   UNL     1     -37.210  20.498   0.880  0.00  0.00    +0.349 C 
ATOM     10  C   UNL     1     -33.722  18.043   0.636  0.00  0.00    +0.137 C 
ATOM     11  C   UNL     1     -34.849  17.734  -0.122  0.00  0.00    +0.073 C 
ENDROOT
BRANCH   5  12
ATOM     12  C   UNL     1     -36.131  23.079   3.335  0.00  0.00    +0.038 C 
ATOM     13  C   UNL     1     -37.113  24.034   3.057  0.00  0.00    +0.043 C 
ATOM     14  C   UNL     1     -35.277  23.265   4.426  0.00  0.00    +0.006 C 
ATOM     15  C   UNL     1     -37.241  25.166   3.863  0.00  0.00    +0.168 C 
ATOM     16  C   UNL     1     -35.405  24.397   5.232  0.00  0.00    +0.040 C 
ATOM     17  C   UNL     1     -36.387  25.346   4.951  0.00  0.00    +0.167 C 
BRANCH  15  18
ATOM     18  O   UNL     1     -38.204  26.086   3.578  0.00  0.00    -0.503 OA
ATOM     19  H   UNL     1     -38.082  26.982   3.822  0.00  0.00    +0.292 HD
ENDBRANCH  15  18
BRANCH  17  20
ATOM     20  O   UNL     1     -36.502  26.446   5.746  0.00  0.00    -0.503 OA
ATOM     21  H   UNL     1     -36.670  26.346   6.662  0.00  0.00    +0.292 HD
ENDBRANCH  17  20
ENDBRANCH   5  12
BRANCH   8  22
ATOM     22  O   UNL     1     -37.059  18.181  -0.808  0.00  0.00    -0.505 OA
ATOM     23  H   UNL     1     -37.928  18.385  -0.520  0.00  0.00    +0.292 HD
ENDBRANCH   8  22
BRANCH  10  24
ATOM     24  O   UNL     1     -32.613  17.259   0.556  0.00  0.00    -0.505 OA
ATOM     25  H   UNL     1     -32.329  16.930  -0.275  0.00  0.00    +0.292 HD
ENDBRANCH  10  24
TORSDOF 5
ENDMDL
MODEL 4
REMARK VINA RESULT:      -6.4      2.118      7.501
REMARK  Name = 5473310
REMARK  5 active torsions:
REMARK  status: ('A' for Active; 'I' for Inactive)
REMARK    1  A    between atoms: C_5  and  C_12
REMARK    2  A    between atoms: C_8  and  O_22
REMARK    3  A    between atoms: C_10  and  O_24
REMARK    4  A    between atoms: C_15  and  O_18
REMARK    5  A    between atoms: C_17  and  O_20
REMARK                            x       y       z     vdW  Elec       q    Type
REMARK                         _______ _______ _______ _____ _____    ______ ____
ROOT
ATOM      1  O   UNL     1     -35.980  26.168   3.775  0.00  0.00    -0.421 OA
ATOM      2  O   UNL     1     -37.950  26.124   2.652  0.00  0.00    -0.244 OA
ATOM      3  C   UNL     1     -35.752  23.394   3.534  0.00  0.00    +0.015 C 
ATOM      4  C   UNL     1     -36.860  24.053   2.991  0.00  0.00    +0.110 C 
ATOM      5  C   UNL     1     -34.862  25.488   4.316  0.00  0.00    +0.149 C 
ATOM      6  C   UNL     1     -34.724  24.159   4.224  0.00  0.00    +0.038 C 
ATOM      7  C   UNL     1     -35.648  22.004   3.408  0.00  0.00    +0.037 C 
ATOM      8  C   UNL     1     -37.854  23.328   2.326  0.00  0.00    +0.143 C 
ATOM      9  C   UNL     1     -36.990  25.523   3.116  0.00  0.00    +0.349 C 
ATOM     10  C   UNL     1     -36.641  21.282   2.745  0.00  0.00    +0.137 C 
ATOM     11  C   UNL     1     -37.741  21.943   2.205  0.00  0.00    +0.073 C 
ENDROOT
BRANCH   5  12
ATOM     12  C   UNL     1     -33.888  26.362   4.997  0.00  0.00    +0.038 C 
ATOM     13  C   UNL     1     -33.159  27.306   4.268  0.00  0.00    +0.043 C 
ATOM     14  C   UNL     1     -33.688  26.250   6.375  0.00  0.00    +0.006 C 
ATOM     15  C   UNL     1     -32.237  28.131   4.913  0.00  0.00    +0.168 C 
ATOM     16  C   UNL     1     -32.766  27.075   7.020  0.00  0.00    +0.040 C 
ATOM     17  C   UNL     1     -32.042  28.017   6.289  0.00  0.00    +0.167 C 
BRANCH  15  18
ATOM     18  O   UNL     1     -31.536  29.047   4.187  0.00  0.00    -0.503 OA
ATOM     19  H   UNL     1     -30.761  29.433   4.545  0.00  0.00    +0.292 HD
ENDBRANCH  15  18
BRANCH  17  20
ATOM     20  O   UNL     1     -31.146  28.817   6.930  0.00  0.00    -0.503 OA
ATOM     21  H   UNL     1     -31.393  29.683   7.188  0.00  0.00    +0.292 HD
ENDBRANCH  17  20
ENDBRANCH   5  12
BRANCH   8  22
ATOM     22  O   UNL     1     -38.955  23.917   1.777  0.00  0.00    -0.505 OA
ATOM     23  H   UNL     1     -39.380  24.623   2.224  0.00  0.00    +0.292 HD
ENDBRANCH   8  22
BRANCH  10  24
ATOM     24  O   UNL     1     -36.532  19.931   2.625  0.00  0.00    -0.505 OA
ATOM     25  H   UNL     1     -36.657  19.522   1.791  0.00  0.00    +0.292 HD
ENDBRANCH  10  24
TORSDOF 5
ENDMDL
MODEL 5
REMARK VINA RESULT:      -6.4      1.587      7.317
REMARK  Name = 5473310
REMARK  5 active torsions:
REMARK  status: ('A' for Active; 'I' for Inactive)
REMARK    1  A    between atoms: C_5  and  C_12
REMARK    2  A    between atoms: C_8  and  O_22
REMARK    3  A    between atoms: C_10  and  O_24
REMARK    4  A    between atoms: C_15  and  O_18
REMARK    5  A    between atoms: C_17  and  O_20
REMARK                            x       y       z     vdW  Elec       q    Type
REMARK                         _______ _______ _______ _____ _____    ______ ____
ROOT
ATOM      1  O   UNL     1     -33.987  26.212   2.882  0.00  0.00    -0.421 OA
ATOM      2  O   UNL     1     -34.850  24.990   1.179  0.00  0.00    -0.244 OA
ATOM      3  C   UNL     1     -34.496  24.128   4.670  0.00  0.00    +0.015 C 
ATOM      4  C   UNL     1     -34.829  23.985   3.320  0.00  0.00    +0.110 C 
ATOM      5  C   UNL     1     -33.650  26.341   4.251  0.00  0.00    +0.149 C 
ATOM      6  C   UNL     1     -33.885  25.365   5.137  0.00  0.00    +0.038 C 
ATOM      7  C   UNL     1     -34.754  23.077   5.558  0.00  0.00    +0.037 C 
ATOM      8  C   UNL     1     -35.416  22.801   2.860  0.00  0.00    +0.143 C 
ATOM      9  C   UNL     1     -34.565  25.087   2.365  0.00  0.00    +0.349 C 
ATOM     10  C   UNL     1     -35.340  21.897   5.099  0.00  0.00    +0.137 C 
ATOM     11  C   UNL     1     -35.670  21.760   3.753  0.00  0.00    +0.073 C 
ENDROOT
BRANCH   5  12
ATOM     12  C   UNL     1     -33.044  27.636   4.611  0.00  0.00    +0.038 C 
ATOM     13  C   UNL     1     -32.473  27.820   5.874  0.00  0.00    +0.043 C 
ATOM     14  C   UNL     1     -33.038  28.689   3.692  0.00  0.00    +0.006 C 
ATOM     15  C   UNL     1     -31.901  29.047   6.214  0.00  0.00    +0.168 C 
ATOM     16  C   UNL     1     -32.466  29.915   4.031  0.00  0.00    +0.040 C 
ATOM     17  C   UNL     1     -31.897  30.094   5.292  0.00  0.00    +0.167 C 
BRANCH  15  18
ATOM     18  O   UNL     1     -31.348  29.209   7.448  0.00  0.00    -0.503 OA
ATOM     19  H   UNL     1     -30.424  29.108   7.565  0.00  0.00    +0.292 HD
ENDBRANCH  15  18
BRANCH  17  20
ATOM     20  O   UNL     1     -31.341  31.295   5.611  0.00  0.00    -0.503 OA
ATOM     21  H   UNL     1     -30.687  31.671   5.055  0.00  0.00    +0.292 HD
ENDBRANCH  17  20
ENDBRANCH   5  12
BRANCH   8  22
ATOM     22  O   UNL     1     -35.762  22.608   1.556  0.00  0.00    -0.505 OA
ATOM     23  H   UNL     1     -36.653  22.424   1.330  0.00  0.00    +0.292 HD
ENDBRANCH   8  22
BRANCH  10  24
ATOM     24  O   UNL     1     -35.589  20.879   5.967  0.00  0.00    -0.505 OA
ATOM     25  H   UNL     1     -35.818  21.066   6.857  0.00  0.00    +0.292 HD
ENDBRANCH  10  24
TORSDOF 5
ENDMDL
MODEL 6
REMARK VINA RESULT:      -6.2      3.300      4.520
REMARK  Name = 5473310
REMARK  5 active torsions:
REMARK  status: ('A' for Active; 'I' for Inactive)
REMARK    1  A    between atoms: C_5  and  C_12
REMARK    2  A    between atoms: C_8  and  O_22
REMARK    3  A    between atoms: C_10  and  O_24
REMARK    4  A    between atoms: C_15  and  O_18
REMARK    5  A    between atoms: C_17  and  O_20
REMARK                            x       y       z     vdW  Elec       q    Type
REMARK                         _______ _______ _______ _____ _____    ______ ____
ROOT
ATOM      1  O   UNL     1     -36.983  25.675   2.639  0.00  0.00    -0.421 OA
ATOM      2  O   UNL     1     -38.388  27.001   1.452  0.00  0.00    -0.244 OA
ATOM      3  C   UNL     1     -34.940  27.562   2.380  0.00  0.00    +0.015 C 
ATOM      4  C   UNL     1     -36.194  27.809   1.811  0.00  0.00    +0.110 C 
ATOM      5  C   UNL     1     -35.710  25.442   3.214  0.00  0.00    +0.149 C 
ATOM      6  C   UNL     1     -34.707  26.321   3.104  0.00  0.00    +0.038 C 
ATOM      7  C   UNL     1     -33.923  28.515   2.245  0.00  0.00    +0.037 C 
ATOM      8  C   UNL     1     -36.430  28.999   1.114  0.00  0.00    +0.143 C 
ATOM      9  C   UNL     1     -37.282  26.812   1.942  0.00  0.00    +0.349 C 
ATOM     10  C   UNL     1     -34.159  29.701   1.548  0.00  0.00    +0.137 C 
ATOM     11  C   UNL     1     -35.410  29.942   0.984  0.00  0.00    +0.073 C 
ENDROOT
BRANCH   5  12
ATOM     12  C   UNL     1     -35.587  24.151   3.917  0.00  0.00    +0.038 C 
ATOM     13  C   UNL     1     -35.774  22.951   3.225  0.00  0.00    +0.043 C 
ATOM     14  C   UNL     1     -35.284  24.120   5.281  0.00  0.00    +0.006 C 
ATOM     15  C   UNL     1     -35.658  21.731   3.891  0.00  0.00    +0.168 C 
ATOM     16  C   UNL     1     -35.168  22.899   5.947  0.00  0.00    +0.040 C 
ATOM     17  C   UNL     1     -35.354  21.705   5.252  0.00  0.00    +0.167 C 
BRANCH  15  18
ATOM     18  O   UNL     1     -35.842  20.571   3.200  0.00  0.00    -0.503 OA
ATOM     19  H   UNL     1     -36.579  20.024   3.391  0.00  0.00    +0.292 HD
ENDBRANCH  15  18
BRANCH  17  20
ATOM     20  O   UNL     1     -35.237  20.520   5.913  0.00  0.00    -0.503 OA
ATOM     21  H   UNL     1     -35.948  19.909   5.907  0.00  0.00    +0.292 HD
ENDBRANCH  17  20
ENDBRANCH   5  12
BRANCH   8  22
ATOM     22  O   UNL     1     -37.631  29.291   0.539  0.00  0.00    -0.505 OA
ATOM     23  H   UNL     1     -37.683  29.942  -0.133  0.00  0.00    +0.292 HD
ENDBRANCH   8  22
BRANCH  10  24
ATOM     24  O   UNL     1     -33.167  30.623   1.421  0.00  0.00    -0.505 OA
ATOM     25  H   UNL     1     -32.306  30.353   1.166  0.00  0.00    +0.292 HD
ENDBRANCH  10  24
TORSDOF 5
ENDMDL
MODEL 7
REMARK VINA RESULT:      -6.1      4.365      9.223
REMARK  Name = 5473310
REMARK  5 active torsions:
REMARK  status: ('A' for Active; 'I' for Inactive)
REMARK    1  A    between atoms: C_5  and  C_12
REMARK    2  A    between atoms: C_8  and  O_22
REMARK    3  A    between atoms: C_10  and  O_24
REMARK    4  A    between atoms: C_15  and  O_18
REMARK    5  A    between atoms: C_17  and  O_20
REMARK                            x       y       z     vdW  Elec       q    Type
REMARK                         _______ _______ _______ _____ _____    ______ ____
ROOT
ATOM      1  O   UNL     1     -35.285  21.221   2.503  0.00  0.00    -0.421 OA
ATOM      2  O   UNL     1     -34.061  19.419   1.874  0.00  0.00    -0.244 OA
ATOM      3  C   UNL     1     -37.367  20.426   0.818  0.00  0.00    +0.015 C 
ATOM      4  C   UNL     1     -36.202  19.657   0.898  0.00  0.00    +0.110 C 
ATOM      5  C   UNL     1     -36.473  21.987   2.416  0.00  0.00    +0.149 C 
ATOM      6  C   UNL     1     -37.488  21.639   1.614  0.00  0.00    +0.038 C 
ATOM      7  C   UNL     1     -38.405  20.019  -0.029  0.00  0.00    +0.037 C 
ATOM      8  C   UNL     1     -36.075  18.489   0.138  0.00  0.00    +0.143 C 
ATOM      9  C   UNL     1     -35.092  20.072   1.787  0.00  0.00    +0.349 C 
ATOM     10  C   UNL     1     -38.277  18.855  -0.787  0.00  0.00    +0.137 C 
ATOM     11  C   UNL     1     -37.115  18.091  -0.703  0.00  0.00    +0.073 C 
ENDROOT
BRANCH   5  12
ATOM     12  C   UNL     1     -36.481  23.196   3.260  0.00  0.00    +0.038 C 
ATOM     13  C   UNL     1     -37.366  24.243   2.983  0.00  0.00    +0.043 C 
ATOM     14  C   UNL     1     -35.604  23.304   4.342  0.00  0.00    +0.006 C 
ATOM     15  C   UNL     1     -37.372  25.387   3.781  0.00  0.00    +0.168 C 
ATOM     16  C   UNL     1     -35.610  24.448   5.141  0.00  0.00    +0.040 C 
ATOM     17  C   UNL     1     -36.494  25.489   4.861  0.00  0.00    +0.167 C 
BRANCH  15  18
ATOM     18  O   UNL     1     -38.240  26.397   3.497  0.00  0.00    -0.503 OA
ATOM     19  H   UNL     1     -39.027  26.494   3.998  0.00  0.00    +0.292 HD
ENDBRANCH  15  18
BRANCH  17  20
ATOM     20  O   UNL     1     -36.492  26.600   5.648  0.00  0.00    -0.503 OA
ATOM     21  H   UNL     1     -35.936  27.323   5.435  0.00  0.00    +0.292 HD
ENDBRANCH  17  20
ENDBRANCH   5  12
BRANCH   8  22
ATOM     22  O   UNL     1     -34.963  17.701   0.176  0.00  0.00    -0.505 OA
ATOM     23  H   UNL     1     -35.021  16.798  -0.067  0.00  0.00    +0.292 HD
ENDBRANCH   8  22
BRANCH  10  24
ATOM     24  O   UNL     1     -39.289  18.464  -1.608  0.00  0.00    -0.505 OA
ATOM     25  H   UNL     1     -39.393  18.865  -2.448  0.00  0.00    +0.292 HD
ENDBRANCH  10  24
TORSDOF 5
ENDMDL
MODEL 8
REMARK VINA RESULT:      -6.1      3.545      4.721
REMARK  Name = 5473310
REMARK  5 active torsions:
REMARK  status: ('A' for Active; 'I' for Inactive)
REMARK    1  A    between atoms: C_5  and  C_12
REMARK    2  A    between atoms: C_8  and  O_22
REMARK    3  A    between atoms: C_10  and  O_24
REMARK    4  A    between atoms: C_15  and  O_18
REMARK    5  A    between atoms: C_17  and  O_20
REMARK                            x       y       z     vdW  Elec       q    Type
REMARK                         _______ _______ _______ _____ _____    ______ ____
ROOT
ATOM      1  O   UNL     1     -34.867  26.474   3.736  0.00  0.00    -0.421 OA
ATOM      2  O   UNL     1     -34.088  28.601   3.642  0.00  0.00    -0.244 OA
ATOM      3  C   UNL     1     -36.666  27.014   1.669  0.00  0.00    +0.015 C 
ATOM      4  C   UNL     1     -35.806  28.017   2.125  0.00  0.00    +0.110 C 
ATOM      5  C   UNL     1     -35.740  25.466   3.261  0.00  0.00    +0.149 C 
ATOM      6  C   UNL     1     -36.619  25.691   2.277  0.00  0.00    +0.038 C 
ATOM      7  C   UNL     1     -37.565  27.294   0.633  0.00  0.00    +0.037 C 
ATOM      8  C   UNL     1     -35.842  29.292   1.548  0.00  0.00    +0.143 C 
ATOM      9  C   UNL     1     -34.850  27.740   3.222  0.00  0.00    +0.349 C 
ATOM     10  C   UNL     1     -37.600  28.566   0.059  0.00  0.00    +0.137 C 
ATOM     11  C   UNL     1     -36.741  29.562   0.516  0.00  0.00    +0.073 C 
ENDROOT
BRANCH   5  12
ATOM     12  C   UNL     1     -35.609  24.170   3.953  0.00  0.00    +0.038 C 
ATOM     13  C   UNL     1     -35.773  22.975   3.247  0.00  0.00    +0.043 C 
ATOM     14  C   UNL     1     -35.321  24.130   5.320  0.00  0.00    +0.006 C 
ATOM     15  C   UNL     1     -35.651  21.749   3.903  0.00  0.00    +0.168 C 
ATOM     16  C   UNL     1     -35.198  22.904   5.976  0.00  0.00    +0.040 C 
ATOM     17  C   UNL     1     -35.362  21.715   5.267  0.00  0.00    +0.167 C 
BRANCH  15  18
ATOM     18  O   UNL     1     -35.813  20.594   3.200  0.00  0.00    -0.503 OA
ATOM     19  H   UNL     1     -35.129  20.288   2.637  0.00  0.00    +0.292 HD
ENDBRANCH  15  18
BRANCH  17  20
ATOM     20  O   UNL     1     -35.239  20.525   5.918  0.00  0.00    -0.503 OA
ATOM     21  H   UNL     1     -34.570  20.413   6.566  0.00  0.00    +0.292 HD
ENDBRANCH  17  20
ENDBRANCH   5  12
BRANCH   8  22
ATOM     22  O   UNL     1     -35.028  30.308   1.952  0.00  0.00    -0.505 OA
ATOM     23  H   UNL     1     -34.691  30.318   2.827  0.00  0.00    +0.292 HD
ENDBRANCH   8  22
BRANCH  10  24
ATOM     24  O   UNL     1     -38.475  28.832  -0.948  0.00  0.00    -0.505 OA
ATOM     25  H   UNL     1     -39.166  28.229  -1.142  0.00  0.00    +0.292 HD
ENDBRANCH  10  24
TORSDOF 5
ENDMDL
MODEL 9
REMARK VINA RESULT:      -6.0      3.797      6.658
REMARK  Name = 5473310
REMARK  5 active torsions:
REMARK  status: ('A' for Active; 'I' for Inactive)
REMARK    1  A    between atoms: C_5  and  C_12
REMARK    2  A    between atoms: C_8  and  O_22
REMARK    3  A    between atoms: C_10  and  O_24
REMARK    4  A    between atoms: C_15  and  O_18
REMARK    5  A    between atoms: C_17  and  O_20
REMARK                            x       y       z     vdW  Elec       q    Type
REMARK                         _______ _______ _______ _____ _____    ______ ____
ROOT
ATOM      1  O   UNL     1     -37.073  21.600   2.021  0.00  0.00    -0.421 OA
ATOM      2  O   UNL     1     -38.850  22.943   2.441  0.00  0.00    -0.244 OA
ATOM      3  C   UNL     1     -35.453  23.189   3.649  0.00  0.00    +0.015 C 
ATOM      4  C   UNL     1     -36.801  23.515   3.476  0.00  0.00    +0.110 C 
ATOM      5  C   UNL     1     -35.706  21.278   2.209  0.00  0.00    +0.149 C 
ATOM      6  C   UNL     1     -34.900  22.021   2.977  0.00  0.00    +0.038 C 
ATOM      7  C   UNL     1     -34.649  23.992   4.467  0.00  0.00    +0.037 C 
ATOM      8  C   UNL     1     -37.344  24.634   4.117  0.00  0.00    +0.143 C 
ATOM      9  C   UNL     1     -37.667  22.679   2.612  0.00  0.00    +0.349 C 
ATOM     10  C   UNL     1     -35.191  25.109   5.105  0.00  0.00    +0.137 C 
ATOM     11  C   UNL     1     -36.535  25.429   4.930  0.00  0.00    +0.073 C 
ENDROOT
BRANCH   5  12
ATOM     12  C   UNL     1     -35.255  20.081   1.476  0.00  0.00    +0.038 C 
ATOM     13  C   UNL     1     -34.018  19.499   1.771  0.00  0.00    +0.043 C 
ATOM     14  C   UNL     1     -36.061  19.520   0.482  0.00  0.00    +0.006 C 
ATOM     15  C   UNL     1     -33.591  18.367   1.076  0.00  0.00    +0.168 C 
ATOM     16  C   UNL     1     -35.634  18.388  -0.213  0.00  0.00    +0.040 C 
ATOM     17  C   UNL     1     -34.400  17.811   0.085  0.00  0.00    +0.167 C 
BRANCH  15  18
ATOM     18  O   UNL     1     -32.384  17.813   1.377  0.00  0.00    -0.503 OA
ATOM     19  H   UNL     1     -32.023  17.148   0.823  0.00  0.00    +0.292 HD
ENDBRANCH  15  18
BRANCH  17  20
ATOM     20  O   UNL     1     -33.995  16.705  -0.599  0.00  0.00    -0.503 OA
ATOM     21  H   UNL     1     -34.589  16.270  -1.179  0.00  0.00    +0.292 HD
ENDBRANCH  17  20
ENDBRANCH   5  12
BRANCH   8  22
ATOM     22  O   UNL     1     -38.650  24.999   3.984  0.00  0.00    -0.505 OA
ATOM     23  H   UNL     1     -38.905  25.891   4.124  0.00  0.00    +0.292 HD
ENDBRANCH   8  22
BRANCH  10  24
ATOM     24  O   UNL     1     -34.405  25.885   5.900  0.00  0.00    -0.505 OA
ATOM     25  H   UNL     1     -33.497  25.997   5.695  0.00  0.00    +0.292 HD
ENDBRANCH  10  24
TORSDOF 5
ENDMDL
