MODEL 1
REMARK VINA RESULT:      -7.1      0.000      0.000
REMARK  Name = 5281879
REMARK  9 active torsions:
REMARK  status: ('A' for Active; 'I' for Inactive)
REMARK    1  A    between atoms: C_3  and  C_26
REMARK    2  A    between atoms: C_4  and  C_38
REMARK    3  A    between atoms: C_7  and  O_36
REMARK    4  A    between atoms: C_9  and  C_13
REMARK    5  A    between atoms: C_18  and  O_22
REMARK    6  A    between atoms: C_20  and  O_24
REMARK    7  A    between atoms: C_29  and  O_32
REMARK    8  A    between atoms: C_31  and  O_34
REMARK    9  A    between atoms: C_38  and  O_39
REMARK                            x       y       z     vdW  Elec       q    Type
REMARK                         _______ _______ _______ _____ _____    ______ ____
ROOT
ATOM      1  O   UNL     1     -34.891  21.050   1.753  0.00  0.00    -0.468 OA
ATOM      2  O   UNL     1     -37.064  19.662   0.474  0.00  0.00    -0.466 OA
ATOM      3  C   UNL     1     -36.133  21.696   1.422  0.00  0.00    +0.230 C 
ATOM      4  C   UNL     1     -37.283  20.676   1.469  0.00  0.00    +0.239 C 
ATOM      5  C   UNL     1     -34.732  19.850   1.113  0.00  0.00    +0.176 C 
ATOM      6  C   UNL     1     -35.783  19.184   0.485  0.00  0.00    +0.206 C 
ATOM      7  C   UNL     1     -35.548  17.980  -0.181  0.00  0.00    +0.176 C 
ATOM      8  C   UNL     1     -33.453  19.294   1.115  0.00  0.00    +0.043 C 
ATOM      9  C   UNL     1     -33.220  18.084   0.462  0.00  0.00    +0.041 C 
ATOM     10  C   UNL     1     -34.266  17.430  -0.190  0.00  0.00    +0.043 C 
ENDROOT
BRANCH   9  13
ATOM     11  O   UNL     1     -31.837  16.145   0.153  0.00  0.00    -0.453 OA
ATOM     12  O   UNL     1     -28.424  18.239   0.904  0.00  0.00    -0.286 OA
ATOM     13  C   UNL     1     -31.865  17.498   0.456  0.00  0.00    +0.149 C 
ATOM     14  C   UNL     1     -30.774  18.240   0.707  0.00  0.00    +0.080 C 
ATOM     15  C   UNL     1     -30.622  15.509   0.118  0.00  0.00    +0.154 C 
ATOM     16  C   UNL     1     -29.417  16.164   0.365  0.00  0.00    +0.107 C 
ATOM     17  C   UNL     1     -29.443  17.601   0.679  0.00  0.00    +0.205 C 
ATOM     18  C   UNL     1     -28.210  15.465   0.314  0.00  0.00    +0.143 C 
ATOM     19  C   UNL     1     -30.626  14.146  -0.184  0.00  0.00    +0.074 C 
ATOM     20  C   UNL     1     -29.422  13.445  -0.235  0.00  0.00    +0.140 C 
ATOM     21  C   UNL     1     -28.216  14.102   0.014  0.00  0.00    +0.073 C 
BRANCH  18  22
ATOM     22  O   UNL     1     -27.007  16.059   0.549  0.00  0.00    -0.505 OA
ATOM     23  H   UNL     1     -26.232  15.538   0.620  0.00  0.00    +0.292 HD
ENDBRANCH  18  22
BRANCH  20  24
ATOM     24  O   UNL     1     -29.423  12.115  -0.529  0.00  0.00    -0.505 OA
ATOM     25  H   UNL     1     -28.774  11.762  -1.106  0.00  0.00    +0.292 HD
ENDBRANCH  20  24
ENDBRANCH   9  13
BRANCH   3  26
ATOM     26  C   UNL     1     -36.299  22.848   2.390  0.00  0.00    +0.024 C 
ATOM     27  C   UNL     1     -36.022  22.665   3.745  0.00  0.00    +0.039 C 
ATOM     28  C   UNL     1     -36.728  24.091   1.927  0.00  0.00    +0.003 C 
ATOM     29  C   UNL     1     -36.176  23.726   4.637  0.00  0.00    +0.172 C 
ATOM     30  C   UNL     1     -36.882  25.152   2.819  0.00  0.00    +0.040 C 
ATOM     31  C   UNL     1     -36.605  24.969   4.174  0.00  0.00    +0.168 C 
BRANCH  29  32
ATOM     32  O   UNL     1     -35.902  23.536   5.957  0.00  0.00    -0.468 OA
ATOM     33  C   UNL     1     -35.413  22.252   6.340  0.00  0.00    +0.253 C 
ENDBRANCH  29  32
BRANCH  31  34
ATOM     34  O   UNL     1     -36.757  26.014   5.035  0.00  0.00    -0.503 OA
ATOM     35  H   UNL     1     -36.666  26.894   4.726  0.00  0.00    +0.292 HD
ENDBRANCH  31  34
ENDBRANCH   3  26
BRANCH   7  36
ATOM     36  O   UNL     1     -36.559  17.323  -0.815  0.00  0.00    -0.468 OA
ATOM     37  C   UNL     1     -37.122  16.199  -0.143  0.00  0.00    +0.253 C 
ENDBRANCH   7  36
BRANCH   4  38
ATOM     38  C   UNL     1     -38.643  21.297   1.159  0.00  0.00    +0.185 C 
BRANCH  38  39
ATOM     39  O   UNL     1     -39.539  20.963   2.203  0.00  0.00    -0.378 OA
ATOM     40  H   UNL     1     -40.366  20.630   1.825  0.00  0.00    +0.211 HD
ENDBRANCH  38  39
ENDBRANCH   4  38
TORSDOF 9
ENDMDL
MODEL 2
REMARK VINA RESULT:      -7.1      1.082      2.190
REMARK  Name = 5281879
REMARK  9 active torsions:
REMARK  status: ('A' for Active; 'I' for Inactive)
REMARK    1  A    between atoms: C_3  and  C_26
REMARK    2  A    between atoms: C_4  and  C_38
REMARK    3  A    between atoms: C_7  and  O_36
REMARK    4  A    between atoms: C_9  and  C_13
REMARK    5  A    between atoms: C_18  and  O_22
REMARK    6  A    between atoms: C_20  and  O_24
REMARK    7  A    between atoms: C_29  and  O_32
REMARK    8  A    between atoms: C_31  and  O_34
REMARK    9  A    between atoms: C_38  and  O_39
REMARK                            x       y       z     vdW  Elec       q    Type
REMARK                         _______ _______ _______ _____ _____    ______ ____
ROOT
ATOM      1  O   UNL     1     -35.433  21.108   1.725  0.00  0.00    -0.468 OA
ATOM      2  O   UNL     1     -37.804  19.978   0.550  0.00  0.00    -0.466 OA
ATOM      3  C   UNL     1     -36.622  21.882   1.490  0.00  0.00    +0.230 C 
ATOM      4  C   UNL     1     -37.863  20.976   1.582  0.00  0.00    +0.239 C 
ATOM      5  C   UNL     1     -35.431  19.920   1.046  0.00  0.00    +0.176 C 
ATOM      6  C   UNL     1     -36.578  19.378   0.468  0.00  0.00    +0.206 C 
ATOM      7  C   UNL     1     -36.502  18.179  -0.241  0.00  0.00    +0.176 C 
ATOM      8  C   UNL     1     -34.215  19.243   0.954  0.00  0.00    +0.043 C 
ATOM      9  C   UNL     1     -34.142  18.037   0.257  0.00  0.00    +0.041 C 
ATOM     10  C   UNL     1     -35.283  17.508  -0.345  0.00  0.00    +0.043 C 
ENDROOT
BRANCH   9  13
ATOM     11  O   UNL     1     -31.744  18.128   0.362  0.00  0.00    -0.453 OA
ATOM     12  O   UNL     1     -31.379  14.148  -0.427  0.00  0.00    -0.286 OA
ATOM     13  C   UNL     1     -32.853  17.323   0.151  0.00  0.00    +0.149 C 
ATOM     14  C   UNL     1     -32.795  16.007  -0.107  0.00  0.00    +0.080 C 
ATOM     15  C   UNL     1     -30.499  17.556   0.291  0.00  0.00    +0.154 C 
ATOM     16  C   UNL     1     -30.303  16.202   0.024  0.00  0.00    +0.107 C 
ATOM     17  C   UNL     1     -31.478  15.344  -0.191  0.00  0.00    +0.205 C 
ATOM     18  C   UNL     1     -29.011  15.674  -0.036  0.00  0.00    +0.143 C 
ATOM     19  C   UNL     1     -29.402  18.392   0.501  0.00  0.00    +0.074 C 
ATOM     20  C   UNL     1     -28.110  17.868   0.442  0.00  0.00    +0.140 C 
ATOM     21  C   UNL     1     -27.916  16.512   0.173  0.00  0.00    +0.073 C 
BRANCH  18  22
ATOM     22  O   UNL     1     -28.768  14.360  -0.293  0.00  0.00    -0.505 OA
ATOM     23  H   UNL     1     -27.887  14.040  -0.309  0.00  0.00    +0.292 HD
ENDBRANCH  18  22
BRANCH  20  24
ATOM     24  O   UNL     1     -27.038  18.681   0.646  0.00  0.00    -0.505 OA
ATOM     25  H   UNL     1     -27.038  19.553   0.303  0.00  0.00    +0.292 HD
ENDBRANCH  20  24
ENDBRANCH   9  13
BRANCH   3  26
ATOM     26  C   UNL     1     -36.616  23.012   2.496  0.00  0.00    +0.024 C 
ATOM     27  C   UNL     1     -36.197  22.779   3.805  0.00  0.00    +0.039 C 
ATOM     28  C   UNL     1     -37.031  24.288   2.113  0.00  0.00    +0.003 C 
ATOM     29  C   UNL     1     -36.191  23.821   4.732  0.00  0.00    +0.172 C 
ATOM     30  C   UNL     1     -37.025  25.330   3.039  0.00  0.00    +0.040 C 
ATOM     31  C   UNL     1     -36.606  25.096   4.349  0.00  0.00    +0.168 C 
BRANCH  29  32
ATOM     32  O   UNL     1     -35.778  23.581   6.007  0.00  0.00    -0.468 OA
ATOM     33  C   UNL     1     -35.436  22.236   6.336  0.00  0.00    +0.253 C 
ENDBRANCH  29  32
BRANCH  31  34
ATOM     34  O   UNL     1     -36.603  26.123   5.245  0.00  0.00    -0.503 OA
ATOM     35  H   UNL     1     -37.408  26.544   5.477  0.00  0.00    +0.292 HD
ENDBRANCH  31  34
ENDBRANCH   3  26
BRANCH   7  36
ATOM     36  O   UNL     1     -37.609  17.643  -0.828  0.00  0.00    -0.468 OA
ATOM     37  C   UNL     1     -38.030  16.361  -0.367  0.00  0.00    +0.253 C 
ENDBRANCH   7  36
BRANCH   4  38
ATOM     38  C   UNL     1     -39.171  21.735   1.373  0.00  0.00    +0.185 C 
BRANCH  38  39
ATOM     39  O   UNL     1     -40.211  21.025   2.019  0.00  0.00    -0.378 OA
ATOM     40  H   UNL     1     -40.066  21.039   2.978  0.00  0.00    +0.211 HD
ENDBRANCH  38  39
ENDBRANCH   4  38
TORSDOF 9
ENDMDL
MODEL 3
REMARK VINA RESULT:      -7.1      2.558      4.461
REMARK  Name = 5281879
REMARK  9 active torsions:
REMARK  status: ('A' for Active; 'I' for Inactive)
REMARK    1  A    between atoms: C_3  and  C_26
REMARK    2  A    between atoms: C_4  and  C_38
REMARK    3  A    between atoms: C_7  and  O_36
REMARK    4  A    between atoms: C_9  and  C_13
REMARK    5  A    between atoms: C_18  and  O_22
REMARK    6  A    between atoms: C_20  and  O_24
REMARK    7  A    between atoms: C_29  and  O_32
REMARK    8  A    between atoms: C_31  and  O_34
REMARK    9  A    between atoms: C_38  and  O_39
REMARK                            x       y       z     vdW  Elec       q    Type
REMARK                         _______ _______ _______ _____ _____    ______ ____
ROOT
ATOM      1  O   UNL     1     -34.699  23.338   2.900  0.00  0.00    -0.468 OA
ATOM      2  O   UNL     1     -37.564  23.339   2.622  0.00  0.00    -0.466 OA
ATOM      3  C   UNL     1     -35.482  24.543   2.966  0.00  0.00    +0.230 C 
ATOM      4  C   UNL     1     -36.881  24.229   3.522  0.00  0.00    +0.239 C 
ATOM      5  C   UNL     1     -35.395  22.284   2.371  0.00  0.00    +0.176 C 
ATOM      6  C   UNL     1     -36.781  22.289   2.227  0.00  0.00    +0.206 C 
ATOM      7  C   UNL     1     -37.427  21.197   1.648  0.00  0.00    +0.176 C 
ATOM      8  C   UNL     1     -34.655  21.169   1.977  0.00  0.00    +0.043 C 
ATOM      9  C   UNL     1     -35.302  20.071   1.410  0.00  0.00    +0.041 C 
ATOM     10  C   UNL     1     -36.686  20.086   1.241  0.00  0.00    +0.043 C 
ENDROOT
BRANCH   9  13
ATOM     11  O   UNL     1     -35.201  18.043   0.127  0.00  0.00    -0.453 OA
ATOM     12  O   UNL     1     -31.367  17.291   1.281  0.00  0.00    -0.286 OA
ATOM     13  C   UNL     1     -34.519  18.892   0.985  0.00  0.00    +0.149 C 
ATOM     14  C   UNL     1     -33.256  18.700   1.395  0.00  0.00    +0.080 C 
ATOM     15  C   UNL     1     -34.556  16.922  -0.330  0.00  0.00    +0.154 C 
ATOM     16  C   UNL     1     -33.247  16.604   0.026  0.00  0.00    +0.107 C 
ATOM     17  C   UNL     1     -32.519  17.508   0.930  0.00  0.00    +0.205 C 
ATOM     18  C   UNL     1     -32.641  15.448  -0.470  0.00  0.00    +0.143 C 
ATOM     19  C   UNL     1     -35.269  16.083  -1.187  0.00  0.00    +0.074 C 
ATOM     20  C   UNL     1     -34.667  14.927  -1.685  0.00  0.00    +0.140 C 
ATOM     21  C   UNL     1     -33.356  14.610  -1.327  0.00  0.00    +0.073 C 
BRANCH  18  22
ATOM     22  O   UNL     1     -31.365  15.094  -0.152  0.00  0.00    -0.505 OA
ATOM     23  H   UNL     1     -31.209  14.386   0.442  0.00  0.00    +0.292 HD
ENDBRANCH  18  22
BRANCH  20  24
ATOM     24  O   UNL     1     -35.360  14.107  -2.521  0.00  0.00    -0.505 OA
ATOM     25  H   UNL     1     -36.215  13.806  -2.282  0.00  0.00    +0.292 HD
ENDBRANCH  20  24
ENDBRANCH   9  13
BRANCH   3  26
ATOM     26  C   UNL     1     -34.699  25.528   3.807  0.00  0.00    +0.024 C 
ATOM     27  C   UNL     1     -34.106  26.639   3.209  0.00  0.00    +0.039 C 
ATOM     28  C   UNL     1     -34.569  25.322   5.181  0.00  0.00    +0.003 C 
ATOM     29  C   UNL     1     -33.384  27.546   3.985  0.00  0.00    +0.172 C 
ATOM     30  C   UNL     1     -33.848  26.229   5.957  0.00  0.00    +0.040 C 
ATOM     31  C   UNL     1     -33.255  27.341   5.358  0.00  0.00    +0.168 C 
BRANCH  29  32
ATOM     32  O   UNL     1     -32.810  28.629   3.390  0.00  0.00    -0.468 OA
ATOM     33  C   UNL     1     -33.688  29.649   2.916  0.00  0.00    +0.253 C 
ENDBRANCH  29  32
BRANCH  31  34
ATOM     34  O   UNL     1     -32.553  28.220   6.127  0.00  0.00    -0.503 OA
ATOM     35  H   UNL     1     -32.882  29.086   6.267  0.00  0.00    +0.292 HD
ENDBRANCH  31  34
ENDBRANCH   3  26
BRANCH   7  36
ATOM     36  O   UNL     1     -38.780  21.191   1.483  0.00  0.00    -0.468 OA
ATOM     37  C   UNL     1     -39.271  20.928   0.171  0.00  0.00    +0.253 C 
ENDBRANCH   7  36
BRANCH   4  38
ATOM     38  C   UNL     1     -37.763  25.469   3.651  0.00  0.00    +0.185 C 
BRANCH  38  39
ATOM     39  O   UNL     1     -39.073  25.055   3.994  0.00  0.00    -0.378 OA
ATOM     40  H   UNL     1     -39.226  25.216   4.937  0.00  0.00    +0.211 HD
ENDBRANCH  38  39
ENDBRANCH   4  38
TORSDOF 9
ENDMDL
MODEL 4
REMARK VINA RESULT:      -7.0      6.716     11.796
REMARK  Name = 5281879
REMARK  9 active torsions:
REMARK  status: ('A' for Active; 'I' for Inactive)
REMARK    1  A    between atoms: C_3  and  C_26
REMARK    2  A    between atoms: C_4  and  C_38
REMARK    3  A    between atoms: C_7  and  O_36
REMARK    4  A    between atoms: C_9  and  C_13
REMARK    5  A    between atoms: C_18  and  O_22
REMARK    6  A    between atoms: C_20  and  O_24
REMARK    7  A    between atoms: C_29  and  O_32
REMARK    8  A    between atoms: C_31  and  O_34
REMARK    9  A    between atoms: C_38  and  O_39
REMARK                            x       y       z     vdW  Elec       q    Type
REMARK                         _______ _______ _______ _____ _____    ______ ____
ROOT
ATOM      1  O   UNL     1     -33.984  26.382   4.365  0.00  0.00    -0.468 OA
ATOM      2  O   UNL     1     -35.829  27.622   2.538  0.00  0.00    -0.466 OA
ATOM      3  C   UNL     1     -35.329  25.906   4.184  0.00  0.00    +0.230 C 
ATOM      4  C   UNL     1     -35.800  26.200   2.749  0.00  0.00    +0.239 C 
ATOM      5  C   UNL     1     -33.793  27.638   3.856  0.00  0.00    +0.176 C 
ATOM      6  C   UNL     1     -34.693  28.242   2.979  0.00  0.00    +0.206 C 
ATOM      7  C   UNL     1     -34.459  29.539   2.523  0.00  0.00    +0.176 C 
ATOM      8  C   UNL     1     -32.635  28.312   4.244  0.00  0.00    +0.043 C 
ATOM      9  C   UNL     1     -32.394  29.604   3.777  0.00  0.00    +0.041 C 
ATOM     10  C   UNL     1     -33.307  30.220   2.921  0.00  0.00    +0.043 C 
ENDROOT
BRANCH   9  13
ATOM     11  O   UNL     1     -30.517  29.743   5.269  0.00  0.00    -0.453 OA
ATOM     12  O   UNL     1     -29.097  33.105   3.458  0.00  0.00    -0.286 OA
ATOM     13  C   UNL     1     -31.173  30.322   4.194  0.00  0.00    +0.149 C 
ATOM     14  C   UNL     1     -30.750  31.425   3.554  0.00  0.00    +0.080 C 
ATOM     15  C   UNL     1     -29.367  30.333   5.728  0.00  0.00    +0.154 C 
ATOM     16  C   UNL     1     -28.827  31.484   5.156  0.00  0.00    +0.107 C 
ATOM     17  C   UNL     1     -29.516  32.096   4.010  0.00  0.00    +0.205 C 
ATOM     18  C   UNL     1     -27.652  32.041   5.665  0.00  0.00    +0.143 C 
ATOM     19  C   UNL     1     -28.733  29.731   6.816  0.00  0.00    +0.074 C 
ATOM     20  C   UNL     1     -27.559  30.285   7.327  0.00  0.00    +0.140 C 
ATOM     21  C   UNL     1     -27.021  31.438   6.754  0.00  0.00    +0.073 C 
BRANCH  18  22
ATOM     22  O   UNL     1     -27.086  33.163   5.142  0.00  0.00    -0.505 OA
ATOM     23  H   UNL     1     -27.269  33.412   4.258  0.00  0.00    +0.292 HD
ENDBRANCH  18  22
BRANCH  20  24
ATOM     24  O   UNL     1     -26.939  29.700   8.388  0.00  0.00    -0.505 OA
ATOM     25  H   UNL     1     -27.280  29.815   9.253  0.00  0.00    +0.292 HD
ENDBRANCH  20  24
ENDBRANCH   9  13
BRANCH   3  26
ATOM     26  C   UNL     1     -35.324  24.434   4.535  0.00  0.00    +0.024 C 
ATOM     27  C   UNL     1     -35.291  23.476   3.522  0.00  0.00    +0.039 C 
ATOM     28  C   UNL     1     -35.352  24.036   5.871  0.00  0.00    +0.003 C 
ATOM     29  C   UNL     1     -35.287  22.119   3.845  0.00  0.00    +0.172 C 
ATOM     30  C   UNL     1     -35.348  22.679   6.195  0.00  0.00    +0.040 C 
ATOM     31  C   UNL     1     -35.315  21.721   5.182  0.00  0.00    +0.168 C 
BRANCH  29  32
ATOM     32  O   UNL     1     -35.253  21.193   2.848  0.00  0.00    -0.468 OA
ATOM     33  C   UNL     1     -36.495  20.865   2.225  0.00  0.00    +0.253 C 
ENDBRANCH  29  32
BRANCH  31  34
ATOM     34  O   UNL     1     -35.310  20.399   5.510  0.00  0.00    -0.503 OA
ATOM     35  H   UNL     1     -35.670  19.768   4.919  0.00  0.00    +0.292 HD
ENDBRANCH  31  34
ENDBRANCH   3  26
BRANCH   7  36
ATOM     36  O   UNL     1     -35.335  30.153   1.679  0.00  0.00    -0.468 OA
ATOM     37  C   UNL     1     -34.882  31.335   1.022  0.00  0.00    +0.253 C 
ENDBRANCH   7  36
BRANCH   4  38
ATOM     38  C   UNL     1     -37.213  25.695   2.471  0.00  0.00    +0.185 C 
BRANCH  38  39
ATOM     39  O   UNL     1     -38.135  26.686   2.887  0.00  0.00    -0.378 OA
ATOM     40  H   UNL     1     -38.937  26.629   2.346  0.00  0.00    +0.211 HD
ENDBRANCH  38  39
ENDBRANCH   4  38
TORSDOF 9
ENDMDL
MODEL 5
REMARK VINA RESULT:      -6.9      2.070      3.794
REMARK  Name = 5281879
REMARK  9 active torsions:
REMARK  status: ('A' for Active; 'I' for Inactive)
REMARK    1  A    between atoms: C_3  and  C_26
REMARK    2  A    between atoms: C_4  and  C_38
REMARK    3  A    between atoms: C_7  and  O_36
REMARK    4  A    between atoms: C_9  and  C_13
REMARK    5  A    between atoms: C_18  and  O_22
REMARK    6  A    between atoms: C_20  and  O_24
REMARK    7  A    between atoms: C_29  and  O_32
REMARK    8  A    between atoms: C_31  and  O_34
REMARK    9  A    between atoms: C_38  and  O_39
REMARK                            x       y       z     vdW  Elec       q    Type
REMARK                         _______ _______ _______ _____ _____    ______ ____
ROOT
ATOM      1  O   UNL     1     -35.016  22.365   2.472  0.00  0.00    -0.468 OA
ATOM      2  O   UNL     1     -37.771  22.454   1.644  0.00  0.00    -0.466 OA
ATOM      3  C   UNL     1     -35.781  23.583   2.462  0.00  0.00    +0.230 C 
ATOM      4  C   UNL     1     -37.266  23.271   2.714  0.00  0.00    +0.239 C 
ATOM      5  C   UNL     1     -35.608  21.363   1.752  0.00  0.00    +0.176 C 
ATOM      6  C   UNL     1     -36.939  21.411   1.342  0.00  0.00    +0.206 C 
ATOM      7  C   UNL     1     -37.474  20.372   0.580  0.00  0.00    +0.176 C 
ATOM      8  C   UNL     1     -34.819  20.256   1.437  0.00  0.00    +0.043 C 
ATOM      9  C   UNL     1     -35.357  19.210   0.687  0.00  0.00    +0.041 C 
ATOM     10  C   UNL     1     -36.682  19.270   0.254  0.00  0.00    +0.043 C 
ENDROOT
BRANCH   9  13
ATOM     11  O   UNL     1     -33.165  18.238   0.554  0.00  0.00    -0.453 OA
ATOM     12  O   UNL     1     -34.623  14.696  -0.833  0.00  0.00    -0.286 OA
ATOM     13  C   UNL     1     -34.522  18.041   0.347  0.00  0.00    +0.149 C 
ATOM     14  C   UNL     1     -35.060  16.896  -0.103  0.00  0.00    +0.080 C 
ATOM     15  C   UNL     1     -32.305  17.207   0.273  0.00  0.00    +0.154 C 
ATOM     16  C   UNL     1     -32.736  15.971  -0.205  0.00  0.00    +0.107 C 
ATOM     17  C   UNL     1     -34.175  15.756  -0.418  0.00  0.00    +0.205 C 
ATOM     18  C   UNL     1     -31.814  14.957  -0.474  0.00  0.00    +0.143 C 
ATOM     19  C   UNL     1     -30.945  17.437   0.486  0.00  0.00    +0.074 C 
ATOM     20  C   UNL     1     -30.021  16.427   0.218  0.00  0.00    +0.140 C 
ATOM     21  C   UNL     1     -30.455  15.190  -0.262  0.00  0.00    +0.073 C 
BRANCH  18  22
ATOM     22  O   UNL     1     -32.185  13.734  -0.942  0.00  0.00    -0.505 OA
ATOM     23  H   UNL     1     -33.093  13.510  -1.001  0.00  0.00    +0.292 HD
ENDBRANCH  18  22
BRANCH  20  24
ATOM     24  O   UNL     1     -28.694  16.649   0.424  0.00  0.00    -0.505 OA
ATOM     25  H   UNL     1     -28.398  17.490   0.711  0.00  0.00    +0.292 HD
ENDBRANCH  20  24
ENDBRANCH   9  13
BRANCH   3  26
ATOM     26  C   UNL     1     -35.165  24.495   3.501  0.00  0.00    +0.024 C 
ATOM     27  C   UNL     1     -34.849  25.813   3.172  0.00  0.00    +0.039 C 
ATOM     28  C   UNL     1     -34.912  24.017   4.786  0.00  0.00    +0.003 C 
ATOM     29  C   UNL     1     -34.281  26.654   4.129  0.00  0.00    +0.172 C 
ATOM     30  C   UNL     1     -34.344  24.857   5.743  0.00  0.00    +0.040 C 
ATOM     31  C   UNL     1     -34.028  26.175   5.415  0.00  0.00    +0.168 C 
BRANCH  29  32
ATOM     32  O   UNL     1     -33.978  27.939   3.798  0.00  0.00    -0.468 OA
ATOM     33  C   UNL     1     -32.937  28.134   2.841  0.00  0.00    +0.253 C 
ENDBRANCH  29  32
BRANCH  31  34
ATOM     34  O   UNL     1     -33.475  26.987   6.359  0.00  0.00    -0.503 OA
ATOM     35  H   UNL     1     -34.022  27.412   6.990  0.00  0.00    +0.292 HD
ENDBRANCH  31  34
ENDBRANCH   3  26
BRANCH   7  36
ATOM     36  O   UNL     1     -38.768  20.410   0.156  0.00  0.00    -0.468 OA
ATOM     37  C   UNL     1     -39.091  19.650  -1.007  0.00  0.00    +0.253 C 
ENDBRANCH   7  36
BRANCH   4  38
ATOM     38  C   UNL     1     -38.140  24.522   2.749  0.00  0.00    +0.185 C 
BRANCH  38  39
ATOM     39  O   UNL     1     -38.436  24.826   4.100  0.00  0.00    -0.378 OA
ATOM     40  H   UNL     1     -37.665  25.243   4.514  0.00  0.00    +0.211 HD
ENDBRANCH  38  39
ENDBRANCH   4  38
TORSDOF 9
ENDMDL
MODEL 6
REMARK VINA RESULT:      -6.8      6.694     12.424
REMARK  Name = 5281879
REMARK  9 active torsions:
REMARK  status: ('A' for Active; 'I' for Inactive)
REMARK    1  A    between atoms: C_3  and  C_26
REMARK    2  A    between atoms: C_4  and  C_38
REMARK    3  A    between atoms: C_7  and  O_36
REMARK    4  A    between atoms: C_9  and  C_13
REMARK    5  A    between atoms: C_18  and  O_22
REMARK    6  A    between atoms: C_20  and  O_24
REMARK    7  A    between atoms: C_29  and  O_32
REMARK    8  A    between atoms: C_31  and  O_34
REMARK    9  A    between atoms: C_38  and  O_39
REMARK                            x       y       z     vdW  Elec       q    Type
REMARK                         _______ _______ _______ _____ _____    ______ ____
ROOT
ATOM      1  O   UNL     1     -36.200  25.466   2.628  0.00  0.00    -0.468 OA
ATOM      2  O   UNL     1     -34.368  24.811   4.749  0.00  0.00    -0.466 OA
ATOM      3  C   UNL     1     -35.878  24.109   2.979  0.00  0.00    +0.230 C 
ATOM      4  C   UNL     1     -35.538  24.022   4.477  0.00  0.00    +0.239 C 
ATOM      5  C   UNL     1     -35.321  26.372   3.156  0.00  0.00    +0.176 C 
ATOM      6  C   UNL     1     -34.427  26.052   4.176  0.00  0.00    +0.206 C 
ATOM      7  C   UNL     1     -33.531  27.012   4.646  0.00  0.00    +0.176 C 
ATOM      8  C   UNL     1     -35.353  27.666   2.634  0.00  0.00    +0.043 C 
ATOM      9  C   UNL     1     -34.467  28.630   3.114  0.00  0.00    +0.041 C 
ATOM     10  C   UNL     1     -33.553  28.303   4.116  0.00  0.00    +0.043 C 
ENDROOT
BRANCH   9  13
ATOM     11  O   UNL     1     -35.770  30.512   2.386  0.00  0.00    -0.453 OA
ATOM     12  O   UNL     1     -32.450  32.678   1.449  0.00  0.00    -0.286 OA
ATOM     13  C   UNL     1     -34.494  29.998   2.558  0.00  0.00    +0.149 C 
ATOM     14  C   UNL     1     -33.365  30.666   2.272  0.00  0.00    +0.080 C 
ATOM     15  C   UNL     1     -35.901  31.779   1.879  0.00  0.00    +0.154 C 
ATOM     16  C   UNL     1     -34.809  32.574   1.537  0.00  0.00    +0.107 C 
ATOM     17  C   UNL     1     -33.453  32.035   1.726  0.00  0.00    +0.205 C 
ATOM     18  C   UNL     1     -35.002  33.859   1.025  0.00  0.00    +0.143 C 
ATOM     19  C   UNL     1     -37.198  32.267   1.712  0.00  0.00    +0.074 C 
ATOM     20  C   UNL     1     -37.395  33.550   1.201  0.00  0.00    +0.140 C 
ATOM     21  C   UNL     1     -36.300  34.344   0.858  0.00  0.00    +0.073 C 
BRANCH  18  22
ATOM     22  O   UNL     1     -33.968  34.673   0.676  0.00  0.00    -0.505 OA
ATOM     23  H   UNL     1     -33.387  34.422  -0.015  0.00  0.00    +0.292 HD
ENDBRANCH  18  22
BRANCH  20  24
ATOM     24  O   UNL     1     -38.659  34.028   1.036  0.00  0.00    -0.505 OA
ATOM     25  H   UNL     1     -39.365  33.672   1.540  0.00  0.00    +0.292 HD
ENDBRANCH  20  24
ENDBRANCH   9  13
BRANCH   3  26
ATOM     26  C   UNL     1     -37.061  23.258   2.572  0.00  0.00    +0.024 C 
ATOM     27  C   UNL     1     -38.343  23.807   2.558  0.00  0.00    +0.039 C 
ATOM     28  C   UNL     1     -36.870  21.924   2.212  0.00  0.00    +0.003 C 
ATOM     29  C   UNL     1     -39.434  23.023   2.183  0.00  0.00    +0.172 C 
ATOM     30  C   UNL     1     -37.960  21.140   1.836  0.00  0.00    +0.040 C 
ATOM     31  C   UNL     1     -39.242  21.689   1.823  0.00  0.00    +0.168 C 
BRANCH  29  32
ATOM     32  O   UNL     1     -40.681  23.570   2.172  0.00  0.00    -0.468 OA
ATOM     33  C   UNL     1     -41.025  24.376   1.046  0.00  0.00    +0.253 C 
ENDBRANCH  29  32
BRANCH  31  34
ATOM     34  O   UNL     1     -40.299  20.914   1.453  0.00  0.00    -0.503 OA
ATOM     35  H   UNL     1     -41.020  21.293   0.991  0.00  0.00    +0.292 HD
ENDBRANCH  31  34
ENDBRANCH   3  26
BRANCH   7  36
ATOM     36  O   UNL     1     -32.638  26.713   5.631  0.00  0.00    -0.468 OA
ATOM     37  C   UNL     1     -32.178  27.794   6.439  0.00  0.00    +0.253 C 
ENDBRANCH   7  36
BRANCH   4  38
ATOM     38  C   UNL     1     -35.214  22.601   4.933  0.00  0.00    +0.185 C 
BRANCH  38  39
ATOM     39  O   UNL     1     -36.167  22.213   5.906  0.00  0.00    -0.378 OA
ATOM     40  H   UNL     1     -36.948  22.783   5.838  0.00  0.00    +0.211 HD
ENDBRANCH  38  39
ENDBRANCH   4  38
TORSDOF 9
ENDMDL
MODEL 7
REMARK VINA RESULT:      -6.8      4.035     10.428
REMARK  Name = 5281879
REMARK  9 active torsions:
REMARK  status: ('A' for Active; 'I' for Inactive)
REMARK    1  A    between atoms: C_3  and  C_26
REMARK    2  A    between atoms: C_4  and  C_38
REMARK    3  A    between atoms: C_7  and  O_36
REMARK    4  A    between atoms: C_9  and  C_13
REMARK    5  A    between atoms: C_18  and  O_22
REMARK    6  A    between atoms: C_20  and  O_24
REMARK    7  A    between atoms: C_29  and  O_32
REMARK    8  A    between atoms: C_31  and  O_34
REMARK    9  A    between atoms: C_38  and  O_39
REMARK                            x       y       z     vdW  Elec       q    Type
REMARK                         _______ _______ _______ _____ _____    ______ ____
ROOT
ATOM      1  O   UNL     1     -34.340  22.864   1.596  0.00  0.00    -0.468 OA
ATOM      2  O   UNL     1     -37.053  22.591   2.517  0.00  0.00    -0.466 OA
ATOM      3  C   UNL     1     -34.999  21.589   1.688  0.00  0.00    +0.230 C 
ATOM      4  C   UNL     1     -36.512  21.766   1.471  0.00  0.00    +0.239 C 
ATOM      5  C   UNL     1     -34.992  23.849   2.286  0.00  0.00    +0.176 C 
ATOM      6  C   UNL     1     -36.303  23.712   2.741  0.00  0.00    +0.206 C 
ATOM      7  C   UNL     1     -36.900  24.741   3.470  0.00  0.00    +0.176 C 
ATOM      8  C   UNL     1     -34.290  25.032   2.521  0.00  0.00    +0.043 C 
ATOM      9  C   UNL     1     -34.892  26.066   3.238  0.00  0.00    +0.041 C 
ATOM     10  C   UNL     1     -36.194  25.919   3.717  0.00  0.00    +0.043 C 
ENDROOT
BRANCH   9  13
ATOM     11  O   UNL     1     -33.364  27.281   4.638  0.00  0.00    -0.453 OA
ATOM     12  O   UNL     1     -33.501  30.571   2.239  0.00  0.00    -0.286 OA
ATOM     13  C   UNL     1     -34.148  27.316   3.495  0.00  0.00    +0.149 C 
ATOM     14  C   UNL     1     -34.229  28.368   2.665  0.00  0.00    +0.080 C 
ATOM     15  C   UNL     1     -32.629  28.393   4.960  0.00  0.00    +0.154 C 
ATOM     16  C   UNL     1     -32.630  29.551   4.185  0.00  0.00    +0.107 C 
ATOM     17  C   UNL     1     -33.455  29.589   2.967  0.00  0.00    +0.205 C 
ATOM     18  C   UNL     1     -31.861  30.654   4.561  0.00  0.00    +0.143 C 
ATOM     19  C   UNL     1     -31.854  28.330   6.119  0.00  0.00    +0.074 C 
ATOM     20  C   UNL     1     -31.085  29.430   6.498  0.00  0.00    +0.140 C 
ATOM     21  C   UNL     1     -31.088  30.590   5.722  0.00  0.00    +0.073 C 
BRANCH  18  22
ATOM     22  O   UNL     1     -31.829  31.808   3.839  0.00  0.00    -0.505 OA
ATOM     23  H   UNL     1     -32.607  32.121   3.421  0.00  0.00    +0.292 HD
ENDBRANCH  18  22
BRANCH  20  24
ATOM     24  O   UNL     1     -30.329  29.372   7.629  0.00  0.00    -0.505 OA
ATOM     25  H   UNL     1     -29.395  29.415   7.571  0.00  0.00    +0.292 HD
ENDBRANCH  20  24
ENDBRANCH   9  13
BRANCH   3  26
ATOM     26  C   UNL     1     -34.339  20.680   0.675  0.00  0.00    +0.024 C 
ATOM     27  C   UNL     1     -33.611  19.571   1.103  0.00  0.00    +0.039 C 
ATOM     28  C   UNL     1     -34.460  20.953  -0.688  0.00  0.00    +0.003 C 
ATOM     29  C   UNL     1     -33.002  18.733   0.169  0.00  0.00    +0.172 C 
ATOM     30  C   UNL     1     -33.851  20.115  -1.622  0.00  0.00    +0.040 C 
ATOM     31  C   UNL     1     -33.122  19.006  -1.194  0.00  0.00    +0.168 C 
BRANCH  29  32
ATOM     32  O   UNL     1     -32.294  17.652   0.598  0.00  0.00    -0.468 OA
ATOM     33  C   UNL     1     -30.919  17.863   0.917  0.00  0.00    +0.253 C 
ENDBRANCH  29  32
BRANCH  31  34
ATOM     34  O   UNL     1     -32.534  18.194  -2.116  0.00  0.00    -0.503 OA
ATOM     35  H   UNL     1     -31.602  18.094  -2.126  0.00  0.00    +0.292 HD
ENDBRANCH  31  34
ENDBRANCH   3  26
BRANCH   7  36
ATOM     36  O   UNL     1     -38.174  24.619   3.938  0.00  0.00    -0.468 OA
ATOM     37  C   UNL     1     -39.202  25.266   3.193  0.00  0.00    +0.253 C 
ENDBRANCH   7  36
BRANCH   4  38
ATOM     38  C   UNL     1     -37.279  20.447   1.524  0.00  0.00    +0.185 C 
BRANCH  38  39
ATOM     39  O   UNL     1     -36.868  19.735   2.677  0.00  0.00    -0.378 OA
ATOM     40  H   UNL     1     -35.994  20.047   2.956  0.00  0.00    +0.211 HD
ENDBRANCH  38  39
ENDBRANCH   4  38
TORSDOF 9
ENDMDL
MODEL 8
REMARK VINA RESULT:      -6.7      3.027      9.730
REMARK  Name = 5281879
REMARK  9 active torsions:
REMARK  status: ('A' for Active; 'I' for Inactive)
REMARK    1  A    between atoms: C_3  and  C_26
REMARK    2  A    between atoms: C_4  and  C_38
REMARK    3  A    between atoms: C_7  and  O_36
REMARK    4  A    between atoms: C_9  and  C_13
REMARK    5  A    between atoms: C_18  and  O_22
REMARK    6  A    between atoms: C_20  and  O_24
REMARK    7  A    between atoms: C_29  and  O_32
REMARK    8  A    between atoms: C_31  and  O_34
REMARK    9  A    between atoms: C_38  and  O_39
REMARK                            x       y       z     vdW  Elec       q    Type
REMARK                         _______ _______ _______ _____ _____    ______ ____
ROOT
ATOM      1  O   UNL     1     -37.177  18.000  -0.436  0.00  0.00    -0.468 OA
ATOM      2  O   UNL     1     -34.468  17.061  -0.179  0.00  0.00    -0.466 OA
ATOM      3  C   UNL     1     -36.630  16.975  -1.285  0.00  0.00    +0.230 C 
ATOM      4  C   UNL     1     -35.554  16.183  -0.523  0.00  0.00    +0.239 C 
ATOM      5  C   UNL     1     -36.213  18.691   0.247  0.00  0.00    +0.176 C 
ATOM      6  C   UNL     1     -34.899  18.241   0.362  0.00  0.00    +0.206 C 
ATOM      7  C   UNL     1     -33.955  19.010   1.043  0.00  0.00    +0.176 C 
ATOM      8  C   UNL     1     -36.597  19.890   0.848  0.00  0.00    +0.043 C 
ATOM      9  C   UNL     1     -35.657  20.652   1.541  0.00  0.00    +0.041 C 
ATOM     10  C   UNL     1     -34.335  20.215   1.634  0.00  0.00    +0.043 C 
ENDROOT
BRANCH   9  13
ATOM     11  O   UNL     1     -35.084  22.488   2.980  0.00  0.00    -0.453 OA
ATOM     12  O   UNL     1     -38.697  24.286   2.424  0.00  0.00    -0.286 OA
ATOM     13  C   UNL     1     -36.060  21.925   2.172  0.00  0.00    +0.149 C 
ATOM     14  C   UNL     1     -37.265  22.473   1.948  0.00  0.00    +0.080 C 
ATOM     15  C   UNL     1     -35.360  23.676   3.608  0.00  0.00    +0.154 C 
ATOM     16  C   UNL     1     -36.575  24.343   3.462  0.00  0.00    +0.107 C 
ATOM     17  C   UNL     1     -37.610  23.753   2.599  0.00  0.00    +0.205 C 
ATOM     18  C   UNL     1     -36.801  25.551   4.125  0.00  0.00    +0.143 C 
ATOM     19  C   UNL     1     -34.361  24.215   4.419  0.00  0.00    +0.074 C 
ATOM     20  C   UNL     1     -34.583  25.421   5.083  0.00  0.00    +0.140 C 
ATOM     21  C   UNL     1     -35.801  26.087   4.937  0.00  0.00    +0.073 C 
BRANCH  18  22
ATOM     22  O   UNL     1     -37.970  26.241   4.016  0.00  0.00    -0.505 OA
ATOM     23  H   UNL     1     -38.257  26.792   4.717  0.00  0.00    +0.292 HD
ENDBRANCH  18  22
BRANCH  20  24
ATOM     24  O   UNL     1     -33.610  25.949   5.876  0.00  0.00    -0.505 OA
ATOM     25  H   UNL     1     -33.369  25.519   6.672  0.00  0.00    +0.292 HD
ENDBRANCH  20  24
ENDBRANCH   9  13
BRANCH   3  26
ATOM     26  C   UNL     1     -37.794  16.128  -1.754  0.00  0.00    +0.024 C 
ATOM     27  C   UNL     1     -38.776  15.730  -0.847  0.00  0.00    +0.039 C 
ATOM     28  C   UNL     1     -37.882  15.745  -3.092  0.00  0.00    +0.003 C 
ATOM     29  C   UNL     1     -39.848  14.950  -1.280  0.00  0.00    +0.172 C 
ATOM     30  C   UNL     1     -38.954  14.964  -3.524  0.00  0.00    +0.040 C 
ATOM     31  C   UNL     1     -39.936  14.567  -2.618  0.00  0.00    +0.168 C 
BRANCH  29  32
ATOM     32  O   UNL     1     -40.802  14.568  -0.386  0.00  0.00    -0.468 OA
ATOM     33  C   UNL     1     -40.585  13.342   0.310  0.00  0.00    +0.253 C 
ENDBRANCH  29  32
BRANCH  31  34
ATOM     34  O   UNL     1     -40.979  13.805  -3.052  0.00  0.00    -0.503 OA
ATOM     35  H   UNL     1     -40.817  12.985  -3.476  0.00  0.00    +0.292 HD
ENDBRANCH  31  34
ENDBRANCH   3  26
BRANCH   7  36
ATOM     36  O   UNL     1     -32.661  18.595   1.152  0.00  0.00    -0.468 OA
ATOM     37  C   UNL     1     -31.684  19.318   0.407  0.00  0.00    +0.253 C 
ENDBRANCH   7  36
BRANCH   4  38
ATOM     38  C   UNL     1     -34.947  15.054  -1.352  0.00  0.00    +0.185 C 
BRANCH  38  39
ATOM     39  O   UNL     1     -35.265  13.821  -0.733  0.00  0.00    -0.378 OA
ATOM     40  H   UNL     1     -34.455  13.304  -0.608  0.00  0.00    +0.211 HD
ENDBRANCH  38  39
ENDBRANCH   4  38
TORSDOF 9
ENDMDL
MODEL 9
REMARK VINA RESULT:      -6.7      3.675      9.934
REMARK  Name = 5281879
REMARK  9 active torsions:
REMARK  status: ('A' for Active; 'I' for Inactive)
REMARK    1  A    between atoms: C_3  and  C_26
REMARK    2  A    between atoms: C_4  and  C_38
REMARK    3  A    between atoms: C_7  and  O_36
REMARK    4  A    between atoms: C_9  and  C_13
REMARK    5  A    between atoms: C_18  and  O_22
REMARK    6  A    between atoms: C_20  and  O_24
REMARK    7  A    between atoms: C_29  and  O_32
REMARK    8  A    between atoms: C_31  and  O_34
REMARK    9  A    between atoms: C_38  and  O_39
REMARK                            x       y       z     vdW  Elec       q    Type
REMARK                         _______ _______ _______ _____ _____    ______ ____
ROOT
ATOM      1  O   UNL     1     -35.133  22.168   1.976  0.00  0.00    -0.468 OA
ATOM      2  O   UNL     1     -37.960  22.634   2.248  0.00  0.00    -0.466 OA
ATOM      3  C   UNL     1     -36.113  21.148   1.714  0.00  0.00    +0.230 C 
ATOM      4  C   UNL     1     -37.419  21.792   1.216  0.00  0.00    +0.239 C 
ATOM      5  C   UNL     1     -35.647  23.230   2.669  0.00  0.00    +0.176 C 
ATOM      6  C   UNL     1     -37.017  23.450   2.809  0.00  0.00    +0.206 C 
ATOM      7  C   UNL     1     -37.477  24.533   3.558  0.00  0.00    +0.176 C 
ATOM      8  C   UNL     1     -34.735  24.117   3.240  0.00  0.00    +0.043 C 
ATOM      9  C   UNL     1     -35.195  25.209   3.978  0.00  0.00    +0.041 C 
ATOM     10  C   UNL     1     -36.565  25.413   4.141  0.00  0.00    +0.043 C 
ENDROOT
BRANCH   9  13
ATOM     11  O   UNL     1     -33.652  27.026   3.690  0.00  0.00    -0.453 OA
ATOM     12  O   UNL     1     -32.739  27.116   7.659  0.00  0.00    -0.286 OA
ATOM     13  C   UNL     1     -34.231  26.144   4.590  0.00  0.00    +0.149 C 
ATOM     14  C   UNL     1     -33.973  26.130   5.908  0.00  0.00    +0.080 C 
ATOM     15  C   UNL     1     -32.745  27.940   4.163  0.00  0.00    +0.154 C 
ATOM     16  C   UNL     1     -32.387  28.025   5.507  0.00  0.00    +0.107 C 
ATOM     17  C   UNL     1     -33.005  27.096   6.465  0.00  0.00    +0.205 C 
ATOM     18  C   UNL     1     -31.458  28.977   5.932  0.00  0.00    +0.143 C 
ATOM     19  C   UNL     1     -32.175  28.811   3.232  0.00  0.00    +0.074 C 
ATOM     20  C   UNL     1     -31.247  29.763   3.653  0.00  0.00    +0.140 C 
ATOM     21  C   UNL     1     -30.888  29.845   5.000  0.00  0.00    +0.073 C 
BRANCH  18  22
ATOM     22  O   UNL     1     -31.075  29.099   7.232  0.00  0.00    -0.505 OA
ATOM     23  H   UNL     1     -30.165  29.159   7.450  0.00  0.00    +0.292 HD
ENDBRANCH  18  22
BRANCH  20  24
ATOM     24  O   UNL     1     -30.689  30.613   2.748  0.00  0.00    -0.505 OA
ATOM     25  H   UNL     1     -29.767  30.583   2.582  0.00  0.00    +0.292 HD
ENDBRANCH  20  24
ENDBRANCH   9  13
BRANCH   3  26
ATOM     26  C   UNL     1     -35.491  20.187   0.724  0.00  0.00    +0.024 C 
ATOM     27  C   UNL     1     -34.552  19.250   1.157  0.00  0.00    +0.039 C 
ATOM     28  C   UNL     1     -35.856  20.240  -0.621  0.00  0.00    +0.003 C 
ATOM     29  C   UNL     1     -33.979  18.365   0.244  0.00  0.00    +0.172 C 
ATOM     30  C   UNL     1     -35.282  19.354  -1.534  0.00  0.00    +0.040 C 
ATOM     31  C   UNL     1     -34.344  18.418  -1.101  0.00  0.00    +0.168 C 
BRANCH  29  32
ATOM     32  O   UNL     1     -33.065  17.454   0.678  0.00  0.00    -0.468 OA
ATOM     33  C   UNL     1     -31.820  17.962   1.157  0.00  0.00    +0.253 C 
ENDBRANCH  29  32
BRANCH  31  34
ATOM     34  O   UNL     1     -33.792  17.557  -2.002  0.00  0.00    -0.503 OA
ATOM     35  H   UNL     1     -33.316  16.807  -1.703  0.00  0.00    +0.292 HD
ENDBRANCH  31  34
ENDBRANCH   3  26
BRANCH   7  36
ATOM     36  O   UNL     1     -38.812  24.754   3.721  0.00  0.00    -0.468 OA
ATOM     37  C   UNL     1     -39.394  25.799   2.945  0.00  0.00    +0.253 C 
ENDBRANCH   7  36
BRANCH   4  38
ATOM     38  C   UNL     1     -38.500  20.766   0.886  0.00  0.00    +0.185 C 
BRANCH  38  39
ATOM     39  O   UNL     1     -39.587  20.959   1.773  0.00  0.00    -0.378 OA
ATOM     40  H   UNL     1     -40.287  20.320   1.569  0.00  0.00    +0.211 HD
ENDBRANCH  38  39
ENDBRANCH   4  38
TORSDOF 9
ENDMDL
