MODEL 1
REMARK VINA RESULT:      -6.8      0.000      0.000
REMARK  Name = 57350435
REMARK  4 active torsions:
REMARK  status: ('A' for Active; 'I' for Inactive)
REMARK    1  A    between atoms: C_7  and  C_13
REMARK    2  A    between atoms: C_8  and  C_20
REMARK    3  A    between atoms: C_13  and  C_14
REMARK    4  A    between atoms: C_20  and  O_21
REMARK                            x       y       z     vdW  Elec       q    Type
REMARK                         _______ _______ _______ _____ _____    ______ ____
ROOT
ATOM      1  S   UNL     1     -34.940  24.549   2.701  0.00  0.00    -0.054 S 
ATOM      2  S   UNL     1     -34.966  22.865   1.521  0.00  0.00    -0.052 S 
ATOM      3  O   UNL     1     -38.401  24.519   3.419  0.00  0.00    -0.272 OA
ATOM      4  O   UNL     1     -35.033  20.566   4.204  0.00  0.00    -0.272 OA
ATOM      5  N   UNL     1     -35.659  22.771   4.654  0.00  0.00    -0.262 N 
ATOM      6  N   UNL     1     -37.440  22.535   2.646  0.00  0.00    -0.261 N 
ATOM      7  C   UNL     1     -36.101  24.039   4.035  0.00  0.00    +0.182 C 
ATOM      8  C   UNL     1     -36.159  21.821   2.457  0.00  0.00    +0.205 C 
ATOM      9  C   UNL     1     -37.454  23.735   3.378  0.00  0.00    +0.254 C 
ATOM     10  C   UNL     1     -35.583  21.611   3.862  0.00  0.00    +0.256 C 
ATOM     11  C   UNL     1     -35.306  22.725   6.068  0.00  0.00    +0.116 C 
ATOM     12  C   UNL     1     -38.672  22.000   2.081  0.00  0.00    +0.116 C 
ENDROOT
BRANCH   7  13
ATOM     13  C   UNL     1     -36.240  25.216   5.008  0.00  0.00    +0.065 C 
BRANCH  13  14
ATOM     14  C   UNL     1     -35.048  26.128   4.936  0.00  0.00    -0.019 C 
ATOM     15  C   UNL     1     -34.907  27.007   3.864  0.00  0.00    -0.004 C 
ATOM     16  C   UNL     1     -34.083  26.094   5.943  0.00  0.00    -0.004 C 
ATOM     17  C   UNL     1     -33.799  27.854   3.798  0.00  0.00    -0.000 C 
ATOM     18  C   UNL     1     -32.977  26.939   5.877  0.00  0.00    -0.000 C 
ATOM     19  C   UNL     1     -32.834  27.820   4.804  0.00  0.00    -0.000 C 
ENDBRANCH  13  14
ENDBRANCH   7  13
BRANCH   8  20
ATOM     20  C   UNL     1     -36.273  20.477   1.728  0.00  0.00    +0.176 C 
BRANCH  20  21
ATOM     21  O   UNL     1     -36.903  19.555   2.595  0.00  0.00    -0.379 OA
ATOM     22  H   UNL     1     -37.006  18.703   2.141  0.00  0.00    +0.211 HD
ENDBRANCH  20  21
ENDBRANCH   8  20
TORSDOF 4
ENDMDL
MODEL 2
REMARK VINA RESULT:      -6.5      1.842      5.739
REMARK  Name = 57350435
REMARK  4 active torsions:
REMARK  status: ('A' for Active; 'I' for Inactive)
REMARK    1  A    between atoms: C_7  and  C_13
REMARK    2  A    between atoms: C_8  and  C_20
REMARK    3  A    between atoms: C_13  and  C_14
REMARK    4  A    between atoms: C_20  and  O_21
REMARK                            x       y       z     vdW  Elec       q    Type
REMARK                         _______ _______ _______ _____ _____    ______ ____
ROOT
ATOM      1  S   UNL     1     -34.824  23.094   1.857  0.00  0.00    -0.054 S 
ATOM      2  S   UNL     1     -34.744  24.704   3.134  0.00  0.00    -0.052 S 
ATOM      3  O   UNL     1     -35.111  20.655   4.399  0.00  0.00    -0.272 OA
ATOM      4  O   UNL     1     -38.224  24.833   3.741  0.00  0.00    -0.272 OA
ATOM      5  N   UNL     1     -37.349  22.845   2.884  0.00  0.00    -0.262 N 
ATOM      6  N   UNL     1     -35.628  22.864   4.957  0.00  0.00    -0.261 N 
ATOM      7  C   UNL     1     -36.105  22.069   2.693  0.00  0.00    +0.182 C 
ATOM      8  C   UNL     1     -35.978  24.187   4.399  0.00  0.00    +0.205 C 
ATOM      9  C   UNL     1     -35.590  21.748   4.102  0.00  0.00    +0.254 C 
ATOM     10  C   UNL     1     -37.321  24.001   3.683  0.00  0.00    +0.256 C 
ATOM     11  C   UNL     1     -38.590  22.415   2.250  0.00  0.00    +0.116 C 
ATOM     12  C   UNL     1     -35.327  22.717   6.375  0.00  0.00    +0.116 C 
ENDROOT
BRANCH   7  13
ATOM     13  C   UNL     1     -36.269  20.777   1.884  0.00  0.00    +0.065 C 
BRANCH  13  14
ATOM     14  C   UNL     1     -35.051  20.495   1.050  0.00  0.00    -0.019 C 
ATOM     15  C   UNL     1     -34.956  21.011  -0.242  0.00  0.00    -0.004 C 
ATOM     16  C   UNL     1     -34.016  19.718   1.570  0.00  0.00    -0.004 C 
ATOM     17  C   UNL     1     -33.824  20.749  -1.015  0.00  0.00    -0.000 C 
ATOM     18  C   UNL     1     -32.886  19.456   0.797  0.00  0.00    -0.000 C 
ATOM     19  C   UNL     1     -32.789  19.971  -0.496  0.00  0.00    -0.000 C 
ENDBRANCH  13  14
ENDBRANCH   7  13
BRANCH   8  20
ATOM     20  C   UNL     1     -36.083  25.314   5.434  0.00  0.00    +0.176 C 
BRANCH  20  21
ATOM     21  O   UNL     1     -36.094  26.548   4.744  0.00  0.00    -0.379 OA
ATOM     22  H   UNL     1     -35.182  26.841   4.593  0.00  0.00    +0.211 HD
ENDBRANCH  20  21
ENDBRANCH   8  20
TORSDOF 4
ENDMDL
MODEL 3
REMARK VINA RESULT:      -6.3      1.835      6.027
REMARK  Name = 57350435
REMARK  4 active torsions:
REMARK  status: ('A' for Active; 'I' for Inactive)
REMARK    1  A    between atoms: C_7  and  C_13
REMARK    2  A    between atoms: C_8  and  C_20
REMARK    3  A    between atoms: C_13  and  C_14
REMARK    4  A    between atoms: C_20  and  O_21
REMARK                            x       y       z     vdW  Elec       q    Type
REMARK                         _______ _______ _______ _____ _____    ______ ____
ROOT
ATOM      1  S   UNL     1     -34.927  22.572   1.447  0.00  0.00    -0.054 S 
ATOM      2  S   UNL     1     -34.950  24.453   2.277  0.00  0.00    -0.052 S 
ATOM      3  O   UNL     1     -35.055  20.837   4.524  0.00  0.00    -0.272 OA
ATOM      4  O   UNL     1     -38.430  24.515   2.891  0.00  0.00    -0.272 OA
ATOM      5  N   UNL     1     -37.430  22.433   2.546  0.00  0.00    -0.262 N 
ATOM      6  N   UNL     1     -35.712  23.079   4.519  0.00  0.00    -0.261 N 
ATOM      7  C   UNL     1     -36.138  21.713   2.535  0.00  0.00    +0.182 C 
ATOM      8  C   UNL     1     -36.147  24.195   3.652  0.00  0.00    +0.205 C 
ATOM      9  C   UNL     1     -35.603  21.789   3.971  0.00  0.00    +0.254 C 
ATOM     10  C   UNL     1     -37.475  23.752   3.029  0.00  0.00    +0.256 C 
ATOM     11  C   UNL     1     -38.641  21.781   2.061  0.00  0.00    +0.116 C 
ATOM     12  C   UNL     1     -35.402  23.313   5.923  0.00  0.00    +0.116 C 
ENDROOT
BRANCH   7  13
ATOM     13  C   UNL     1     -36.220  20.251   2.078  0.00  0.00    +0.065 C 
BRANCH  13  14
ATOM     14  C   UNL     1     -35.106  19.912   1.130  0.00  0.00    -0.019 C 
ATOM     15  C   UNL     1     -33.869  19.501   1.625  0.00  0.00    -0.004 C 
ATOM     16  C   UNL     1     -35.309  20.008  -0.247  0.00  0.00    -0.004 C 
ATOM     17  C   UNL     1     -32.834  19.186   0.742  0.00  0.00    -0.000 C 
ATOM     18  C   UNL     1     -34.276  19.694  -1.128  0.00  0.00    -0.000 C 
ATOM     19  C   UNL     1     -33.038  19.283  -0.634  0.00  0.00    -0.000 C 
ENDBRANCH  13  14
ENDBRANCH   7  13
BRANCH   8  20
ATOM     20  C   UNL     1     -36.324  25.538   4.373  0.00  0.00    +0.176 C 
BRANCH  20  21
ATOM     21  O   UNL     1     -36.705  26.506   3.416  0.00  0.00    -0.379 OA
ATOM     22  H   UNL     1     -37.271  27.172   3.839  0.00  0.00    +0.211 HD
ENDBRANCH  20  21
ENDBRANCH   8  20
TORSDOF 4
ENDMDL
MODEL 4
REMARK VINA RESULT:      -5.7      3.064      5.184
REMARK  Name = 57350435
REMARK  4 active torsions:
REMARK  status: ('A' for Active; 'I' for Inactive)
REMARK    1  A    between atoms: C_7  and  C_13
REMARK    2  A    between atoms: C_8  and  C_20
REMARK    3  A    between atoms: C_13  and  C_14
REMARK    4  A    between atoms: C_20  and  O_21
REMARK                            x       y       z     vdW  Elec       q    Type
REMARK                         _______ _______ _______ _____ _____    ______ ____
ROOT
ATOM      1  S   UNL     1     -37.779  24.297   3.337  0.00  0.00    -0.054 S 
ATOM      2  S   UNL     1     -39.480  25.304   2.772  0.00  0.00    -0.052 S 
ATOM      3  O   UNL     1     -37.159  22.862   0.168  0.00  0.00    -0.272 OA
ATOM      4  O   UNL     1     -37.790  27.974   1.190  0.00  0.00    -0.272 OA
ATOM      5  N   UNL     1     -36.593  26.002   1.554  0.00  0.00    -0.262 N 
ATOM      6  N   UNL     1     -38.575  24.718   0.256  0.00  0.00    -0.261 N 
ATOM      7  C   UNL     1     -36.726  24.559   1.850  0.00  0.00    +0.182 C 
ATOM      8  C   UNL     1     -38.990  25.867   1.089  0.00  0.00    +0.205 C 
ATOM      9  C   UNL     1     -37.465  23.951   0.650  0.00  0.00    +0.254 C 
ATOM     10  C   UNL     1     -37.745  26.747   1.242  0.00  0.00    +0.256 C 
ATOM     11  C   UNL     1     -35.284  26.643   1.584  0.00  0.00    +0.116 C 
ATOM     12  C   UNL     1     -39.307  24.385  -0.960  0.00  0.00    +0.116 C 
ENDROOT
BRANCH   7  13
ATOM     13  C   UNL     1     -35.401  23.824   2.082  0.00  0.00    +0.065 C 
BRANCH  13  14
ATOM     14  C   UNL     1     -35.293  23.324   3.494  0.00  0.00    -0.019 C 
ATOM     15  C   UNL     1     -34.962  24.204   4.523  0.00  0.00    -0.004 C 
ATOM     16  C   UNL     1     -35.523  21.977   3.775  0.00  0.00    -0.004 C 
ATOM     17  C   UNL     1     -34.862  23.738   5.834  0.00  0.00    -0.000 C 
ATOM     18  C   UNL     1     -35.423  21.511   5.085  0.00  0.00    -0.000 C 
ATOM     19  C   UNL     1     -35.092  22.392   6.116  0.00  0.00    -0.000 C 
ENDBRANCH  13  14
ENDBRANCH   7  13
BRANCH   8  20
ATOM     20  C   UNL     1     -40.151  26.690   0.516  0.00  0.00    +0.176 C 
BRANCH  20  21
ATOM     21  O   UNL     1     -40.705  27.460   1.564  0.00  0.00    -0.379 OA
ATOM     22  H   UNL     1     -40.080  28.160   1.816  0.00  0.00    +0.211 HD
ENDBRANCH  20  21
ENDBRANCH   8  20
TORSDOF 4
ENDMDL
MODEL 5
REMARK VINA RESULT:      -5.7      9.344     10.838
REMARK  Name = 57350435
REMARK  4 active torsions:
REMARK  status: ('A' for Active; 'I' for Inactive)
REMARK    1  A    between atoms: C_7  and  C_13
REMARK    2  A    between atoms: C_8  and  C_20
REMARK    3  A    between atoms: C_13  and  C_14
REMARK    4  A    between atoms: C_20  and  O_21
REMARK                            x       y       z     vdW  Elec       q    Type
REMARK                         _______ _______ _______ _____ _____    ______ ____
ROOT
ATOM      1  S   UNL     1     -45.454  28.297   5.537  0.00  0.00    -0.054 S 
ATOM      2  S   UNL     1     -45.499  26.459   4.615  0.00  0.00    -0.052 S 
ATOM      3  O   UNL     1     -42.081  28.996   4.744  0.00  0.00    -0.272 OA
ATOM      4  O   UNL     1     -45.872  27.728   1.338  0.00  0.00    -0.272 OA
ATOM      5  N   UNL     1     -45.071  29.186   2.977  0.00  0.00    -0.262 N 
ATOM      6  N   UNL     1     -43.168  27.350   3.492  0.00  0.00    -0.261 N 
ATOM      7  C   UNL     1     -44.458  29.255   4.321  0.00  0.00    +0.182 C 
ATOM      8  C   UNL     1     -44.493  26.814   3.115  0.00  0.00    +0.205 C 
ATOM      9  C   UNL     1     -43.094  28.564   4.196  0.00  0.00    +0.254 C 
ATOM     10  C   UNL     1     -45.197  27.937   2.344  0.00  0.00    +0.256 C 
ATOM     11  C   UNL     1     -45.538  30.399   2.317  0.00  0.00    +0.116 C 
ATOM     12  C   UNL     1     -41.952  26.628   3.137  0.00  0.00    +0.116 C 
ENDROOT
BRANCH   7  13
ATOM     13  C   UNL     1     -44.283  30.674   4.876  0.00  0.00    +0.065 C 
BRANCH  13  14
ATOM     14  C   UNL     1     -44.693  30.750   6.319  0.00  0.00    -0.019 C 
ATOM     15  C   UNL     1     -43.778  30.433   7.322  0.00  0.00    -0.004 C 
ATOM     16  C   UNL     1     -45.990  31.139   6.656  0.00  0.00    -0.004 C 
ATOM     17  C   UNL     1     -44.160  30.504   8.663  0.00  0.00    -0.000 C 
ATOM     18  C   UNL     1     -46.372  31.210   7.995  0.00  0.00    -0.000 C 
ATOM     19  C   UNL     1     -45.457  30.892   8.999  0.00  0.00    -0.000 C 
ENDBRANCH  13  14
ENDBRANCH   7  13
BRANCH   8  20
ATOM     20  C   UNL     1     -44.454  25.536   2.268  0.00  0.00    +0.176 C 
BRANCH  20  21
ATOM     21  O   UNL     1     -45.679  24.854   2.441  0.00  0.00    -0.379 OA
ATOM     22  H   UNL     1     -46.268  25.055   1.696  0.00  0.00    +0.211 HD
ENDBRANCH  20  21
ENDBRANCH   8  20
TORSDOF 4
ENDMDL
MODEL 6
REMARK VINA RESULT:      -5.7      2.946      4.840
REMARK  Name = 57350435
REMARK  4 active torsions:
REMARK  status: ('A' for Active; 'I' for Inactive)
REMARK    1  A    between atoms: C_7  and  C_13
REMARK    2  A    between atoms: C_8  and  C_20
REMARK    3  A    between atoms: C_13  and  C_14
REMARK    4  A    between atoms: C_20  and  O_21
REMARK                            x       y       z     vdW  Elec       q    Type
REMARK                         _______ _______ _______ _____ _____    ______ ____
ROOT
ATOM      1  S   UNL     1     -37.870  22.406   2.658  0.00  0.00    -0.054 S 
ATOM      2  S   UNL     1     -39.629  21.896   1.724  0.00  0.00    -0.052 S 
ATOM      3  O   UNL     1     -35.958  19.795   1.239  0.00  0.00    -0.272 OA
ATOM      4  O   UNL     1     -38.796  23.347  -1.390  0.00  0.00    -0.272 OA
ATOM      5  N   UNL     1     -37.050  22.892   0.093  0.00  0.00    -0.262 N 
ATOM      6  N   UNL     1     -37.966  20.360   0.186  0.00  0.00    -0.261 N 
ATOM      7  C   UNL     1     -36.671  22.116   1.293  0.00  0.00    +0.182 C 
ATOM      8  C   UNL     1     -38.996  21.413   0.064  0.00  0.00    +0.205 C 
ATOM      9  C   UNL     1     -36.780  20.639   0.889  0.00  0.00    +0.254 C 
ATOM     10  C   UNL     1     -38.283  22.632  -0.530  0.00  0.00    +0.256 C 
ATOM     11  C   UNL     1     -36.155  23.914  -0.436  0.00  0.00    +0.116 C 
ATOM     12  C   UNL     1     -38.175  19.049  -0.415  0.00  0.00    +0.116 C 
ENDROOT
BRANCH   7  13
ATOM     13  C   UNL     1     -35.267  22.412   1.835  0.00  0.00    +0.065 C 
BRANCH  13  14
ATOM     14  C   UNL     1     -35.277  22.558   3.329  0.00  0.00    -0.019 C 
ATOM     15  C   UNL     1     -35.339  23.826   3.906  0.00  0.00    -0.004 C 
ATOM     16  C   UNL     1     -35.225  21.424   4.141  0.00  0.00    -0.004 C 
ATOM     17  C   UNL     1     -35.349  23.961   5.295  0.00  0.00    -0.000 C 
ATOM     18  C   UNL     1     -35.235  21.559   5.528  0.00  0.00    -0.000 C 
ATOM     19  C   UNL     1     -35.296  22.828   6.106  0.00  0.00    -0.000 C 
ENDBRANCH  13  14
ENDBRANCH   7  13
BRANCH   8  20
ATOM     20  C   UNL     1     -40.204  21.033  -0.803  0.00  0.00    +0.176 C 
BRANCH  20  21
ATOM     21  O   UNL     1     -41.296  20.765   0.054  0.00  0.00    -0.379 OA
ATOM     22  H   UNL     1     -41.496  19.816   0.034  0.00  0.00    +0.211 HD
ENDBRANCH  20  21
ENDBRANCH   8  20
TORSDOF 4
ENDMDL
MODEL 7
REMARK VINA RESULT:      -5.6      3.256      4.999
REMARK  Name = 57350435
REMARK  4 active torsions:
REMARK  status: ('A' for Active; 'I' for Inactive)
REMARK    1  A    between atoms: C_7  and  C_13
REMARK    2  A    between atoms: C_8  and  C_20
REMARK    3  A    between atoms: C_13  and  C_14
REMARK    4  A    between atoms: C_20  and  O_21
REMARK                            x       y       z     vdW  Elec       q    Type
REMARK                         _______ _______ _______ _____ _____    ______ ____
ROOT
ATOM      1  S   UNL     1     -39.193  23.515   2.165  0.00  0.00    -0.054 S 
ATOM      2  S   UNL     1     -38.392  21.624   2.067  0.00  0.00    -0.052 S 
ATOM      3  O   UNL     1     -37.057  24.661   4.737  0.00  0.00    -0.272 OA
ATOM      4  O   UNL     1     -35.559  22.550   0.167  0.00  0.00    -0.272 OA
ATOM      5  N   UNL     1     -36.700  24.243   1.302  0.00  0.00    -0.262 N 
ATOM      6  N   UNL     1     -36.388  22.771   3.537  0.00  0.00    -0.261 N 
ATOM      7  C   UNL     1     -37.664  24.515   2.390  0.00  0.00    +0.182 C 
ATOM      8  C   UNL     1     -36.605  22.008   2.290  0.00  0.00    +0.205 C 
ATOM      9  C   UNL     1     -36.986  24.035   3.681  0.00  0.00    +0.254 C 
ATOM     10  C   UNL     1     -36.189  22.942   1.148  0.00  0.00    +0.256 C 
ATOM     11  C   UNL     1     -36.284  25.311   0.402  0.00  0.00    +0.116 C 
ATOM     12  C   UNL     1     -35.564  22.220   4.606  0.00  0.00    +0.116 C 
ENDROOT
BRANCH   7  13
ATOM     13  C   UNL     1     -38.082  25.983   2.527  0.00  0.00    +0.065 C 
BRANCH  13  14
ATOM     14  C   UNL     1     -39.507  26.188   2.099  0.00  0.00    -0.019 C 
ATOM     15  C   UNL     1     -39.804  26.440   0.760  0.00  0.00    -0.004 C 
ATOM     16  C   UNL     1     -40.534  26.127   3.042  0.00  0.00    -0.004 C 
ATOM     17  C   UNL     1     -41.128  26.629   0.363  0.00  0.00    -0.000 C 
ATOM     18  C   UNL     1     -41.857  26.317   2.645  0.00  0.00    -0.000 C 
ATOM     19  C   UNL     1     -42.155  26.569   1.306  0.00  0.00    -0.000 C 
ENDBRANCH  13  14
ENDBRANCH   7  13
BRANCH   8  20
ATOM     20  C   UNL     1     -35.830  20.687   2.201  0.00  0.00    +0.176 C 
BRANCH  20  21
ATOM     21  O   UNL     1     -36.733  19.628   2.447  0.00  0.00    -0.379 OA
ATOM     22  H   UNL     1     -36.505  18.872   1.883  0.00  0.00    +0.211 HD
ENDBRANCH  20  21
ENDBRANCH   8  20
TORSDOF 4
ENDMDL
MODEL 8
REMARK VINA RESULT:      -5.5      2.161      5.948
REMARK  Name = 57350435
REMARK  4 active torsions:
REMARK  status: ('A' for Active; 'I' for Inactive)
REMARK    1  A    between atoms: C_7  and  C_13
REMARK    2  A    between atoms: C_8  and  C_20
REMARK    3  A    between atoms: C_13  and  C_14
REMARK    4  A    between atoms: C_20  and  O_21
REMARK                            x       y       z     vdW  Elec       q    Type
REMARK                         _______ _______ _______ _____ _____    ______ ____
ROOT
ATOM      1  S   UNL     1     -35.098  23.633   1.645  0.00  0.00    -0.054 S 
ATOM      2  S   UNL     1     -34.324  25.518   1.916  0.00  0.00    -0.052 S 
ATOM      3  O   UNL     1     -36.189  23.224   4.982  0.00  0.00    -0.272 OA
ATOM      4  O   UNL     1     -37.435  27.189   1.771  0.00  0.00    -0.272 OA
ATOM      5  N   UNL     1     -37.460  24.895   2.208  0.00  0.00    -0.262 N 
ATOM      6  N   UNL     1     -35.765  25.400   4.241  0.00  0.00    -0.261 N 
ATOM      7  C   UNL     1     -36.633  23.753   2.654  0.00  0.00    +0.182 C 
ATOM      8  C   UNL     1     -35.594  26.240   3.037  0.00  0.00    +0.205 C 
ATOM      9  C   UNL     1     -36.213  24.075   4.094  0.00  0.00    +0.254 C 
ATOM     10  C   UNL     1     -36.937  26.197   2.300  0.00  0.00    +0.256 C 
ATOM     11  C   UNL     1     -38.801  24.673   1.681  0.00  0.00    +0.116 C 
ATOM     12  C   UNL     1     -35.472  25.936   5.564  0.00  0.00    +0.116 C 
ENDROOT
BRANCH   7  13
ATOM     13  C   UNL     1     -37.334  22.391   2.600  0.00  0.00    +0.065 C 
BRANCH  13  14
ATOM     14  C   UNL     1     -36.486  21.366   1.901  0.00  0.00    -0.019 C 
ATOM     15  C   UNL     1     -36.757  21.022   0.578  0.00  0.00    -0.004 C 
ATOM     16  C   UNL     1     -35.428  20.759   2.578  0.00  0.00    -0.004 C 
ATOM     17  C   UNL     1     -35.969  20.071  -0.071  0.00  0.00    -0.000 C 
ATOM     18  C   UNL     1     -34.641  19.808   1.930  0.00  0.00    -0.000 C 
ATOM     19  C   UNL     1     -34.911  19.463   0.605  0.00  0.00    -0.000 C 
ENDBRANCH  13  14
ENDBRANCH   7  13
BRANCH   8  20
ATOM     20  C   UNL     1     -35.193  27.694   3.320  0.00  0.00    +0.176 C 
BRANCH  20  21
ATOM     21  O   UNL     1     -34.748  28.272   2.109  0.00  0.00    -0.379 OA
ATOM     22  H   UNL     1     -33.798  28.104   2.001  0.00  0.00    +0.211 HD
ENDBRANCH  20  21
ENDBRANCH   8  20
TORSDOF 4
ENDMDL
MODEL 9
REMARK VINA RESULT:      -5.5      3.302      6.019
REMARK  Name = 57350435
REMARK  4 active torsions:
REMARK  status: ('A' for Active; 'I' for Inactive)
REMARK    1  A    between atoms: C_7  and  C_13
REMARK    2  A    between atoms: C_8  and  C_20
REMARK    3  A    between atoms: C_13  and  C_14
REMARK    4  A    between atoms: C_20  and  O_21
REMARK                            x       y       z     vdW  Elec       q    Type
REMARK                         _______ _______ _______ _____ _____    ______ ____
ROOT
ATOM      1  S   UNL     1     -34.086  24.737   2.551  0.00  0.00    -0.054 S 
ATOM      2  S   UNL     1     -32.693  25.849   1.526  0.00  0.00    -0.052 S 
ATOM      3  O   UNL     1     -34.403  26.991   5.255  0.00  0.00    -0.272 OA
ATOM      4  O   UNL     1     -35.016  28.140   0.167  0.00  0.00    -0.272 OA
ATOM      5  N   UNL     1     -35.688  26.892   2.025  0.00  0.00    -0.262 N 
ATOM      6  N   UNL     1     -33.480  27.807   3.270  0.00  0.00    -0.261 N 
ATOM      7  C   UNL     1     -35.201  26.072   3.154  0.00  0.00    +0.182 C 
ATOM      8  C   UNL     1     -33.341  27.547   1.821  0.00  0.00    +0.205 C 
ATOM      9  C   UNL     1     -34.361  27.014   4.026  0.00  0.00    +0.254 C 
ATOM     10  C   UNL     1     -34.760  27.605   1.245  0.00  0.00    +0.256 C 
ATOM     11  C   UNL     1     -37.113  26.961   1.724  0.00  0.00    +0.116 C 
ATOM     12  C   UNL     1     -32.714  28.871   3.906  0.00  0.00    +0.116 C 
ENDROOT
BRANCH   7  13
ATOM     13  C   UNL     1     -36.302  25.415   3.995  0.00  0.00    +0.065 C 
BRANCH  13  14
ATOM     14  C   UNL     1     -35.912  24.028   4.419  0.00  0.00    -0.019 C 
ATOM     15  C   UNL     1     -35.379  23.811   5.689  0.00  0.00    -0.004 C 
ATOM     16  C   UNL     1     -36.084  22.957   3.542  0.00  0.00    -0.004 C 
ATOM     17  C   UNL     1     -35.018  22.522   6.083  0.00  0.00    -0.000 C 
ATOM     18  C   UNL     1     -35.722  21.669   3.935  0.00  0.00    -0.000 C 
ATOM     19  C   UNL     1     -35.188  21.451   5.206  0.00  0.00    -0.000 C 
ENDBRANCH  13  14
ENDBRANCH   7  13
BRANCH   8  20
ATOM     20  C   UNL     1     -32.428  28.529   1.076  0.00  0.00    +0.176 C 
BRANCH  20  21
ATOM     21  O   UNL     1     -32.100  27.964  -0.177  0.00  0.00    -0.379 OA
ATOM     22  H   UNL     1     -31.381  28.475  -0.583  0.00  0.00    +0.211 HD
ENDBRANCH  20  21
ENDBRANCH   8  20
TORSDOF 4
ENDMDL
