MODEL 1
REMARK VINA RESULT:      -6.5      0.000      0.000
REMARK  Name = 5322058
REMARK  6 active torsions:
REMARK  status: ('A' for Active; 'I' for Inactive)
REMARK    1  A    between atoms: C_5  and  C_12
REMARK    2  A    between atoms: C_7  and  O_22
REMARK    3  A    between atoms: C_8  and  O_24
REMARK    4  A    between atoms: C_10  and  O_20
REMARK    5  A    between atoms: C_11  and  O_26
REMARK    6  A    between atoms: C_17  and  O_18
REMARK                            x       y       z     vdW  Elec       q    Type
REMARK                         _______ _______ _______ _____ _____    ______ ____
ROOT
ATOM      1  O   UNL     1     -34.857  23.814   3.413  0.00  0.00    -0.450 OA
ATOM      2  O   UNL     1     -38.893  24.372   3.395  0.00  0.00    -0.283 OA
ATOM      3  C   UNL     1     -37.064  23.008   2.801  0.00  0.00    +0.113 A 
ATOM      4  C   UNL     1     -35.676  22.878   2.838  0.00  0.00    +0.155 A 
ATOM      5  C   UNL     1     -35.435  24.934   3.991  0.00  0.00    +0.182 A 
ATOM      6  C   UNL     1     -37.681  24.200   3.402  0.00  0.00    +0.238 A 
ATOM      7  C   UNL     1     -37.849  22.022   2.200  0.00  0.00    +0.177 C 
ATOM      8  C   UNL     1     -36.756  25.184   4.015  0.00  0.00    +0.208 A 
ATOM      9  C   UNL     1     -35.066  21.759   2.272  0.00  0.00    +0.078 C 
ATOM     10  C   UNL     1     -35.847  20.772   1.670  0.00  0.00    +0.178 C 
ATOM     11  C   UNL     1     -37.236  20.903   1.635  0.00  0.00    +0.202 C 
ENDROOT
BRANCH   5  12
ATOM     12  C   UNL     1     -34.443  25.857   4.571  0.00  0.00    +0.038 C 
ATOM     13  C   UNL     1     -33.751  26.745   3.748  0.00  0.00    +0.006 C 
ATOM     14  C   UNL     1     -34.195  25.842   5.944  0.00  0.00    +0.006 C 
ATOM     15  C   UNL     1     -32.811  27.618   4.298  0.00  0.00    +0.037 C 
ATOM     16  C   UNL     1     -33.256  26.715   6.493  0.00  0.00    +0.037 C 
ATOM     17  C   UNL     1     -32.564  27.603   5.670  0.00  0.00    +0.139 C 
BRANCH  17  18
ATOM     18  O   UNL     1     -31.647  28.454   6.206  0.00  0.00    -0.471 OA
ATOM     19  C   UNL     1     -31.771  29.836   5.873  0.00  0.00    +0.252 C 
ENDBRANCH  17  18
ENDBRANCH   5  12
BRANCH  10  20
ATOM     20  O   UNL     1     -35.240  19.682   1.121  0.00  0.00    -0.468 OA
ATOM     21  C   UNL     1     -33.870  19.469   1.451  0.00  0.00    +0.253 C 
ENDBRANCH  10  20
BRANCH   7  22
ATOM     22  O   UNL     1     -39.208  22.114   2.143  0.00  0.00    -0.503 OA
ATOM     23  H   UNL     1     -39.625  22.403   1.356  0.00  0.00    +0.292 HD
ENDBRANCH   7  22
BRANCH   8  24
ATOM     24  O   UNL     1     -37.298  26.323   4.570  0.00  0.00    -0.501 OA
ATOM     25  H   UNL     1     -36.757  27.074   4.718  0.00  0.00    +0.292 HD
ENDBRANCH   8  24
BRANCH  11  26
ATOM     26  O   UNL     1     -37.992  19.934   1.044  0.00  0.00    -0.501 OA
ATOM     27  H   UNL     1     -38.091  19.099   1.458  0.00  0.00    +0.292 HD
ENDBRANCH  11  26
TORSDOF 6
ENDMDL
MODEL 2
REMARK VINA RESULT:      -6.3      2.886      4.375
REMARK  Name = 5322058
REMARK  6 active torsions:
REMARK  status: ('A' for Active; 'I' for Inactive)
REMARK    1  A    between atoms: C_5  and  C_12
REMARK    2  A    between atoms: C_7  and  O_22
REMARK    3  A    between atoms: C_8  and  O_24
REMARK    4  A    between atoms: C_10  and  O_20
REMARK    5  A    between atoms: C_11  and  O_26
REMARK    6  A    between atoms: C_17  and  O_18
REMARK                            x       y       z     vdW  Elec       q    Type
REMARK                         _______ _______ _______ _____ _____    ______ ____
ROOT
ATOM      1  O   UNL     1     -33.271  26.582   5.160  0.00  0.00    -0.450 OA
ATOM      2  O   UNL     1     -35.570  28.161   2.189  0.00  0.00    -0.283 OA
ATOM      3  C   UNL     1     -35.241  26.425   3.750  0.00  0.00    +0.113 A 
ATOM      4  C   UNL     1     -34.411  25.937   4.758  0.00  0.00    +0.155 A 
ATOM      5  C   UNL     1     -32.935  27.777   4.542  0.00  0.00    +0.182 A 
ATOM      6  C   UNL     1     -34.883  27.686   3.084  0.00  0.00    +0.238 A 
ATOM      7  C   UNL     1     -36.392  25.723   3.382  0.00  0.00    +0.177 C 
ATOM      8  C   UNL     1     -33.643  28.350   3.553  0.00  0.00    +0.208 A 
ATOM      9  C   UNL     1     -34.728  24.741   5.403  0.00  0.00    +0.078 C 
ATOM     10  C   UNL     1     -35.875  24.037   5.037  0.00  0.00    +0.178 C 
ATOM     11  C   UNL     1     -36.706  24.527   4.029  0.00  0.00    +0.202 C 
ENDROOT
BRANCH   5  12
ATOM     12  C   UNL     1     -31.689  28.364   5.068  0.00  0.00    +0.038 C 
ATOM     13  C   UNL     1     -30.502  28.245   4.344  0.00  0.00    +0.006 C 
ATOM     14  C   UNL     1     -31.696  29.037   6.290  0.00  0.00    +0.006 C 
ATOM     15  C   UNL     1     -29.323  28.800   4.843  0.00  0.00    +0.037 C 
ATOM     16  C   UNL     1     -30.517  29.591   6.788  0.00  0.00    +0.037 C 
ATOM     17  C   UNL     1     -29.330  29.473   6.064  0.00  0.00    +0.139 C 
BRANCH  17  18
ATOM     18  O   UNL     1     -28.180  30.013   6.551  0.00  0.00    -0.471 OA
ATOM     19  C   UNL     1     -27.784  29.623   7.865  0.00  0.00    +0.252 C 
ENDBRANCH  17  18
ENDBRANCH   5  12
BRANCH  10  20
ATOM     20  O   UNL     1     -36.175  22.870   5.675  0.00  0.00    -0.468 OA
ATOM     21  C   UNL     1     -35.083  22.127   6.212  0.00  0.00    +0.253 C 
ENDBRANCH  10  20
BRANCH   7  22
ATOM     22  O   UNL     1     -37.228  26.168   2.401  0.00  0.00    -0.503 OA
ATOM     23  H   UNL     1     -38.109  26.406   2.609  0.00  0.00    +0.292 HD
ENDBRANCH   7  22
BRANCH   8  24
ATOM     24  O   UNL     1     -33.265  29.524   2.938  0.00  0.00    -0.501 OA
ATOM     25  H   UNL     1     -33.825  29.920   2.299  0.00  0.00    +0.292 HD
ENDBRANCH   8  24
BRANCH  11  26
ATOM     26  O   UNL     1     -37.825  23.833   3.677  0.00  0.00    -0.501 OA
ATOM     27  H   UNL     1     -38.540  23.759   4.279  0.00  0.00    +0.292 HD
ENDBRANCH  11  26
TORSDOF 6
ENDMDL
MODEL 3
REMARK VINA RESULT:      -6.2      1.722      7.300
REMARK  Name = 5322058
REMARK  6 active torsions:
REMARK  status: ('A' for Active; 'I' for Inactive)
REMARK    1  A    between atoms: C_5  and  C_12
REMARK    2  A    between atoms: C_7  and  O_22
REMARK    3  A    between atoms: C_8  and  O_24
REMARK    4  A    between atoms: C_10  and  O_20
REMARK    5  A    between atoms: C_11  and  O_26
REMARK    6  A    between atoms: C_17  and  O_18
REMARK                            x       y       z     vdW  Elec       q    Type
REMARK                         _______ _______ _______ _____ _____    ______ ____
ROOT
ATOM      1  O   UNL     1     -34.822  22.301   2.438  0.00  0.00    -0.450 OA
ATOM      2  O   UNL     1     -38.845  22.791   2.860  0.00  0.00    -0.283 OA
ATOM      3  C   UNL     1     -36.677  23.597   3.317  0.00  0.00    +0.113 A 
ATOM      4  C   UNL     1     -35.313  23.371   3.139  0.00  0.00    +0.155 A 
ATOM      5  C   UNL     1     -35.722  21.410   1.874  0.00  0.00    +0.182 A 
ATOM      6  C   UNL     1     -37.636  22.648   2.732  0.00  0.00    +0.238 A 
ATOM      7  C   UNL     1     -37.120  24.705   4.043  0.00  0.00    +0.177 C 
ATOM      8  C   UNL     1     -37.060  21.508   1.980  0.00  0.00    +0.208 A 
ATOM      9  C   UNL     1     -34.383  24.255   3.687  0.00  0.00    +0.078 C 
ATOM     10  C   UNL     1     -34.821  25.362   4.413  0.00  0.00    +0.178 C 
ATOM     11  C   UNL     1     -36.187  25.588   4.590  0.00  0.00    +0.202 C 
ENDROOT
BRANCH   5  12
ATOM     12  C   UNL     1     -35.063  20.308   1.150  0.00  0.00    +0.038 C 
ATOM     13  C   UNL     1     -35.414  20.032  -0.171  0.00  0.00    +0.006 C 
ATOM     14  C   UNL     1     -34.087  19.540   1.788  0.00  0.00    +0.006 C 
ATOM     15  C   UNL     1     -34.790  18.988  -0.855  0.00  0.00    +0.037 C 
ATOM     16  C   UNL     1     -33.464  18.497   1.103  0.00  0.00    +0.037 C 
ATOM     17  C   UNL     1     -33.815  18.221  -0.218  0.00  0.00    +0.139 C 
BRANCH  17  18
ATOM     18  O   UNL     1     -33.207  17.203  -0.885  0.00  0.00    -0.471 OA
ATOM     19  C   UNL     1     -33.539  15.874  -0.484  0.00  0.00    +0.252 C 
ENDBRANCH  17  18
ENDBRANCH   5  12
BRANCH  10  20
ATOM     20  O   UNL     1     -33.904  26.219   4.943  0.00  0.00    -0.468 OA
ATOM     21  C   UNL     1     -33.250  27.108   4.041  0.00  0.00    +0.253 C 
ENDBRANCH  10  20
BRANCH   7  22
ATOM     22  O   UNL     1     -38.445  24.959   4.240  0.00  0.00    -0.503 OA
ATOM     23  H   UNL     1     -38.729  25.826   4.453  0.00  0.00    +0.292 HD
ENDBRANCH   7  22
BRANCH   8  24
ATOM     24  O   UNL     1     -37.928  20.587   1.434  0.00  0.00    -0.501 OA
ATOM     25  H   UNL     1     -38.158  19.817   1.916  0.00  0.00    +0.292 HD
ENDBRANCH   8  24
BRANCH  11  26
ATOM     26  O   UNL     1     -36.607  26.672   5.301  0.00  0.00    -0.501 OA
ATOM     27  H   UNL     1     -37.309  26.587   5.917  0.00  0.00    +0.292 HD
ENDBRANCH  11  26
TORSDOF 6
ENDMDL
MODEL 4
REMARK VINA RESULT:      -6.2      1.206      2.142
REMARK  Name = 5322058
REMARK  6 active torsions:
REMARK  status: ('A' for Active; 'I' for Inactive)
REMARK    1  A    between atoms: C_5  and  C_12
REMARK    2  A    between atoms: C_7  and  O_22
REMARK    3  A    between atoms: C_8  and  O_24
REMARK    4  A    between atoms: C_10  and  O_20
REMARK    5  A    between atoms: C_11  and  O_26
REMARK    6  A    between atoms: C_17  and  O_18
REMARK                            x       y       z     vdW  Elec       q    Type
REMARK                         _______ _______ _______ _____ _____    ______ ____
ROOT
ATOM      1  O   UNL     1     -35.005  22.419   2.715  0.00  0.00    -0.450 OA
ATOM      2  O   UNL     1     -39.040  22.287   2.160  0.00  0.00    -0.283 OA
ATOM      3  C   UNL     1     -36.939  21.287   1.780  0.00  0.00    +0.113 A 
ATOM      4  C   UNL     1     -35.567  21.391   2.003  0.00  0.00    +0.155 A 
ATOM      5  C   UNL     1     -35.840  23.392   3.243  0.00  0.00    +0.182 A 
ATOM      6  C   UNL     1     -37.828  22.322   2.328  0.00  0.00    +0.238 A 
ATOM      7  C   UNL     1     -37.455  20.217   1.046  0.00  0.00    +0.177 C 
ATOM      8  C   UNL     1     -37.176  23.413   3.093  0.00  0.00    +0.208 A 
ATOM      9  C   UNL     1     -34.702  20.424   1.491  0.00  0.00    +0.078 C 
ATOM     10  C   UNL     1     -35.213  19.354   0.757  0.00  0.00    +0.178 C 
ATOM     11  C   UNL     1     -36.587  19.250   0.535  0.00  0.00    +0.202 C 
ENDROOT
BRANCH   5  12
ATOM     12  C   UNL     1     -35.108  24.436   3.983  0.00  0.00    +0.038 C 
ATOM     13  C   UNL     1     -35.305  24.586   5.356  0.00  0.00    +0.006 C 
ATOM     14  C   UNL     1     -34.220  25.275   3.310  0.00  0.00    +0.006 C 
ATOM     15  C   UNL     1     -34.613  25.576   6.055  0.00  0.00    +0.037 C 
ATOM     16  C   UNL     1     -33.528  26.264   4.010  0.00  0.00    +0.037 C 
ATOM     17  C   UNL     1     -33.725  26.414   5.382  0.00  0.00    +0.139 C 
BRANCH  17  18
ATOM     18  O   UNL     1     -33.050  27.379   6.064  0.00  0.00    -0.471 OA
ATOM     19  C   UNL     1     -32.098  28.149   5.331  0.00  0.00    +0.252 C 
ENDBRANCH  17  18
ENDBRANCH   5  12
BRANCH  10  20
ATOM     20  O   UNL     1     -34.359  18.414   0.261  0.00  0.00    -0.468 OA
ATOM     21  C   UNL     1     -33.193  18.130   1.030  0.00  0.00    +0.253 C 
ENDBRANCH  10  20
BRANCH   7  22
ATOM     22  O   UNL     1     -38.790  20.081   0.806  0.00  0.00    -0.503 OA
ATOM     23  H   UNL     1     -39.089  19.831  -0.046  0.00  0.00    +0.292 HD
ENDBRANCH   7  22
BRANCH   8  24
ATOM     24  O   UNL     1     -37.976  24.412   3.605  0.00  0.00    -0.501 OA
ATOM     25  H   UNL     1     -37.911  25.284   3.267  0.00  0.00    +0.292 HD
ENDBRANCH   8  24
BRANCH  11  26
ATOM     26  O   UNL     1     -37.079  18.202  -0.184  0.00  0.00    -0.501 OA
ATOM     27  H   UNL     1     -37.907  18.277  -0.618  0.00  0.00    +0.292 HD
ENDBRANCH  11  26
TORSDOF 6
ENDMDL
MODEL 5
REMARK VINA RESULT:      -6.1      2.342      6.888
REMARK  Name = 5322058
REMARK  6 active torsions:
REMARK  status: ('A' for Active; 'I' for Inactive)
REMARK    1  A    between atoms: C_5  and  C_12
REMARK    2  A    between atoms: C_7  and  O_22
REMARK    3  A    between atoms: C_8  and  O_24
REMARK    4  A    between atoms: C_10  and  O_20
REMARK    5  A    between atoms: C_11  and  O_26
REMARK    6  A    between atoms: C_17  and  O_18
REMARK                            x       y       z     vdW  Elec       q    Type
REMARK                         _______ _______ _______ _____ _____    ______ ____
ROOT
ATOM      1  O   UNL     1     -34.802  21.924   2.163  0.00  0.00    -0.450 OA
ATOM      2  O   UNL     1     -38.521  20.788   0.944  0.00  0.00    -0.283 OA
ATOM      3  C   UNL     1     -37.198  22.314   2.161  0.00  0.00    +0.113 A 
ATOM      4  C   UNL     1     -35.901  22.648   2.546  0.00  0.00    +0.155 A 
ATOM      5  C   UNL     1     -34.990  20.817   1.350  0.00  0.00    +0.182 A 
ATOM      6  C   UNL     1     -37.405  21.134   1.308  0.00  0.00    +0.238 A 
ATOM      7  C   UNL     1     -38.281  23.090   2.583  0.00  0.00    +0.177 C 
ATOM      8  C   UNL     1     -36.188  20.383   0.917  0.00  0.00    +0.208 A 
ATOM      9  C   UNL     1     -35.679  23.761   3.357  0.00  0.00    +0.078 C 
ATOM     10  C   UNL     1     -36.757  24.537   3.781  0.00  0.00    +0.178 C 
ATOM     11  C   UNL     1     -38.056  24.203   3.394  0.00  0.00    +0.202 C 
ENDROOT
BRANCH   5  12
ATOM     12  C   UNL     1     -33.730  20.131   1.014  0.00  0.00    +0.038 C 
ATOM     13  C   UNL     1     -33.447  18.881   1.565  0.00  0.00    +0.006 C 
ATOM     14  C   UNL     1     -32.818  20.732   0.145  0.00  0.00    +0.006 C 
ATOM     15  C   UNL     1     -32.253  18.233   1.247  0.00  0.00    +0.037 C 
ATOM     16  C   UNL     1     -31.625  20.083  -0.172  0.00  0.00    +0.037 C 
ATOM     17  C   UNL     1     -31.342  18.834   0.379  0.00  0.00    +0.139 C 
BRANCH  17  18
ATOM     18  O   UNL     1     -30.177  18.202   0.069  0.00  0.00    -0.471 OA
ATOM     19  C   UNL     1     -29.439  17.635   1.151  0.00  0.00    +0.252 C 
ENDBRANCH  17  18
ENDBRANCH   5  12
BRANCH  10  20
ATOM     20  O   UNL     1     -36.529  25.623   4.573  0.00  0.00    -0.468 OA
ATOM     21  C   UNL     1     -35.515  25.498   5.566  0.00  0.00    +0.253 C 
ENDBRANCH  10  20
BRANCH   7  22
ATOM     22  O   UNL     1     -39.564  22.795   2.229  0.00  0.00    -0.503 OA
ATOM     23  H   UNL     1     -40.258  22.909   2.848  0.00  0.00    +0.292 HD
ENDBRANCH   7  22
BRANCH   8  24
ATOM     24  O   UNL     1     -36.344  19.259   0.134  0.00  0.00    -0.501 OA
ATOM     25  H   UNL     1     -35.598  18.866  -0.274  0.00  0.00    +0.292 HD
ENDBRANCH   8  24
BRANCH  11  26
ATOM     26  O   UNL     1     -39.105  24.967   3.813  0.00  0.00    -0.501 OA
ATOM     27  H   UNL     1     -39.474  24.831   4.664  0.00  0.00    +0.292 HD
ENDBRANCH  11  26
TORSDOF 6
ENDMDL
MODEL 6
REMARK VINA RESULT:      -6.0      1.606      2.290
REMARK  Name = 5322058
REMARK  6 active torsions:
REMARK  status: ('A' for Active; 'I' for Inactive)
REMARK    1  A    between atoms: C_5  and  C_12
REMARK    2  A    between atoms: C_7  and  O_22
REMARK    3  A    between atoms: C_8  and  O_24
REMARK    4  A    between atoms: C_10  and  O_20
REMARK    5  A    between atoms: C_11  and  O_26
REMARK    6  A    between atoms: C_17  and  O_18
REMARK                            x       y       z     vdW  Elec       q    Type
REMARK                         _______ _______ _______ _____ _____    ______ ____
ROOT
ATOM      1  O   UNL     1     -36.379  22.715   2.276  0.00  0.00    -0.450 OA
ATOM      2  O   UNL     1     -40.437  23.080   2.241  0.00  0.00    -0.283 OA
ATOM      3  C   UNL     1     -38.531  21.914   1.488  0.00  0.00    +0.113 A 
ATOM      4  C   UNL     1     -37.140  21.845   1.540  0.00  0.00    +0.155 A 
ATOM      5  C   UNL     1     -37.023  23.701   3.008  0.00  0.00    +0.182 A 
ATOM      6  C   UNL     1     -39.219  22.966   2.253  0.00  0.00    +0.238 A 
ATOM      7  C   UNL     1     -39.255  21.000   0.719  0.00  0.00    +0.177 C 
ATOM      8  C   UNL     1     -38.356  23.882   3.036  0.00  0.00    +0.208 A 
ATOM      9  C   UNL     1     -36.464  20.859   0.821  0.00  0.00    +0.078 C 
ATOM     10  C   UNL     1     -37.183  19.945   0.052  0.00  0.00    +0.178 C 
ATOM     11  C   UNL     1     -38.576  20.014   0.001  0.00  0.00    +0.202 C 
ENDROOT
BRANCH   5  12
ATOM     12  C   UNL     1     -36.090  24.566   3.752  0.00  0.00    +0.038 C 
ATOM     13  C   UNL     1     -35.724  25.808   3.232  0.00  0.00    +0.006 C 
ATOM     14  C   UNL     1     -35.571  24.142   4.976  0.00  0.00    +0.006 C 
ATOM     15  C   UNL     1     -34.839  26.625   3.937  0.00  0.00    +0.037 C 
ATOM     16  C   UNL     1     -34.687  24.960   5.680  0.00  0.00    +0.037 C 
ATOM     17  C   UNL     1     -34.321  26.201   5.160  0.00  0.00    +0.139 C 
BRANCH  17  18
ATOM     18  O   UNL     1     -33.458  26.999   5.846  0.00  0.00    -0.471 OA
ATOM     19  C   UNL     1     -32.562  27.800   5.077  0.00  0.00    +0.252 C 
ENDBRANCH  17  18
ENDBRANCH   5  12
BRANCH  10  20
ATOM     20  O   UNL     1     -36.512  18.985  -0.646  0.00  0.00    -0.468 OA
ATOM     21  C   UNL     1     -35.168  18.721  -0.255  0.00  0.00    +0.253 C 
ENDBRANCH  10  20
BRANCH   7  22
ATOM     22  O   UNL     1     -40.616  21.036   0.642  0.00  0.00    -0.503 OA
ATOM     23  H   UNL     1     -41.133  20.768   1.375  0.00  0.00    +0.292 HD
ENDBRANCH   7  22
BRANCH   8  24
ATOM     24  O   UNL     1     -38.964  24.892   3.750  0.00  0.00    -0.501 OA
ATOM     25  H   UNL     1     -39.201  25.691   3.321  0.00  0.00    +0.292 HD
ENDBRANCH   8  24
BRANCH  11  26
ATOM     26  O   UNL     1     -39.272  19.117  -0.754  0.00  0.00    -0.501 OA
ATOM     27  H   UNL     1     -39.215  19.147  -1.689  0.00  0.00    +0.292 HD
ENDBRANCH  11  26
TORSDOF 6
ENDMDL
MODEL 7
REMARK VINA RESULT:      -5.9      2.514      5.401
REMARK  Name = 5322058
REMARK  6 active torsions:
REMARK  status: ('A' for Active; 'I' for Inactive)
REMARK    1  A    between atoms: C_5  and  C_12
REMARK    2  A    between atoms: C_7  and  O_22
REMARK    3  A    between atoms: C_8  and  O_24
REMARK    4  A    between atoms: C_10  and  O_20
REMARK    5  A    between atoms: C_11  and  O_26
REMARK    6  A    between atoms: C_17  and  O_18
REMARK                            x       y       z     vdW  Elec       q    Type
REMARK                         _______ _______ _______ _____ _____    ______ ____
ROOT
ATOM      1  O   UNL     1     -34.140  20.006   2.116  0.00  0.00    -0.450 OA
ATOM      2  O   UNL     1     -37.187  18.536  -0.156  0.00  0.00    -0.283 OA
ATOM      3  C   UNL     1     -34.927  18.376   0.499  0.00  0.00    +0.113 A 
ATOM      4  C   UNL     1     -33.927  18.928   1.298  0.00  0.00    +0.155 A 
ATOM      5  C   UNL     1     -35.408  20.566   2.156  0.00  0.00    +0.182 A 
ATOM      6  C   UNL     1     -36.271  18.973   0.528  0.00  0.00    +0.238 A 
ATOM      7  C   UNL     1     -34.651  17.276  -0.317  0.00  0.00    +0.177 C 
ATOM      8  C   UNL     1     -36.455  20.136   1.430  0.00  0.00    +0.208 A 
ATOM      9  C   UNL     1     -32.644  18.381   1.285  0.00  0.00    +0.078 C 
ATOM     10  C   UNL     1     -32.365  17.283   0.472  0.00  0.00    +0.178 C 
ATOM     11  C   UNL     1     -33.367  16.731  -0.327  0.00  0.00    +0.202 C 
ENDROOT
BRANCH   5  12
ATOM     12  C   UNL     1     -35.498  21.717   3.073  0.00  0.00    +0.038 C 
ATOM     13  C   UNL     1     -35.611  23.010   2.563  0.00  0.00    +0.006 C 
ATOM     14  C   UNL     1     -35.470  21.512   4.454  0.00  0.00    +0.006 C 
ATOM     15  C   UNL     1     -35.696  24.098   3.432  0.00  0.00    +0.037 C 
ATOM     16  C   UNL     1     -35.555  22.601   5.322  0.00  0.00    +0.037 C 
ATOM     17  C   UNL     1     -35.668  23.893   4.811  0.00  0.00    +0.139 C 
BRANCH  17  18
ATOM     18  O   UNL     1     -35.750  24.955   5.658  0.00  0.00    -0.471 OA
ATOM     19  C   UNL     1     -34.664  25.881   5.647  0.00  0.00    +0.252 C 
ENDBRANCH  17  18
ENDBRANCH   5  12
BRANCH  10  20
ATOM     20  O   UNL     1     -31.107  16.757   0.468  0.00  0.00    -0.468 OA
ATOM     21  C   UNL     1     -30.036  17.637   0.798  0.00  0.00    +0.253 C 
ENDBRANCH  10  20
BRANCH   7  22
ATOM     22  O   UNL     1     -35.602  16.709  -1.113  0.00  0.00    -0.503 OA
ATOM     23  H   UNL     1     -36.443  16.496  -0.759  0.00  0.00    +0.292 HD
ENDBRANCH   7  22
BRANCH   8  24
ATOM     24  O   UNL     1     -37.695  20.735   1.469  0.00  0.00    -0.501 OA
ATOM     25  H   UNL     1     -38.301  20.514   2.149  0.00  0.00    +0.292 HD
ENDBRANCH   8  24
BRANCH  11  26
ATOM     26  O   UNL     1     -33.085  15.658  -1.120  0.00  0.00    -0.501 OA
ATOM     27  H   UNL     1     -33.412  14.809  -0.894  0.00  0.00    +0.292 HD
ENDBRANCH  11  26
TORSDOF 6
ENDMDL
MODEL 8
REMARK VINA RESULT:      -5.9      2.769      7.521
REMARK  Name = 5322058
REMARK  6 active torsions:
REMARK  status: ('A' for Active; 'I' for Inactive)
REMARK    1  A    between atoms: C_5  and  C_12
REMARK    2  A    between atoms: C_7  and  O_22
REMARK    3  A    between atoms: C_8  and  O_24
REMARK    4  A    between atoms: C_10  and  O_20
REMARK    5  A    between atoms: C_11  and  O_26
REMARK    6  A    between atoms: C_17  and  O_18
REMARK                            x       y       z     vdW  Elec       q    Type
REMARK                         _______ _______ _______ _____ _____    ______ ____
ROOT
ATOM      1  O   UNL     1     -34.919  22.922   1.523  0.00  0.00    -0.450 OA
ATOM      2  O   UNL     1     -35.911  23.176   5.467  0.00  0.00    -0.283 OA
ATOM      3  C   UNL     1     -35.364  24.303   3.470  0.00  0.00    +0.113 A 
ATOM      4  C   UNL     1     -35.026  24.148   2.126  0.00  0.00    +0.155 A 
ATOM      5  C   UNL     1     -35.167  21.788   2.281  0.00  0.00    +0.182 A 
ATOM      6  C   UNL     1     -35.616  23.103   4.282  0.00  0.00    +0.238 A 
ATOM      7  C   UNL     1     -35.457  25.578   4.031  0.00  0.00    +0.177 C 
ATOM      8  C   UNL     1     -35.491  21.799   3.586  0.00  0.00    +0.208 A 
ATOM      9  C   UNL     1     -34.778  25.271   1.336  0.00  0.00    +0.078 C 
ATOM     10  C   UNL     1     -34.870  26.546   1.893  0.00  0.00    +0.178 C 
ATOM     11  C   UNL     1     -35.210  26.700   3.238  0.00  0.00    +0.202 C 
ENDROOT
BRANCH   5  12
ATOM     12  C   UNL     1     -35.017  20.539   1.512  0.00  0.00    +0.038 C 
ATOM     13  C   UNL     1     -33.799  19.859   1.515  0.00  0.00    +0.006 C 
ATOM     14  C   UNL     1     -36.093  20.038   0.779  0.00  0.00    +0.006 C 
ATOM     15  C   UNL     1     -33.657  18.678   0.786  0.00  0.00    +0.037 C 
ATOM     16  C   UNL     1     -35.951  18.857   0.051  0.00  0.00    +0.037 C 
ATOM     17  C   UNL     1     -34.733  18.177   0.054  0.00  0.00    +0.139 C 
BRANCH  17  18
ATOM     18  O   UNL     1     -34.595  17.026  -0.657  0.00  0.00    -0.471 OA
ATOM     19  C   UNL     1     -33.652  16.071  -0.172  0.00  0.00    +0.252 C 
ENDBRANCH  17  18
ENDBRANCH   5  12
BRANCH  10  20
ATOM     20  O   UNL     1     -34.627  27.636   1.112  0.00  0.00    -0.468 OA
ATOM     21  C   UNL     1     -35.638  27.999   0.175  0.00  0.00    +0.253 C 
ENDBRANCH  10  20
BRANCH   7  22
ATOM     22  O   UNL     1     -35.784  25.771   5.341  0.00  0.00    -0.503 OA
ATOM     23  H   UNL     1     -35.586  25.110   5.975  0.00  0.00    +0.292 HD
ENDBRANCH   7  22
BRANCH   8  24
ATOM     24  O   UNL     1     -35.701  20.651   4.320  0.00  0.00    -0.501 OA
ATOM     25  H   UNL     1     -36.552  20.466   4.667  0.00  0.00    +0.292 HD
ENDBRANCH   8  24
BRANCH  11  26
ATOM     26  O   UNL     1     -35.297  27.950   3.775  0.00  0.00    -0.501 OA
ATOM     27  H   UNL     1     -35.097  28.701   3.251  0.00  0.00    +0.292 HD
ENDBRANCH  11  26
TORSDOF 6
ENDMDL
MODEL 9
REMARK VINA RESULT:      -5.8      3.689      7.466
REMARK  Name = 5322058
REMARK  6 active torsions:
REMARK  status: ('A' for Active; 'I' for Inactive)
REMARK    1  A    between atoms: C_5  and  C_12
REMARK    2  A    between atoms: C_7  and  O_22
REMARK    3  A    between atoms: C_8  and  O_24
REMARK    4  A    between atoms: C_10  and  O_20
REMARK    5  A    between atoms: C_11  and  O_26
REMARK    6  A    between atoms: C_17  and  O_18
REMARK                            x       y       z     vdW  Elec       q    Type
REMARK                         _______ _______ _______ _____ _____    ______ ____
ROOT
ATOM      1  O   UNL     1     -36.403  22.074   0.999  0.00  0.00    -0.450 OA
ATOM      2  O   UNL     1     -36.456  22.947   4.979  0.00  0.00    -0.283 OA
ATOM      3  C   UNL     1     -37.041  23.588   2.787  0.00  0.00    +0.113 A 
ATOM      4  C   UNL     1     -36.988  23.232   1.440  0.00  0.00    +0.155 A 
ATOM      5  C   UNL     1     -35.848  21.215   1.936  0.00  0.00    +0.182 A 
ATOM      6  C   UNL     1     -36.445  22.686   3.784  0.00  0.00    +0.238 A 
ATOM      7  C   UNL     1     -37.650  24.783   3.177  0.00  0.00    +0.177 C 
ATOM      8  C   UNL     1     -35.825  21.444   3.262  0.00  0.00    +0.208 A 
ATOM      9  C   UNL     1     -37.543  24.072   0.475  0.00  0.00    +0.078 C 
ATOM     10  C   UNL     1     -38.152  25.266   0.861  0.00  0.00    +0.178 C 
ATOM     11  C   UNL     1     -38.206  25.621   2.209  0.00  0.00    +0.202 C 
ENDROOT
BRANCH   5  12
ATOM     12  C   UNL     1     -35.254  20.010   1.330  0.00  0.00    +0.038 C 
ATOM     13  C   UNL     1     -35.998  19.238   0.436  0.00  0.00    +0.006 C 
ATOM     14  C   UNL     1     -33.947  19.640   1.650  0.00  0.00    +0.006 C 
ATOM     15  C   UNL     1     -35.434  18.098  -0.136  0.00  0.00    +0.037 C 
ATOM     16  C   UNL     1     -33.384  18.499   1.077  0.00  0.00    +0.037 C 
ATOM     17  C   UNL     1     -34.128  17.729   0.184  0.00  0.00    +0.139 C 
BRANCH  17  18
ATOM     18  O   UNL     1     -33.579  16.615  -0.374  0.00  0.00    -0.471 OA
ATOM     19  C   UNL     1     -34.475  15.578  -0.771  0.00  0.00    +0.252 C 
ENDBRANCH  17  18
ENDBRANCH   5  12
BRANCH  10  20
ATOM     20  O   UNL     1     -38.692  26.079  -0.091  0.00  0.00    -0.468 OA
ATOM     21  C   UNL     1     -40.039  25.817  -0.477  0.00  0.00    +0.253 C 
ENDBRANCH  10  20
BRANCH   7  22
ATOM     22  O   UNL     1     -37.722  25.166   4.484  0.00  0.00    -0.503 OA
ATOM     23  H   UNL     1     -37.603  24.533   5.164  0.00  0.00    +0.292 HD
ENDBRANCH   7  22
BRANCH   8  24
ATOM     24  O   UNL     1     -35.238  20.584   4.165  0.00  0.00    -0.501 OA
ATOM     25  H   UNL     1     -35.649  20.421   4.991  0.00  0.00    +0.292 HD
ENDBRANCH   8  24
BRANCH  11  26
ATOM     26  O   UNL     1     -38.802  26.790   2.578  0.00  0.00    -0.501 OA
ATOM     27  H   UNL     1     -38.790  27.526   1.998  0.00  0.00    +0.292 HD
ENDBRANCH  11  26
TORSDOF 6
ENDMDL
