MODEL 1
REMARK VINA RESULT:      -6.6      0.000      0.000
REMARK  Name = 196037
REMARK  9 active torsions:
REMARK  status: ('A' for Active; 'I' for Inactive)
REMARK    1  A    between atoms: C_1  and  O_2
REMARK    2  A    between atoms: C_1  and  C_4
REMARK    3  A    between atoms: C_1  and  C_18
REMARK    4  A    between atoms: C_4  and  N_7
REMARK    5  A    between atoms: C_18  and  O_19
REMARK    6  A    between atoms: O_19  and  C_21
REMARK    7  A    between atoms: C_21  and  C_22
REMARK    8  A    between atoms: C_22  and  O_25
REMARK    9  A    between atoms: O_25  and  C_27
REMARK                            x       y       z     vdW  Elec       q    Type
REMARK                         _______ _______ _______ _____ _____    ______ ____
ROOT
ATOM      1  C   UNL     1     -35.197  21.898   4.960  0.00  0.00    +0.170 C 
ENDROOT
BRANCH   1   2
ATOM      2  O   UNL     1     -35.372  20.849   5.915  0.00  0.00    -0.379 OA
ATOM      3  H   UNL     1     -34.980  20.031   5.573  0.00  0.00    +0.211 HD
ENDBRANCH   1   2
BRANCH   1   4
ATOM      4  C   UNL     1     -35.793  23.184   5.536  0.00  0.00    +0.108 C 
BRANCH   4   7
ATOM      5  O   UNL     1     -38.160  24.153   3.885  0.00  0.00    -0.272 OA
ATOM      6  O   UNL     1     -37.237  28.010   1.379  0.00  0.00    -0.252 OA
ATOM      7  N   UNL     1     -35.333  24.362   4.840  0.00  0.00    -0.237 NA
ATOM      8  N   UNL     1     -35.538  27.129   2.701  0.00  0.00    -0.228 N 
ATOM      9  N   UNL     1     -37.721  26.084   2.620  0.00  0.00    -0.211 N 
ATOM     10  N   UNL     1     -33.945  25.979   4.183  0.00  0.00    -0.240 NA
ATOM     11  C   UNL     1     -36.042  25.148   3.977  0.00  0.00    +0.192 C 
ATOM     12  C   UNL     1     -35.170  26.128   3.591  0.00  0.00    +0.136 C 
ATOM     13  C   UNL     1     -37.392  25.041   3.526  0.00  0.00    +0.254 C 
ATOM     14  C   UNL     1     -34.076  24.903   4.932  0.00  0.00    +0.203 C 
ATOM     15  C   UNL     1     -36.853  27.144   2.173  0.00  0.00    +0.318 C 
ATOM     16  C   UNL     1     -34.573  28.152   2.320  0.00  0.00    +0.123 C 
ATOM     17  C   UNL     1     -39.080  26.082   2.087  0.00  0.00    +0.124 C 
ENDBRANCH   4   7
ENDBRANCH   1   4
BRANCH   1  18
ATOM     18  C   UNL     1     -35.905  21.498   3.668  0.00  0.00    +0.239 C 
BRANCH  18  19
ATOM     19  O   UNL     1     -35.160  20.464   3.037  0.00  0.00    -0.443 OA
BRANCH  19  21
ATOM     20  O   UNL     1     -36.857  19.940   1.571  0.00  0.00    -0.246 OA
ATOM     21  C   UNL     1     -35.666  20.000   1.853  0.00  0.00    +0.354 C 
BRANCH  21  22
ATOM     22  C   UNL     1     -34.543  19.597   0.901  0.00  0.00    +0.221 C 
ATOM     23  C   UNL     1     -34.072  20.832   0.138  0.00  0.00    +0.055 C 
ATOM     24  C   UNL     1     -35.014  18.509  -0.061  0.00  0.00    +0.055 C 
BRANCH  22  25
ATOM     25  O   UNL     1     -33.439  19.091   1.640  0.00  0.00    -0.472 OA
BRANCH  25  27
ATOM     26 CL   UNL     1     -28.735  17.415  -1.449  0.00  0.00    -0.082 Cl
ATOM     27  C   UNL     1     -32.340  18.700   0.920  0.00  0.00    +0.139 C 
ATOM     28  C   UNL     1     -31.502  19.661   0.368  0.00  0.00    +0.038 C 
ATOM     29  C   UNL     1     -32.077  17.346   0.748  0.00  0.00    +0.038 C 
ATOM     30  C   UNL     1     -30.385  19.263  -0.366  0.00  0.00    +0.015 C 
ATOM     31  C   UNL     1     -30.960  16.948   0.014  0.00  0.00    +0.015 C 
ATOM     32  C   UNL     1     -30.114  17.906  -0.544  0.00  0.00    +0.058 C 
ENDBRANCH  25  27
ENDBRANCH  22  25
ENDBRANCH  21  22
ENDBRANCH  19  21
ENDBRANCH  18  19
ENDBRANCH   1  18
TORSDOF 9
ENDMDL
MODEL 2
REMARK VINA RESULT:      -6.6      4.282      8.870
REMARK  Name = 196037
REMARK  9 active torsions:
REMARK  status: ('A' for Active; 'I' for Inactive)
REMARK    1  A    between atoms: C_1  and  O_2
REMARK    2  A    between atoms: C_1  and  C_4
REMARK    3  A    between atoms: C_1  and  C_18
REMARK    4  A    between atoms: C_4  and  N_7
REMARK    5  A    between atoms: C_18  and  O_19
REMARK    6  A    between atoms: O_19  and  C_21
REMARK    7  A    between atoms: C_21  and  C_22
REMARK    8  A    between atoms: C_22  and  O_25
REMARK    9  A    between atoms: O_25  and  C_27
REMARK                            x       y       z     vdW  Elec       q    Type
REMARK                         _______ _______ _______ _____ _____    ______ ____
ROOT
ATOM      1  C   UNL     1     -37.404  20.831   1.711  0.00  0.00    +0.170 C 
ENDROOT
BRANCH   1   2
ATOM      2  O   UNL     1     -36.802  20.086   2.772  0.00  0.00    -0.379 OA
ATOM      3  H   UNL     1     -37.361  20.140   3.562  0.00  0.00    +0.211 HD
ENDBRANCH   1   2
BRANCH   1   4
ATOM      4  C   UNL     1     -36.553  20.656   0.451  0.00  0.00    +0.108 C 
BRANCH   4   7
ATOM      5  O   UNL     1     -33.653  20.017   1.119  0.00  0.00    -0.272 OA
ATOM      6  O   UNL     1     -32.453  15.578   0.188  0.00  0.00    -0.252 OA
ATOM      7  N   UNL     1     -36.365  19.267   0.105  0.00  0.00    -0.237 NA
ATOM      8  N   UNL     1     -34.637  16.242  -0.263  0.00  0.00    -0.228 N 
ATOM      9  N   UNL     1     -33.028  17.799   0.660  0.00  0.00    -0.211 N 
ATOM     10  N   UNL     1     -36.864  17.223  -0.633  0.00  0.00    -0.240 NA
ATOM     11  C   UNL     1     -35.223  18.527   0.227  0.00  0.00    +0.192 C 
ATOM     12  C   UNL     1     -35.556  17.282  -0.232  0.00  0.00    +0.136 C 
ATOM     13  C   UNL     1     -33.932  18.893   0.712  0.00  0.00    +0.254 C 
ATOM     14  C   UNL     1     -37.325  18.438  -0.417  0.00  0.00    +0.203 C 
ATOM     15  C   UNL     1     -33.314  16.466   0.191  0.00  0.00    +0.318 C 
ATOM     16  C   UNL     1     -35.040  14.932  -0.760  0.00  0.00    +0.123 C 
ATOM     17  C   UNL     1     -31.670  18.050   1.131  0.00  0.00    +0.124 C 
ENDBRANCH   4   7
ENDBRANCH   1   4
BRANCH   1  18
ATOM     18  C   UNL     1     -37.469  22.297   2.127  0.00  0.00    +0.239 C 
BRANCH  18  19
ATOM     19  O   UNL     1     -37.004  22.417   3.466  0.00  0.00    -0.443 OA
BRANCH  19  21
ATOM     20  O   UNL     1     -37.943  24.476   3.888  0.00  0.00    -0.246 OA
ATOM     21  C   UNL     1     -37.019  23.679   3.995  0.00  0.00    +0.354 C 
BRANCH  21  22
ATOM     22  C   UNL     1     -35.738  23.957   4.777  0.00  0.00    +0.221 C 
ATOM     23  C   UNL     1     -34.561  23.994   3.808  0.00  0.00    +0.055 C 
ATOM     24  C   UNL     1     -35.524  22.897   5.856  0.00  0.00    +0.055 C 
BRANCH  22  25
ATOM     25  O   UNL     1     -35.824  25.226   5.412  0.00  0.00    -0.472 OA
BRANCH  25  27
ATOM     26 CL   UNL     1     -31.361  28.936   4.513  0.00  0.00    -0.082 Cl
ATOM     27  C   UNL     1     -34.783  26.093   5.202  0.00  0.00    +0.139 C 
ATOM     28  C   UNL     1     -34.691  26.780   3.997  0.00  0.00    +0.038 C 
ATOM     29  C   UNL     1     -33.829  26.275   6.196  0.00  0.00    +0.038 C 
ATOM     30  C   UNL     1     -33.631  27.661   3.784  0.00  0.00    +0.015 C 
ATOM     31  C   UNL     1     -32.769  27.155   5.983  0.00  0.00    +0.015 C 
ATOM     32  C   UNL     1     -32.669  27.848   4.776  0.00  0.00    +0.058 C 
ENDBRANCH  25  27
ENDBRANCH  22  25
ENDBRANCH  21  22
ENDBRANCH  19  21
ENDBRANCH  18  19
ENDBRANCH   1  18
TORSDOF 9
ENDMDL
MODEL 3
REMARK VINA RESULT:      -6.5      5.022      9.254
REMARK  Name = 196037
REMARK  9 active torsions:
REMARK  status: ('A' for Active; 'I' for Inactive)
REMARK    1  A    between atoms: C_1  and  O_2
REMARK    2  A    between atoms: C_1  and  C_4
REMARK    3  A    between atoms: C_1  and  C_18
REMARK    4  A    between atoms: C_4  and  N_7
REMARK    5  A    between atoms: C_18  and  O_19
REMARK    6  A    between atoms: O_19  and  C_21
REMARK    7  A    between atoms: C_21  and  C_22
REMARK    8  A    between atoms: C_22  and  O_25
REMARK    9  A    between atoms: O_25  and  C_27
REMARK                            x       y       z     vdW  Elec       q    Type
REMARK                         _______ _______ _______ _____ _____    ______ ____
ROOT
ATOM      1  C   UNL     1     -34.682  26.188   4.867  0.00  0.00    +0.170 C 
ENDROOT
BRANCH   1   2
ATOM      2  O   UNL     1     -35.368  27.365   4.434  0.00  0.00    -0.379 OA
ATOM      3  H   UNL     1     -34.787  28.135   4.539  0.00  0.00    +0.211 HD
ENDBRANCH   1   2
BRANCH   1   4
ATOM      4  C   UNL     1     -35.701  25.237   5.498  0.00  0.00    +0.108 C 
BRANCH   4   7
ATOM      5  O   UNL     1     -37.780  25.846   3.359  0.00  0.00    -0.272 OA
ATOM      6  O   UNL     1     -38.704  22.199   0.557  0.00  0.00    -0.252 OA
ATOM      7  N   UNL     1     -35.857  24.019   4.740  0.00  0.00    -0.237 NA
ATOM      8  N   UNL     1     -37.136  21.911   2.252  0.00  0.00    -0.228 N 
ATOM      9  N   UNL     1     -38.260  24.033   1.943  0.00  0.00    -0.211 N 
ATOM     10  N   UNL     1     -35.532  21.902   4.119  0.00  0.00    -0.240 NA
ATOM     11  C   UNL     1     -36.682  23.802   3.674  0.00  0.00    +0.192 C 
ATOM     12  C   UNL     1     -36.464  22.501   3.314  0.00  0.00    +0.136 C 
ATOM     13  C   UNL     1     -37.598  24.681   3.021  0.00  0.00    +0.254 C 
ATOM     14  C   UNL     1     -35.185  22.845   4.970  0.00  0.00    +0.203 C 
ATOM     15  C   UNL     1     -38.077  22.670   1.513  0.00  0.00    +0.318 C 
ATOM     16  C   UNL     1     -36.868  20.520   1.906  0.00  0.00    +0.123 C 
ATOM     17  C   UNL     1     -39.226  24.832   1.195  0.00  0.00    +0.124 C 
ENDBRANCH   4   7
ENDBRANCH   1   4
BRANCH   1  18
ATOM     18  C   UNL     1     -33.615  26.596   5.879  0.00  0.00    +0.239 C 
BRANCH  18  19
ATOM     19  O   UNL     1     -33.104  27.874   5.518  0.00  0.00    -0.443 OA
BRANCH  19  21
ATOM     20  O   UNL     1     -31.100  27.367   6.531  0.00  0.00    -0.246 OA
ATOM     21  C   UNL     1     -31.805  28.121   5.871  0.00  0.00    +0.354 C 
BRANCH  21  22
ATOM     22  C   UNL     1     -31.327  29.452   5.296  0.00  0.00    +0.221 C 
ATOM     23  C   UNL     1     -29.821  29.572   5.506  0.00  0.00    +0.055 C 
ATOM     24  C   UNL     1     -32.065  30.618   5.950  0.00  0.00    +0.055 C 
BRANCH  22  25
ATOM     25  O   UNL     1     -31.580  29.494   3.898  0.00  0.00    -0.472 OA
BRANCH  25  27
ATOM     26 CL   UNL     1     -34.081  34.378   1.808  0.00  0.00    -0.082 Cl
ATOM     27  C   UNL     1     -32.165  30.634   3.410  0.00  0.00    +0.139 C 
ATOM     28  C   UNL     1     -33.533  30.657   3.168  0.00  0.00    +0.038 C 
ATOM     29  C   UNL     1     -31.382  31.756   3.163  0.00  0.00    +0.038 C 
ATOM     30  C   UNL     1     -34.127  31.817   2.671  0.00  0.00    +0.015 C 
ATOM     31  C   UNL     1     -31.976  32.916   2.667  0.00  0.00    +0.015 C 
ATOM     32  C   UNL     1     -33.348  32.947   2.420  0.00  0.00    +0.058 C 
ENDBRANCH  25  27
ENDBRANCH  22  25
ENDBRANCH  21  22
ENDBRANCH  19  21
ENDBRANCH  18  19
ENDBRANCH   1  18
TORSDOF 9
ENDMDL
MODEL 4
REMARK VINA RESULT:      -6.5      4.859      8.505
REMARK  Name = 196037
REMARK  9 active torsions:
REMARK  status: ('A' for Active; 'I' for Inactive)
REMARK    1  A    between atoms: C_1  and  O_2
REMARK    2  A    between atoms: C_1  and  C_4
REMARK    3  A    between atoms: C_1  and  C_18
REMARK    4  A    between atoms: C_4  and  N_7
REMARK    5  A    between atoms: C_18  and  O_19
REMARK    6  A    between atoms: O_19  and  C_21
REMARK    7  A    between atoms: C_21  and  C_22
REMARK    8  A    between atoms: C_22  and  O_25
REMARK    9  A    between atoms: O_25  and  C_27
REMARK                            x       y       z     vdW  Elec       q    Type
REMARK                         _______ _______ _______ _____ _____    ______ ____
ROOT
ATOM      1  C   UNL     1     -35.624  25.582   4.776  0.00  0.00    +0.170 C 
ENDROOT
BRANCH   1   2
ATOM      2  O   UNL     1     -36.509  26.642   5.146  0.00  0.00    -0.379 OA
ATOM      3  H   UNL     1     -37.347  26.269   5.461  0.00  0.00    +0.211 HD
ENDBRANCH   1   2
BRANCH   1   4
ATOM      4  C   UNL     1     -36.205  24.264   5.289  0.00  0.00    +0.108 C 
BRANCH   4   7
ATOM      5  O   UNL     1     -38.724  24.878   3.695  0.00  0.00    -0.272 OA
ATOM      6  O   UNL     1     -39.475  21.887   0.159  0.00  0.00    -0.252 OA
ATOM      7  N   UNL     1     -36.275  23.256   4.258  0.00  0.00    -0.237 NA
ATOM      8  N   UNL     1     -37.591  21.566   1.486  0.00  0.00    -0.228 N 
ATOM      9  N   UNL     1     -39.122  23.392   1.918  0.00  0.00    -0.211 N 
ATOM     10  N   UNL     1     -35.691  21.476   3.048  0.00  0.00    -0.240 NA
ATOM     11  C   UNL     1     -37.232  23.118   3.293  0.00  0.00    +0.192 C 
ATOM     12  C   UNL     1     -36.851  22.023   2.569  0.00  0.00    +0.136 C 
ATOM     13  C   UNL     1     -38.399  23.897   3.031  0.00  0.00    +0.254 C 
ATOM     14  C   UNL     1     -35.369  22.244   4.069  0.00  0.00    +0.203 C 
ATOM     15  C   UNL     1     -38.776  22.246   1.114  0.00  0.00    +0.318 C 
ATOM     16  C   UNL     1     -37.143  20.394   0.744  0.00  0.00    +0.123 C 
ATOM     17  C   UNL     1     -40.340  24.106   1.551  0.00  0.00    +0.124 C 
ENDBRANCH   4   7
ENDBRANCH   1   4
BRANCH   1  18
ATOM     18  C   UNL     1     -34.257  25.856   5.396  0.00  0.00    +0.239 C 
BRANCH  18  19
ATOM     19  O   UNL     1     -33.886  27.201   5.116  0.00  0.00    -0.443 OA
BRANCH  19  21
ATOM     20  O   UNL     1     -32.279  26.517   3.616  0.00  0.00    -0.246 OA
ATOM     21  C   UNL     1     -33.025  27.377   4.067  0.00  0.00    +0.354 C 
BRANCH  21  22
ATOM     22  C   UNL     1     -33.143  28.789   3.498  0.00  0.00    +0.221 C 
ATOM     23  C   UNL     1     -34.520  28.955   2.863  0.00  0.00    +0.055 C 
ATOM     24  C   UNL     1     -32.036  29.055   2.479  0.00  0.00    +0.055 C 
BRANCH  22  25
ATOM     25  O   UNL     1     -33.024  29.745   4.543  0.00  0.00    -0.472 OA
BRANCH  25  27
ATOM     26 CL   UNL     1     -27.595  30.918   6.450  0.00  0.00    -0.082 Cl
ATOM     27  C   UNL     1     -31.756  30.018   4.988  0.00  0.00    +0.139 C 
ATOM     28  C   UNL     1     -31.190  29.227   5.981  0.00  0.00    +0.038 C 
ATOM     29  C   UNL     1     -31.051  31.083   4.442  0.00  0.00    +0.038 C 
ATOM     30  C   UNL     1     -29.901  29.507   6.434  0.00  0.00    +0.015 C 
ATOM     31  C   UNL     1     -29.762  31.363   4.894  0.00  0.00    +0.015 C 
ATOM     32  C   UNL     1     -29.186  30.575   5.891  0.00  0.00    +0.058 C 
ENDBRANCH  25  27
ENDBRANCH  22  25
ENDBRANCH  21  22
ENDBRANCH  19  21
ENDBRANCH  18  19
ENDBRANCH   1  18
TORSDOF 9
ENDMDL
MODEL 5
REMARK VINA RESULT:      -6.5      3.136      5.049
REMARK  Name = 196037
REMARK  9 active torsions:
REMARK  status: ('A' for Active; 'I' for Inactive)
REMARK    1  A    between atoms: C_1  and  O_2
REMARK    2  A    between atoms: C_1  and  C_4
REMARK    3  A    between atoms: C_1  and  C_18
REMARK    4  A    between atoms: C_4  and  N_7
REMARK    5  A    between atoms: C_18  and  O_19
REMARK    6  A    between atoms: O_19  and  C_21
REMARK    7  A    between atoms: C_21  and  C_22
REMARK    8  A    between atoms: C_22  and  O_25
REMARK    9  A    between atoms: O_25  and  C_27
REMARK                            x       y       z     vdW  Elec       q    Type
REMARK                         _______ _______ _______ _____ _____    ______ ____
ROOT
ATOM      1  C   UNL     1     -35.559  25.760   5.441  0.00  0.00    +0.170 C 
ENDROOT
BRANCH   1   2
ATOM      2  O   UNL     1     -35.982  26.928   4.735  0.00  0.00    -0.379 OA
ATOM      3  H   UNL     1     -35.457  27.025   3.925  0.00  0.00    +0.211 HD
ENDBRANCH   1   2
BRANCH   1   4
ATOM      4  C   UNL     1     -34.066  25.549   5.180  0.00  0.00    +0.108 C 
BRANCH   4   7
ATOM      5  O   UNL     1     -33.637  26.879   2.476  0.00  0.00    -0.272 OA
ATOM      6  O   UNL     1     -31.141  30.844   2.717  0.00  0.00    -0.252 OA
ATOM      7  N   UNL     1     -33.290  26.737   5.443  0.00  0.00    -0.237 NA
ATOM      8  N   UNL     1     -31.565  29.693   4.694  0.00  0.00    -0.228 N 
ATOM      9  N   UNL     1     -32.388  28.868   2.571  0.00  0.00    -0.211 N 
ATOM     10  N   UNL     1     -32.167  28.270   6.610  0.00  0.00    -0.240 NA
ATOM     11  C   UNL     1     -32.850  27.661   4.538  0.00  0.00    +0.192 C 
ATOM     12  C   UNL     1     -32.166  28.586   5.278  0.00  0.00    +0.136 C 
ATOM     13  C   UNL     1     -33.020  27.721   3.122  0.00  0.00    +0.254 C 
ATOM     14  C   UNL     1     -32.853  27.148   6.677  0.00  0.00    +0.203 C 
ATOM     15  C   UNL     1     -31.655  29.878   3.292  0.00  0.00    +0.318 C 
ATOM     16  C   UNL     1     -30.848  30.652   5.525  0.00  0.00    +0.123 C 
ATOM     17  C   UNL     1     -32.493  29.040   1.126  0.00  0.00    +0.124 C 
ENDBRANCH   4   7
ENDBRANCH   1   4
BRANCH   1  18
ATOM     18  C   UNL     1     -36.375  24.571   4.941  0.00  0.00    +0.239 C 
BRANCH  18  19
ATOM     19  O   UNL     1     -37.280  25.024   3.941  0.00  0.00    -0.443 OA
BRANCH  19  21
ATOM     20  O   UNL     1     -38.470  23.261   3.059  0.00  0.00    -0.246 OA
ATOM     21  C   UNL     1     -37.598  24.116   2.967  0.00  0.00    +0.354 C 
BRANCH  21  22
ATOM     22  C   UNL     1     -36.743  24.332   1.721  0.00  0.00    +0.221 C 
ATOM     23  C   UNL     1     -36.805  25.805   1.326  0.00  0.00    +0.055 C 
ATOM     24  C   UNL     1     -37.220  23.440   0.577  0.00  0.00    +0.055 C 
BRANCH  22  25
ATOM     25  O   UNL     1     -35.387  24.009   2.001  0.00  0.00    -0.472 OA
BRANCH  25  27
ATOM     26 CL   UNL     1     -33.732  18.465   0.998  0.00  0.00    -0.082 Cl
ATOM     27  C   UNL     1     -35.000  22.715   1.767  0.00  0.00    +0.139 C 
ATOM     28  C   UNL     1     -34.193  22.426   0.673  0.00  0.00    +0.038 C 
ATOM     29  C   UNL     1     -35.419  21.707   2.626  0.00  0.00    +0.038 C 
ATOM     30  C   UNL     1     -33.800  21.109   0.435  0.00  0.00    +0.015 C 
ATOM     31  C   UNL     1     -35.027  20.390   2.387  0.00  0.00    +0.015 C 
ATOM     32  C   UNL     1     -34.217  20.090   1.292  0.00  0.00    +0.058 C 
ENDBRANCH  25  27
ENDBRANCH  22  25
ENDBRANCH  21  22
ENDBRANCH  19  21
ENDBRANCH  18  19
ENDBRANCH   1  18
TORSDOF 9
ENDMDL
MODEL 6
REMARK VINA RESULT:      -6.5      1.685      2.578
REMARK  Name = 196037
REMARK  9 active torsions:
REMARK  status: ('A' for Active; 'I' for Inactive)
REMARK    1  A    between atoms: C_1  and  O_2
REMARK    2  A    between atoms: C_1  and  C_4
REMARK    3  A    between atoms: C_1  and  C_18
REMARK    4  A    between atoms: C_4  and  N_7
REMARK    5  A    between atoms: C_18  and  O_19
REMARK    6  A    between atoms: O_19  and  C_21
REMARK    7  A    between atoms: C_21  and  C_22
REMARK    8  A    between atoms: C_22  and  O_25
REMARK    9  A    between atoms: O_25  and  C_27
REMARK                            x       y       z     vdW  Elec       q    Type
REMARK                         _______ _______ _______ _____ _____    ______ ____
ROOT
ATOM      1  C   UNL     1     -36.316  21.190   2.170  0.00  0.00    +0.170 C 
ENDROOT
BRANCH   1   2
ATOM      2  O   UNL     1     -36.701  19.871   2.560  0.00  0.00    -0.379 OA
ATOM      3  H   UNL     1     -37.541  19.909   3.043  0.00  0.00    +0.211 HD
ENDBRANCH   1   2
BRANCH   1   4
ATOM      4  C   UNL     1     -37.136  22.195   2.981  0.00  0.00    +0.108 C 
BRANCH   4   7
ATOM      5  O   UNL     1     -37.118  24.910   1.604  0.00  0.00    -0.272 OA
ATOM      6  O   UNL     1     -34.545  28.128   3.848  0.00  0.00    -0.252 OA
ATOM      7  N   UNL     1     -36.307  23.048   3.799  0.00  0.00    -0.237 NA
ATOM      8  N   UNL     1     -34.670  25.992   4.761  0.00  0.00    -0.228 N 
ATOM      9  N   UNL     1     -35.835  26.539   2.709  0.00  0.00    -0.211 N 
ATOM     10  N   UNL     1     -34.985  23.662   5.487  0.00  0.00    -0.240 NA
ATOM     11  C   UNL     1     -36.000  24.362   3.587  0.00  0.00    +0.192 C 
ATOM     12  C   UNL     1     -35.191  24.711   4.633  0.00  0.00    +0.136 C 
ATOM     13  C   UNL     1     -36.392  25.244   2.535  0.00  0.00    +0.254 C 
ATOM     14  C   UNL     1     -35.673  22.671   4.956  0.00  0.00    +0.203 C 
ATOM     15  C   UNL     1     -34.979  26.972   3.785  0.00  0.00    +0.318 C 
ATOM     16  C   UNL     1     -33.814  26.317   5.895  0.00  0.00    +0.123 C 
ATOM     17  C   UNL     1     -36.164  27.534   1.694  0.00  0.00    +0.124 C 
ENDBRANCH   4   7
ENDBRANCH   1   4
BRANCH   1  18
ATOM     18  C   UNL     1     -36.580  21.349   0.675  0.00  0.00    +0.239 C 
BRANCH  18  19
ATOM     19  O   UNL     1     -37.043  20.107   0.156  0.00  0.00    -0.443 OA
BRANCH  19  21
ATOM     20  O   UNL     1     -36.314  20.190  -2.026  0.00  0.00    -0.246 OA
ATOM     21  C   UNL     1     -36.375  19.630  -0.939  0.00  0.00    +0.354 C 
BRANCH  21  22
ATOM     22  C   UNL     1     -35.673  18.313  -0.617  0.00  0.00    +0.221 C 
ATOM     23  C   UNL     1     -34.678  17.996  -1.728  0.00  0.00    +0.055 C 
ATOM     24  C   UNL     1     -36.690  17.184  -0.456  0.00  0.00    +0.055 C 
BRANCH  22  25
ATOM     25  O   UNL     1     -34.948  18.435   0.600  0.00  0.00    -0.472 OA
BRANCH  25  27
ATOM     26 CL   UNL     1     -29.121  19.007   0.158  0.00  0.00    -0.082 Cl
ATOM     27  C   UNL     1     -33.588  18.569   0.498  0.00  0.00    +0.139 C 
ATOM     28  C   UNL     1     -33.036  19.822   0.262  0.00  0.00    +0.038 C 
ATOM     29  C   UNL     1     -32.775  17.449   0.629  0.00  0.00    +0.038 C 
ATOM     30  C   UNL     1     -31.652  19.958   0.157  0.00  0.00    +0.015 C 
ATOM     31  C   UNL     1     -31.391  17.585   0.524  0.00  0.00    +0.015 C 
ATOM     32  C   UNL     1     -30.829  18.839   0.287  0.00  0.00    +0.058 C 
ENDBRANCH  25  27
ENDBRANCH  22  25
ENDBRANCH  21  22
ENDBRANCH  19  21
ENDBRANCH  18  19
ENDBRANCH   1  18
TORSDOF 9
ENDMDL
MODEL 7
REMARK VINA RESULT:      -6.5      4.802      9.270
REMARK  Name = 196037
REMARK  9 active torsions:
REMARK  status: ('A' for Active; 'I' for Inactive)
REMARK    1  A    between atoms: C_1  and  O_2
REMARK    2  A    between atoms: C_1  and  C_4
REMARK    3  A    between atoms: C_1  and  C_18
REMARK    4  A    between atoms: C_4  and  N_7
REMARK    5  A    between atoms: C_18  and  O_19
REMARK    6  A    between atoms: O_19  and  C_21
REMARK    7  A    between atoms: C_21  and  C_22
REMARK    8  A    between atoms: C_22  and  O_25
REMARK    9  A    between atoms: O_25  and  C_27
REMARK                            x       y       z     vdW  Elec       q    Type
REMARK                         _______ _______ _______ _____ _____    ______ ____
ROOT
ATOM      1  C   UNL     1     -35.335  25.882   4.314  0.00  0.00    +0.170 C 
ENDROOT
BRANCH   1   2
ATOM      2  O   UNL     1     -35.842  27.209   4.149  0.00  0.00    -0.379 OA
ATOM      3  H   UNL     1     -35.976  27.614   5.020  0.00  0.00    +0.211 HD
ENDBRANCH   1   2
BRANCH   1   4
ATOM      4  C   UNL     1     -36.437  25.015   4.925  0.00  0.00    +0.108 C 
BRANCH   4   7
ATOM      5  O   UNL     1     -35.112  22.438   3.993  0.00  0.00    -0.272 OA
ATOM      6  O   UNL     1     -37.556  20.165   0.696  0.00  0.00    -0.252 OA
ATOM      7  N   UNL     1     -37.316  24.458   3.925  0.00  0.00    -0.237 NA
ATOM      8  N   UNL     1     -38.422  22.159   1.524  0.00  0.00    -0.228 N 
ATOM      9  N   UNL     1     -36.318  21.281   2.340  0.00  0.00    -0.211 N 
ATOM     10  N   UNL     1     -39.088  24.279   2.582  0.00  0.00    -0.240 NA
ATOM     11  C   UNL     1     -37.145  23.302   3.217  0.00  0.00    +0.192 C 
ATOM     12  C   UNL     1     -38.242  23.217   2.404  0.00  0.00    +0.136 C 
ATOM     13  C   UNL     1     -36.089  22.343   3.256  0.00  0.00    +0.254 C 
ATOM     14  C   UNL     1     -38.500  25.011   3.507  0.00  0.00    +0.203 C 
ATOM     15  C   UNL     1     -37.448  21.132   1.459  0.00  0.00    +0.318 C 
ATOM     16  C   UNL     1     -39.608  22.112   0.678  0.00  0.00    +0.123 C 
ATOM     17  C   UNL     1     -35.303  20.234   2.287  0.00  0.00    +0.124 C 
ENDBRANCH   4   7
ENDBRANCH   1   4
BRANCH   1  18
ATOM     18  C   UNL     1     -34.116  25.942   5.229  0.00  0.00    +0.239 C 
BRANCH  18  19
ATOM     19  O   UNL     1     -33.616  27.274   5.243  0.00  0.00    -0.443 OA
BRANCH  19  21
ATOM     20  O   UNL     1     -32.281  26.847   7.070  0.00  0.00    -0.246 OA
ATOM     21  C   UNL     1     -32.552  27.505   6.073  0.00  0.00    +0.354 C 
BRANCH  21  22
ATOM     22  C   UNL     1     -31.713  28.677   5.570  0.00  0.00    +0.221 C 
ATOM     23  C   UNL     1     -31.399  28.464   4.092  0.00  0.00    +0.055 C 
ATOM     24  C   UNL     1     -30.430  28.813   6.387  0.00  0.00    +0.055 C 
BRANCH  22  25
ATOM     25  O   UNL     1     -32.449  29.887   5.692  0.00  0.00    -0.472 OA
BRANCH  25  27
ATOM     26 CL   UNL     1     -31.741  33.858   1.424  0.00  0.00    -0.082 Cl
ATOM     27  C   UNL     1     -32.283  30.814   4.696  0.00  0.00    +0.139 C 
ATOM     28  C   UNL     1     -31.147  31.615   4.683  0.00  0.00    +0.038 C 
ATOM     29  C   UNL     1     -33.253  30.943   3.709  0.00  0.00    +0.038 C 
ATOM     30  C   UNL     1     -30.980  32.558   3.669  0.00  0.00    +0.015 C 
ATOM     31  C   UNL     1     -33.085  31.886   2.695  0.00  0.00    +0.015 C 
ATOM     32  C   UNL     1     -31.949  32.694   2.675  0.00  0.00    +0.058 C 
ENDBRANCH  25  27
ENDBRANCH  22  25
ENDBRANCH  21  22
ENDBRANCH  19  21
ENDBRANCH  18  19
ENDBRANCH   1  18
TORSDOF 9
ENDMDL
MODEL 8
REMARK VINA RESULT:      -6.4      6.612     12.018
REMARK  Name = 196037
REMARK  9 active torsions:
REMARK  status: ('A' for Active; 'I' for Inactive)
REMARK    1  A    between atoms: C_1  and  O_2
REMARK    2  A    between atoms: C_1  and  C_4
REMARK    3  A    between atoms: C_1  and  C_18
REMARK    4  A    between atoms: C_4  and  N_7
REMARK    5  A    between atoms: C_18  and  O_19
REMARK    6  A    between atoms: O_19  and  C_21
REMARK    7  A    between atoms: C_21  and  C_22
REMARK    8  A    between atoms: C_22  and  O_25
REMARK    9  A    between atoms: O_25  and  C_27
REMARK                            x       y       z     vdW  Elec       q    Type
REMARK                         _______ _______ _______ _____ _____    ______ ____
ROOT
ATOM      1  C   UNL     1     -40.066  25.331   2.710  0.00  0.00    +0.170 C 
ENDROOT
BRANCH   1   2
ATOM      2  O   UNL     1     -40.054  25.116   4.123  0.00  0.00    -0.379 OA
ATOM      3  H   UNL     1     -40.944  24.871   4.420  0.00  0.00    +0.211 HD
ENDBRANCH   1   2
BRANCH   1   4
ATOM      4  C   UNL     1     -38.620  25.458   2.227  0.00  0.00    +0.108 C 
BRANCH   4   7
ATOM      5  O   UNL     1     -37.069  24.703   4.734  0.00  0.00    -0.272 OA
ATOM      6  O   UNL     1     -34.880  20.566   4.404  0.00  0.00    -0.252 OA
ATOM      7  N   UNL     1     -38.019  24.176   1.948  0.00  0.00    -0.237 NA
ATOM      8  N   UNL     1     -36.115  21.303   2.575  0.00  0.00    -0.228 N 
ATOM      9  N   UNL     1     -35.963  22.634   4.592  0.00  0.00    -0.211 N 
ATOM     10  N   UNL     1     -37.488  22.333   0.810  0.00  0.00    -0.240 NA
ATOM     11  C   UNL     1     -37.229  23.430   2.775  0.00  0.00    +0.192 C 
ATOM     12  C   UNL     1     -36.917  22.310   2.055  0.00  0.00    +0.136 C 
ATOM     13  C   UNL     1     -36.779  23.690   4.105  0.00  0.00    +0.254 C 
ATOM     14  C   UNL     1     -38.147  23.473   0.777  0.00  0.00    +0.203 C 
ATOM     15  C   UNL     1     -35.598  21.430   3.888  0.00  0.00    +0.318 C 
ATOM     16  C   UNL     1     -35.812  20.127   1.769  0.00  0.00    +0.123 C 
ATOM     17  C   UNL     1     -35.440  22.784   5.946  0.00  0.00    +0.124 C 
ENDBRANCH   4   7
ENDBRANCH   1   4
BRANCH   1  18
ATOM     18  C   UNL     1     -40.852  26.607   2.423  0.00  0.00    +0.239 C 
BRANCH  18  19
ATOM     19  O   UNL     1     -42.071  26.571   3.157  0.00  0.00    -0.443 OA
BRANCH  19  21
ATOM     20  O   UNL     1     -41.544  28.364   4.502  0.00  0.00    -0.246 OA
ATOM     21  C   UNL     1     -42.363  27.691   3.887  0.00  0.00    +0.354 C 
BRANCH  21  22
ATOM     22  C   UNL     1     -43.851  28.022   3.805  0.00  0.00    +0.221 C 
ATOM     23  C   UNL     1     -44.577  27.334   4.956  0.00  0.00    +0.055 C 
ATOM     24  C   UNL     1     -44.427  27.589   2.458  0.00  0.00    +0.055 C 
BRANCH  22  25
ATOM     25  O   UNL     1     -44.043  29.425   3.940  0.00  0.00    -0.472 OA
BRANCH  25  27
ATOM     26 CL   UNL     1     -46.359  31.298   9.000  0.00  0.00    -0.082 Cl
ATOM     27  C   UNL     1     -44.583  29.862   5.121  0.00  0.00    +0.139 C 
ATOM     28  C   UNL     1     -43.767  30.021   6.234  0.00  0.00    +0.038 C 
ATOM     29  C   UNL     1     -45.943  30.142   5.193  0.00  0.00    +0.038 C 
ATOM     30  C   UNL     1     -44.317  30.466   7.436  0.00  0.00    +0.015 C 
ATOM     31  C   UNL     1     -46.493  30.587   6.395  0.00  0.00    +0.015 C 
ATOM     32  C   UNL     1     -45.681  30.749   7.517  0.00  0.00    +0.058 C 
ENDBRANCH  25  27
ENDBRANCH  22  25
ENDBRANCH  21  22
ENDBRANCH  19  21
ENDBRANCH  18  19
ENDBRANCH   1  18
TORSDOF 9
ENDMDL
MODEL 9
REMARK VINA RESULT:      -6.4      3.074      4.884
REMARK  Name = 196037
REMARK  9 active torsions:
REMARK  status: ('A' for Active; 'I' for Inactive)
REMARK    1  A    between atoms: C_1  and  O_2
REMARK    2  A    between atoms: C_1  and  C_4
REMARK    3  A    between atoms: C_1  and  C_18
REMARK    4  A    between atoms: C_4  and  N_7
REMARK    5  A    between atoms: C_18  and  O_19
REMARK    6  A    between atoms: O_19  and  C_21
REMARK    7  A    between atoms: C_21  and  C_22
REMARK    8  A    between atoms: C_22  and  O_25
REMARK    9  A    between atoms: O_25  and  C_27
REMARK                            x       y       z     vdW  Elec       q    Type
REMARK                         _______ _______ _______ _____ _____    ______ ____
ROOT
ATOM      1  C   UNL     1     -35.881  25.813   5.236  0.00  0.00    +0.170 C 
ENDROOT
BRANCH   1   2
ATOM      2  O   UNL     1     -37.158  25.919   4.603  0.00  0.00    -0.379 OA
ATOM      3  H   UNL     1     -37.517  25.031   4.450  0.00  0.00    +0.211 HD
ENDBRANCH   1   2
BRANCH   1   4
ATOM      4  C   UNL     1     -34.815  26.337   4.272  0.00  0.00    +0.108 C 
BRANCH   4   7
ATOM      5  O   UNL     1     -33.607  28.315   2.299  0.00  0.00    -0.272 OA
ATOM      6  O   UNL     1     -29.917  30.650   4.015  0.00  0.00    -0.252 OA
ATOM      7  N   UNL     1     -33.707  26.954   4.960  0.00  0.00    -0.237 NA
ATOM      8  N   UNL     1     -30.966  29.093   5.390  0.00  0.00    -0.228 N 
ATOM      9  N   UNL     1     -31.756  29.497   3.136  0.00  0.00    -0.211 N 
ATOM     10  N   UNL     1     -32.269  27.396   6.606  0.00  0.00    -0.240 NA
ATOM     11  C   UNL     1     -32.859  27.911   4.480  0.00  0.00    +0.192 C 
ATOM     12  C   UNL     1     -31.990  28.162   5.506  0.00  0.00    +0.136 C 
ATOM     13  C   UNL     1     -32.818  28.555   3.208  0.00  0.00    +0.254 C 
ATOM     14  C   UNL     1     -33.312  26.677   6.244  0.00  0.00    +0.203 C 
ATOM     15  C   UNL     1     -30.809  29.809   4.177  0.00  0.00    +0.318 C 
ATOM     16  C   UNL     1     -30.066  29.327   6.512  0.00  0.00    +0.123 C 
ATOM     17  C   UNL     1     -31.610  30.222   1.878  0.00  0.00    +0.124 C 
ENDBRANCH   4   7
ENDBRANCH   1   4
BRANCH   1  18
ATOM     18  C   UNL     1     -35.633  24.347   5.581  0.00  0.00    +0.239 C 
BRANCH  18  19
ATOM     19  O   UNL     1     -36.482  23.536   4.778  0.00  0.00    -0.443 OA
BRANCH  19  21
ATOM     20  O   UNL     1     -35.245  21.600   4.929  0.00  0.00    -0.246 OA
ATOM     21  C   UNL     1     -35.922  22.390   4.282  0.00  0.00    +0.354 C 
BRANCH  21  22
ATOM     22  C   UNL     1     -36.285  22.198   2.812  0.00  0.00    +0.221 C 
ATOM     23  C   UNL     1     -35.151  22.736   1.945  0.00  0.00    +0.055 C 
ATOM     24  C   UNL     1     -37.602  22.898   2.485  0.00  0.00    +0.055 C 
BRANCH  22  25
ATOM     25  O   UNL     1     -36.436  20.813   2.527  0.00  0.00    -0.472 OA
BRANCH  25  27
ATOM     26 CL   UNL     1     -32.851  18.541  -1.531  0.00  0.00    -0.082 Cl
ATOM     27  C   UNL     1     -35.599  20.283   1.579  0.00  0.00    +0.139 C 
ATOM     28  C   UNL     1     -36.018  20.207   0.256  0.00  0.00    +0.038 C 
ATOM     29  C   UNL     1     -34.340  19.827   1.952  0.00  0.00    +0.038 C 
ATOM     30  C   UNL     1     -35.167  19.667  -0.707  0.00  0.00    +0.015 C 
ATOM     31  C   UNL     1     -33.489  19.287   0.988  0.00  0.00    +0.015 C 
ATOM     32  C   UNL     1     -33.902  19.207  -0.342  0.00  0.00    +0.058 C 
ENDBRANCH  25  27
ENDBRANCH  22  25
ENDBRANCH  21  22
ENDBRANCH  19  21
ENDBRANCH  18  19
ENDBRANCH   1  18
TORSDOF 9
ENDMDL
