MODEL 1
REMARK VINA RESULT:      -6.9      0.000      0.000
REMARK  Name = 5200193
REMARK  9 active torsions:
REMARK  status: ('A' for Active; 'I' for Inactive)
REMARK    1  A    between atoms: C_6  and  C_26
REMARK    2  A    between atoms: C_7  and  O_20
REMARK    3  A    between atoms: C_11  and  O_22
REMARK    4  A    between atoms: C_19  and  O_24
REMARK    5  A    between atoms: C_26  and  C_28
REMARK    6  A    between atoms: C_28  and  C_29
REMARK    7  A    between atoms: C_29  and  C_30
REMARK    8  A    between atoms: C_30  and  O_31
REMARK    9  A    between atoms: O_31  and  S_32
REMARK                            x       y       z     vdW  Elec       q    Type
REMARK                         _______ _______ _______ _____ _____    ______ ____
ROOT
ATOM      1  C   UNL     1     -36.285  23.059   2.661  0.00  0.00    +0.025 C 
ATOM      2  C   UNL     1     -37.775  22.721   2.415  0.00  0.00    +0.005 C 
ATOM      3  C   UNL     1     -38.020  21.994   1.083  0.00  0.00    +0.027 C 
ATOM      4  C   UNL     1     -37.192  20.664   1.076  0.00  0.00    +0.005 C 
ATOM      5  C   UNL     1     -37.401  19.850  -0.259  0.00  0.00    +0.000 C 
ATOM      6  C   UNL     1     -36.436  23.833   3.998  0.00  0.00    +0.002 C 
ATOM      7  C   UNL     1     -35.488  21.738   2.720  0.00  0.00    +0.110 C 
ATOM      8  C   UNL     1     -35.698  20.904   1.440  0.00  0.00    +0.029 C 
ATOM      9  C   UNL     1     -38.934  19.603  -0.427  0.00  0.00    +0.005 C 
ATOM     10  C   UNL     1     -38.493  24.050   2.655  0.00  0.00    +0.000 C 
ATOM     11  C   UNL     1     -39.518  21.736   0.811  0.00  0.00    +0.110 C 
ATOM     12  C   UNL     1     -37.674  24.730   3.766  0.00  0.00    +0.000 C 
ATOM     13  C   UNL     1     -39.734  20.914  -0.462  0.00  0.00    +0.029 C 
ATOM     14  C   UNL     1     -36.710  18.459  -0.167  0.00  0.00    +0.002 C 
ATOM     15  C   UNL     1     -35.665  23.971   1.568  0.00  0.00    +0.002 C 
ATOM     16  C   UNL     1     -39.270  18.710  -1.633  0.00  0.00    +0.029 C 
ATOM     17  C   UNL     1     -36.801  20.612  -1.469  0.00  0.00    +0.000 C 
ATOM     18  C   UNL     1     -37.041  17.529  -1.342  0.00  0.00    +0.029 C 
ATOM     19  C   UNL     1     -38.544  17.367  -1.561  0.00  0.00    +0.111 C 
ENDROOT
BRANCH   7  20
ATOM     20  O   UNL     1     -35.885  20.929   3.826  0.00  0.00    -0.384 OA
ATOM     21  H   UNL     1     -36.543  21.405   4.356  0.00  0.00    +0.210 HD
ENDBRANCH   7  20
BRANCH  11  22
ATOM     22  O   UNL     1     -40.123  21.029   1.893  0.00  0.00    -0.384 OA
ATOM     23  H   UNL     1     -41.050  20.838   1.676  0.00  0.00    +0.210 HD
ENDBRANCH  11  22
BRANCH  19  24
ATOM     24  O   UNL     1     -39.101  16.607  -0.487  0.00  0.00    -0.384 OA
ATOM     25  H   UNL     1     -40.063  16.730  -0.470  0.00  0.00    +0.210 HD
ENDBRANCH  19  24
BRANCH   6  26
ATOM     26  C   UNL     1     -35.217  24.613   4.469  0.00  0.00    +0.000 C 
ATOM     27  C   UNL     1     -34.653  23.981   5.746  0.00  0.00    +0.000 C 
BRANCH  26  28
ATOM     28  C   UNL     1     -35.582  26.100   4.668  0.00  0.00    +0.003 C 
BRANCH  28  29
ATOM     29  C   UNL     1     -34.917  27.039   3.661  0.00  0.00    +0.035 C 
BRANCH  29  30
ATOM     30  C   UNL     1     -33.410  27.100   3.865  0.00  0.00    +0.177 C 
BRANCH  30  31
ATOM     31  O   UNL     1     -33.092  28.279   4.592  0.00  0.00    -0.200 OA
BRANCH  31  32
ATOM     32  S   UNL     1     -32.107  28.192   5.893  0.00  0.00    +0.239 S 
ATOM     33  O   UNL     1     -30.631  27.954   5.239  0.00  0.00    -0.116 OA
ATOM     34  O   UNL     1     -32.099  29.497   6.525  0.00  0.00    -0.116 OA
ATOM     35  O   UNL     1     -32.448  27.010   6.663  0.00  0.00    -0.022 OA
ENDBRANCH  31  32
ENDBRANCH  30  31
ENDBRANCH  29  30
ENDBRANCH  28  29
ENDBRANCH  26  28
ENDBRANCH   6  26
TORSDOF 9
ENDMDL
MODEL 2
REMARK VINA RESULT:      -6.3      1.971      2.838
REMARK  Name = 5200193
REMARK  9 active torsions:
REMARK  status: ('A' for Active; 'I' for Inactive)
REMARK    1  A    between atoms: C_6  and  C_26
REMARK    2  A    between atoms: C_7  and  O_20
REMARK    3  A    between atoms: C_11  and  O_22
REMARK    4  A    between atoms: C_19  and  O_24
REMARK    5  A    between atoms: C_26  and  C_28
REMARK    6  A    between atoms: C_28  and  C_29
REMARK    7  A    between atoms: C_29  and  C_30
REMARK    8  A    between atoms: C_30  and  O_31
REMARK    9  A    between atoms: O_31  and  S_32
REMARK                            x       y       z     vdW  Elec       q    Type
REMARK                         _______ _______ _______ _____ _____    ______ ____
ROOT
ATOM      1  C   UNL     1     -36.034  22.053   1.687  0.00  0.00    +0.025 C 
ATOM      2  C   UNL     1     -37.078  21.205   0.922  0.00  0.00    +0.005 C 
ATOM      3  C   UNL     1     -36.448  20.250  -0.104  0.00  0.00    +0.027 C 
ATOM      4  C   UNL     1     -35.463  19.287   0.642  0.00  0.00    +0.005 C 
ATOM      5  C   UNL     1     -34.782  18.263  -0.346  0.00  0.00    +0.000 C 
ATOM      6  C   UNL     1     -37.006  22.921   2.530  0.00  0.00    +0.002 C 
ATOM      7  C   UNL     1     -35.110  21.098   2.473  0.00  0.00    +0.110 C 
ATOM      8  C   UNL     1     -34.454  20.063   1.537  0.00  0.00    +0.029 C 
ATOM      9  C   UNL     1     -35.922  17.495  -1.089  0.00  0.00    +0.005 C 
ATOM     10  C   UNL     1     -38.089  22.238   0.422  0.00  0.00    +0.000 C 
ATOM     11  C   UNL     1     -37.503  19.469  -0.918  0.00  0.00    +0.110 C 
ATOM     12  C   UNL     1     -38.117  23.308   1.527  0.00  0.00    +0.000 C 
ATOM     13  C   UNL     1     -36.858  18.443  -1.854  0.00  0.00    +0.029 C 
ATOM     14  C   UNL     1     -33.948  17.212   0.443  0.00  0.00    +0.002 C 
ATOM     15  C   UNL     1     -35.162  22.948   0.765  0.00  0.00    +0.002 C 
ATOM     16  C   UNL     1     -35.395  16.373  -2.001  0.00  0.00    +0.029 C 
ATOM     17  C   UNL     1     -33.836  18.994  -1.333  0.00  0.00    +0.000 C 
ATOM     18  C   UNL     1     -33.426  16.062  -0.429  0.00  0.00    +0.029 C 
ATOM     19  C   UNL     1     -34.532  15.376  -1.228  0.00  0.00    +0.111 C 
ENDROOT
BRANCH   7  20
ATOM     20  O   UNL     1     -35.824  20.376   3.475  0.00  0.00    -0.384 OA
ATOM     21  H   UNL     1     -35.618  20.744   4.349  0.00  0.00    +0.210 HD
ENDBRANCH   7  20
BRANCH  11  22
ATOM     22  O   UNL     1     -38.401  18.768  -0.058  0.00  0.00    -0.384 OA
ATOM     23  H   UNL     1     -39.241  18.620  -0.520  0.00  0.00    +0.210 HD
ENDBRANCH  11  22
BRANCH  19  24
ATOM     24  O   UNL     1     -35.375  14.642  -0.338  0.00  0.00    -0.384 OA
ATOM     25  H   UNL     1     -35.340  15.042   0.544  0.00  0.00    +0.210 HD
ENDBRANCH  19  24
BRANCH   6  26
ATOM     26  C   UNL     1     -36.399  24.124   3.237  0.00  0.00    +0.000 C 
ATOM     27  C   UNL     1     -36.078  23.767   4.693  0.00  0.00    +0.000 C 
BRANCH  26  28
ATOM     28  C   UNL     1     -37.348  25.336   3.133  0.00  0.00    +0.003 C 
BRANCH  28  29
ATOM     29  C   UNL     1     -36.728  26.547   2.433  0.00  0.00    +0.035 C 
BRANCH  29  30
ATOM     30  C   UNL     1     -35.239  26.661   2.730  0.00  0.00    +0.177 C 
BRANCH  30  31
ATOM     31  O   UNL     1     -35.071  27.222   4.025  0.00  0.00    -0.200 OA
BRANCH  31  32
ATOM     32  S   UNL     1     -33.740  26.859   4.901  0.00  0.00    +0.239 S 
ATOM     33  O   UNL     1     -33.069  25.619   4.081  0.00  0.00    -0.116 OA
ATOM     34  O   UNL     1     -32.832  27.987   4.807  0.00  0.00    -0.116 OA
ATOM     35  O   UNL     1     -34.152  26.363   6.201  0.00  0.00    -0.022 OA
ENDBRANCH  31  32
ENDBRANCH  30  31
ENDBRANCH  29  30
ENDBRANCH  28  29
ENDBRANCH  26  28
ENDBRANCH   6  26
TORSDOF 9
ENDMDL
MODEL 3
REMARK VINA RESULT:      -6.3      2.294      2.769
REMARK  Name = 5200193
REMARK  9 active torsions:
REMARK  status: ('A' for Active; 'I' for Inactive)
REMARK    1  A    between atoms: C_6  and  C_26
REMARK    2  A    between atoms: C_7  and  O_20
REMARK    3  A    between atoms: C_11  and  O_22
REMARK    4  A    between atoms: C_19  and  O_24
REMARK    5  A    between atoms: C_26  and  C_28
REMARK    6  A    between atoms: C_28  and  C_29
REMARK    7  A    between atoms: C_29  and  C_30
REMARK    8  A    between atoms: C_30  and  O_31
REMARK    9  A    between atoms: O_31  and  S_32
REMARK                            x       y       z     vdW  Elec       q    Type
REMARK                         _______ _______ _______ _____ _____    ______ ____
ROOT
ATOM      1  C   UNL     1     -36.234  22.727   2.580  0.00  0.00    +0.025 C 
ATOM      2  C   UNL     1     -37.746  22.501   2.342  0.00  0.00    +0.005 C 
ATOM      3  C   UNL     1     -38.055  21.849   0.986  0.00  0.00    +0.027 C 
ATOM      4  C   UNL     1     -37.320  20.468   0.911  0.00  0.00    +0.005 C 
ATOM      5  C   UNL     1     -37.599  19.727  -0.454  0.00  0.00    +0.000 C 
ATOM      6  C   UNL     1     -36.316  23.452   3.950  0.00  0.00    +0.002 C 
ATOM      7  C   UNL     1     -35.528  21.354   2.573  0.00  0.00    +0.110 C 
ATOM      8  C   UNL     1     -35.809  20.591   1.263  0.00  0.00    +0.029 C 
ATOM      9  C   UNL     1     -39.147  19.591  -0.609  0.00  0.00    +0.005 C 
ATOM     10  C   UNL     1     -38.368  23.864   2.648  0.00  0.00    +0.000 C 
ATOM     11  C   UNL     1     -39.570  21.705   0.725  0.00  0.00    +0.110 C 
ATOM     12  C   UNL     1     -37.492  24.440   3.774  0.00  0.00    +0.000 C 
ATOM     13  C   UNL     1     -39.857  20.953  -0.578  0.00  0.00    +0.029 C 
ATOM     14  C   UNL     1     -37.003  18.290  -0.429  0.00  0.00    +0.002 C 
ATOM     15  C   UNL     1     -35.565  23.641   1.518  0.00  0.00    +0.002 C 
ATOM     16  C   UNL     1     -39.558  18.775  -1.846  0.00  0.00    +0.029 C 
ATOM     17  C   UNL     1     -36.963  20.498  -1.639  0.00  0.00    +0.000 C 
ATOM     18  C   UNL     1     -37.411  17.435  -1.636  0.00  0.00    +0.029 C 
ATOM     19  C   UNL     1     -38.924  17.384  -1.841  0.00  0.00    +0.111 C 
ENDROOT
BRANCH   7  20
ATOM     20  O   UNL     1     -35.965  20.527   3.651  0.00  0.00    -0.384 OA
ATOM     21  H   UNL     1     -35.861  21.005   4.488  0.00  0.00    +0.210 HD
ENDBRANCH   7  20
BRANCH  11  22
ATOM     22  O   UNL     1     -40.210  20.995   1.785  0.00  0.00    -0.384 OA
ATOM     23  H   UNL     1     -39.762  20.145   1.922  0.00  0.00    +0.210 HD
ENDBRANCH  11  22
BRANCH  19  24
ATOM     24  O   UNL     1     -39.518  16.619  -0.791  0.00  0.00    -0.384 OA
ATOM     25  H   UNL     1     -38.897  15.933  -0.499  0.00  0.00    +0.210 HD
ENDBRANCH  19  24
BRANCH   6  26
ATOM     26  C   UNL     1     -35.041  24.128   4.435  0.00  0.00    +0.000 C 
ATOM     27  C   UNL     1     -34.552  23.458   5.725  0.00  0.00    +0.000 C 
BRANCH  26  28
ATOM     28  C   UNL     1     -35.280  25.641   4.622  0.00  0.00    +0.003 C 
BRANCH  28  29
ATOM     29  C   UNL     1     -34.234  26.520   3.934  0.00  0.00    +0.035 C 
BRANCH  29  30
ATOM     30  C   UNL     1     -34.885  27.613   3.098  0.00  0.00    +0.177 C 
BRANCH  30  31
ATOM     31  O   UNL     1     -36.115  27.124   2.580  0.00  0.00    -0.200 OA
BRANCH  31  32
ATOM     32  S   UNL     1     -36.739  27.775   1.217  0.00  0.00    +0.239 S 
ATOM     33  O   UNL     1     -38.300  27.302   1.247  0.00  0.00    -0.116 OA
ATOM     34  O   UNL     1     -36.716  29.217   1.370  0.00  0.00    -0.116 OA
ATOM     35  O   UNL     1     -36.108  27.155   0.066  0.00  0.00    -0.022 OA
ENDBRANCH  31  32
ENDBRANCH  30  31
ENDBRANCH  29  30
ENDBRANCH  28  29
ENDBRANCH  26  28
ENDBRANCH   6  26
TORSDOF 9
ENDMDL
MODEL 4
REMARK VINA RESULT:      -6.3      1.305      1.658
REMARK  Name = 5200193
REMARK  9 active torsions:
REMARK  status: ('A' for Active; 'I' for Inactive)
REMARK    1  A    between atoms: C_6  and  C_26
REMARK    2  A    between atoms: C_7  and  O_20
REMARK    3  A    between atoms: C_11  and  O_22
REMARK    4  A    between atoms: C_19  and  O_24
REMARK    5  A    between atoms: C_26  and  C_28
REMARK    6  A    between atoms: C_28  and  C_29
REMARK    7  A    between atoms: C_29  and  C_30
REMARK    8  A    between atoms: C_30  and  O_31
REMARK    9  A    between atoms: O_31  and  S_32
REMARK                            x       y       z     vdW  Elec       q    Type
REMARK                         _______ _______ _______ _____ _____    ______ ____
ROOT
ATOM      1  C   UNL     1     -36.592  22.142   2.027  0.00  0.00    +0.025 C 
ATOM      2  C   UNL     1     -38.109  22.092   1.721  0.00  0.00    +0.005 C 
ATOM      3  C   UNL     1     -38.426  21.563   0.314  0.00  0.00    +0.027 C 
ATOM      4  C   UNL     1     -37.834  20.119   0.174  0.00  0.00    +0.005 C 
ATOM      5  C   UNL     1     -38.131  19.499  -1.246  0.00  0.00    +0.000 C 
ATOM      6  C   UNL     1     -36.657  22.785   3.439  0.00  0.00    +0.002 C 
ATOM      7  C   UNL     1     -36.032  20.705   1.953  0.00  0.00    +0.110 C 
ATOM      8  C   UNL     1     -36.335  20.059   0.586  0.00  0.00    +0.029 C 
ATOM      9  C   UNL     1     -39.677  19.537  -1.464  0.00  0.00    +0.005 C 
ATOM     10  C   UNL     1     -38.599  23.492   2.094  0.00  0.00    +0.000 C 
ATOM     11  C   UNL     1     -39.935  21.595  -0.009  0.00  0.00    +0.110 C 
ATOM     12  C   UNL     1     -37.717  23.900   3.287  0.00  0.00    +0.000 C 
ATOM     13  C   UNL     1     -40.243  20.962  -1.369  0.00  0.00    +0.029 C 
ATOM     14  C   UNL     1     -37.688  18.008  -1.296  0.00  0.00    +0.002 C 
ATOM     15  C   UNL     1     -35.789  23.044   1.052  0.00  0.00    +0.002 C 
ATOM     16  C   UNL     1     -40.117  18.847  -2.768  0.00  0.00    +0.029 C 
ATOM     17  C   UNL     1     -37.369  20.270  -2.355  0.00  0.00    +0.000 C 
ATOM     18  C   UNL     1     -38.130  17.277  -2.571  0.00  0.00    +0.029 C 
ATOM     19  C   UNL     1     -39.631  17.399  -2.832  0.00  0.00    +0.111 C 
ENDROOT
BRANCH   7  20
ATOM     20  O   UNL     1     -36.598  19.863   2.958  0.00  0.00    -0.384 OA
ATOM     21  H   UNL     1     -36.160  20.033   3.807  0.00  0.00    +0.210 HD
ENDBRANCH   7  20
BRANCH  11  22
ATOM     22  O   UNL     1     -40.689  20.893   0.978  0.00  0.00    -0.384 OA
ATOM     23  H   UNL     1     -40.769  19.961   0.721  0.00  0.00    +0.210 HD
ENDBRANCH  11  22
BRANCH  19  24
ATOM     24  O   UNL     1     -40.345  16.638  -1.857  0.00  0.00    -0.384 OA
ATOM     25  H   UNL     1     -41.293  16.659  -2.062  0.00  0.00    +0.210 HD
ENDBRANCH  19  24
BRANCH   6  26
ATOM     26  C   UNL     1     -35.341  23.290   4.012  0.00  0.00    +0.000 C 
ATOM     27  C   UNL     1     -35.073  22.627   5.368  0.00  0.00    +0.000 C 
BRANCH  26  28
ATOM     28  C   UNL     1     -35.362  24.830   4.113  0.00  0.00    +0.003 C 
BRANCH  28  29
ATOM     29  C   UNL     1     -35.459  25.353   5.547  0.00  0.00    +0.035 C 
BRANCH  29  30
ATOM     30  C   UNL     1     -34.162  26.016   5.988  0.00  0.00    +0.177 C 
BRANCH  30  31
ATOM     31  O   UNL     1     -33.322  26.183   4.854  0.00  0.00    -0.200 OA
BRANCH  31  32
ATOM     32  S   UNL     1     -32.706  27.658   4.509  0.00  0.00    +0.239 S 
ATOM     33  O   UNL     1     -33.901  28.385   3.671  0.00  0.00    -0.116 OA
ATOM     34  O   UNL     1     -32.553  28.372   5.762  0.00  0.00    -0.116 OA
ATOM     35  O   UNL     1     -31.571  27.497   3.619  0.00  0.00    -0.022 OA
ENDBRANCH  31  32
ENDBRANCH  30  31
ENDBRANCH  29  30
ENDBRANCH  28  29
ENDBRANCH  26  28
ENDBRANCH   6  26
TORSDOF 9
ENDMDL
MODEL 5
REMARK VINA RESULT:      -6.2      4.336      5.859
REMARK  Name = 5200193
REMARK  9 active torsions:
REMARK  status: ('A' for Active; 'I' for Inactive)
REMARK    1  A    between atoms: C_6  and  C_26
REMARK    2  A    between atoms: C_7  and  O_20
REMARK    3  A    between atoms: C_11  and  O_22
REMARK    4  A    between atoms: C_19  and  O_24
REMARK    5  A    between atoms: C_26  and  C_28
REMARK    6  A    between atoms: C_28  and  C_29
REMARK    7  A    between atoms: C_29  and  C_30
REMARK    8  A    between atoms: C_30  and  O_31
REMARK    9  A    between atoms: O_31  and  S_32
REMARK                            x       y       z     vdW  Elec       q    Type
REMARK                         _______ _______ _______ _____ _____    ______ ____
ROOT
ATOM      1  C   UNL     1     -36.970  22.512   1.546  0.00  0.00    +0.025 C 
ATOM      2  C   UNL     1     -37.361  21.062   1.172  0.00  0.00    +0.005 C 
ATOM      3  C   UNL     1     -36.376  20.401   0.196  0.00  0.00    +0.027 C 
ATOM      4  C   UNL     1     -34.952  20.388   0.849  0.00  0.00    +0.005 C 
ATOM      5  C   UNL     1     -33.881  19.710  -0.091  0.00  0.00    +0.000 C 
ATOM      6  C   UNL     1     -38.192  22.865   2.435  0.00  0.00    +0.002 C 
ATOM      7  C   UNL     1     -35.596  22.481   2.250  0.00  0.00    +0.110 C 
ATOM      8  C   UNL     1     -34.534  21.794   1.367  0.00  0.00    +0.029 C 
ATOM      9  C   UNL     1     -34.396  18.276  -0.436  0.00  0.00    +0.005 C 
ATOM     10  C   UNL     1     -38.826  21.179   0.751  0.00  0.00    +0.000 C 
ATOM     11  C   UNL     1     -36.820  18.986  -0.233  0.00  0.00    +0.110 C 
ATOM     12  C   UNL     1     -39.394  22.289   1.653  0.00  0.00    +0.000 C 
ATOM     13  C   UNL     1     -35.773  18.300  -1.115  0.00  0.00    +0.029 C 
ATOM     14  C   UNL     1     -32.522  19.554   0.650  0.00  0.00    +0.002 C 
ATOM     15  C   UNL     1     -36.887  23.469   0.326  0.00  0.00    +0.002 C 
ATOM     16  C   UNL     1     -33.383  17.455  -1.253  0.00  0.00    +0.029 C 
ATOM     17  C   UNL     1     -33.646  20.564  -1.364  0.00  0.00    +0.000 C 
ATOM     18  C   UNL     1     -31.492  18.719  -0.123  0.00  0.00    +0.029 C 
ATOM     19  C   UNL     1     -32.034  17.353  -0.542  0.00  0.00    +0.111 C 
ENDROOT
BRANCH   7  20
ATOM     20  O   UNL     1     -35.650  21.769   3.485  0.00  0.00    -0.384 OA
ATOM     21  H   UNL     1     -35.162  22.261   4.164  0.00  0.00    +0.210 HD
ENDBRANCH   7  20
BRANCH  11  22
ATOM     22  O   UNL     1     -37.046  18.151   0.902  0.00  0.00    -0.384 OA
ATOM     23  H   UNL     1     -37.972  18.227   1.180  0.00  0.00    +0.210 HD
ENDBRANCH  11  22
BRANCH  19  24
ATOM     24  O   UNL     1     -32.192  16.531   0.615  0.00  0.00    -0.384 OA
ATOM     25  H   UNL     1     -32.151  15.597   0.356  0.00  0.00    +0.210 HD
ENDBRANCH  19  24
BRANCH   6  26
ATOM     26  C   UNL     1     -38.365  24.334   2.793  0.00  0.00    +0.000 C 
ATOM     27  C   UNL     1     -37.463  24.693   3.979  0.00  0.00    +0.000 C 
BRANCH  26  28
ATOM     28  C   UNL     1     -39.851  24.638   3.082  0.00  0.00    +0.003 C 
BRANCH  28  29
ATOM     29  C   UNL     1     -40.207  26.123   2.980  0.00  0.00    +0.035 C 
BRANCH  29  30
ATOM     30  C   UNL     1     -41.570  26.413   3.592  0.00  0.00    +0.177 C 
BRANCH  30  31
ATOM     31  O   UNL     1     -41.566  27.733   4.119  0.00  0.00    -0.200 OA
BRANCH  31  32
ATOM     32  S   UNL     1     -42.955  28.593   4.166  0.00  0.00    +0.239 S 
ATOM     33  O   UNL     1     -42.716  29.638   5.395  0.00  0.00    -0.116 OA
ATOM     34  O   UNL     1     -43.032  29.367   2.942  0.00  0.00    -0.116 OA
ATOM     35  O   UNL     1     -44.045  27.709   4.538  0.00  0.00    -0.022 OA
ENDBRANCH  31  32
ENDBRANCH  30  31
ENDBRANCH  29  30
ENDBRANCH  28  29
ENDBRANCH  26  28
ENDBRANCH   6  26
TORSDOF 9
ENDMDL
MODEL 6
REMARK VINA RESULT:      -6.1      2.671      4.080
REMARK  Name = 5200193
REMARK  9 active torsions:
REMARK  status: ('A' for Active; 'I' for Inactive)
REMARK    1  A    between atoms: C_6  and  C_26
REMARK    2  A    between atoms: C_7  and  O_20
REMARK    3  A    between atoms: C_11  and  O_22
REMARK    4  A    between atoms: C_19  and  O_24
REMARK    5  A    between atoms: C_26  and  C_28
REMARK    6  A    between atoms: C_28  and  C_29
REMARK    7  A    between atoms: C_29  and  C_30
REMARK    8  A    between atoms: C_30  and  O_31
REMARK    9  A    between atoms: O_31  and  S_32
REMARK                            x       y       z     vdW  Elec       q    Type
REMARK                         _______ _______ _______ _____ _____    ______ ____
ROOT
ATOM      1  C   UNL     1     -35.830  22.617   2.207  0.00  0.00    +0.025 C 
ATOM      2  C   UNL     1     -34.877  22.798   1.001  0.00  0.00    +0.005 C 
ATOM      3  C   UNL     1     -33.964  21.585   0.762  0.00  0.00    +0.027 C 
ATOM      4  C   UNL     1     -34.858  20.323   0.515  0.00  0.00    +0.005 C 
ATOM      5  C   UNL     1     -33.991  19.032   0.249  0.00  0.00    +0.000 C 
ATOM      6  C   UNL     1     -36.500  24.016   2.191  0.00  0.00    +0.002 C 
ATOM      7  C   UNL     1     -36.753  21.411   1.924  0.00  0.00    +0.110 C 
ATOM      8  C   UNL     1     -35.932  20.140   1.627  0.00  0.00    +0.029 C 
ATOM      9  C   UNL     1     -33.043  19.340  -0.954  0.00  0.00    +0.005 C 
ATOM     10  C   UNL     1     -34.222  24.156   1.257  0.00  0.00    +0.000 C 
ATOM     11  C   UNL     1     -32.962  21.810  -0.391  0.00  0.00    +0.110 C 
ATOM     12  C   UNL     1     -35.322  24.986   1.942  0.00  0.00    +0.000 C 
ATOM     13  C   UNL     1     -32.140  20.553  -0.687  0.00  0.00    +0.029 C 
ATOM     14  C   UNL     1     -34.898  17.837  -0.165  0.00  0.00    +0.002 C 
ATOM     15  C   UNL     1     -35.093  22.379   3.553  0.00  0.00    +0.002 C 
ATOM     16  C   UNL     1     -32.222  18.118  -1.401  0.00  0.00    +0.029 C 
ATOM     17  C   UNL     1     -33.201  18.626   1.520  0.00  0.00    +0.000 C 
ATOM     18  C   UNL     1     -34.115  16.606  -0.641  0.00  0.00    +0.029 C 
ATOM     19  C   UNL     1     -33.119  16.932  -1.753  0.00  0.00    +0.111 C 
ENDROOT
BRANCH   7  20
ATOM     20  O   UNL     1     -37.599  21.645   0.799  0.00  0.00    -0.384 OA
ATOM     21  H   UNL     1     -38.525  21.515   1.058  0.00  0.00    +0.210 HD
ENDBRANCH   7  20
BRANCH  11  22
ATOM     22  O   UNL     1     -33.636  22.181  -1.593  0.00  0.00    -0.384 OA
ATOM     23  H   UNL     1     -33.283  23.026  -1.914  0.00  0.00    +0.210 HD
ENDBRANCH  11  22
BRANCH  19  24
ATOM     24  O   UNL     1     -33.832  17.243  -2.951  0.00  0.00    -0.384 OA
ATOM     25  H   UNL     1     -33.348  17.920  -3.448  0.00  0.00    +0.210 HD
ENDBRANCH  19  24
BRANCH   6  26
ATOM     26  C   UNL     1     -37.324  24.386   3.416  0.00  0.00    +0.000 C 
ATOM     27  C   UNL     1     -38.788  24.605   3.015  0.00  0.00    +0.000 C 
BRANCH  26  28
ATOM     28  C   UNL     1     -36.720  25.625   4.109  0.00  0.00    +0.003 C 
BRANCH  28  29
ATOM     29  C   UNL     1     -36.171  25.343   5.508  0.00  0.00    +0.035 C 
BRANCH  29  30
ATOM     30  C   UNL     1     -34.757  25.883   5.672  0.00  0.00    +0.177 C 
BRANCH  30  31
ATOM     31  O   UNL     1     -34.549  26.922   4.725  0.00  0.00    -0.200 OA
BRANCH  31  32
ATOM     32  S   UNL     1     -33.040  27.492   4.462  0.00  0.00    +0.239 S 
ATOM     33  O   UNL     1     -32.285  27.246   5.888  0.00  0.00    -0.116 OA
ATOM     34  O   UNL     1     -32.411  26.630   3.480  0.00  0.00    -0.116 OA
ATOM     35  O   UNL     1     -33.110  28.924   4.237  0.00  0.00    -0.022 OA
ENDBRANCH  31  32
ENDBRANCH  30  31
ENDBRANCH  29  30
ENDBRANCH  28  29
ENDBRANCH  26  28
ENDBRANCH   6  26
TORSDOF 9
ENDMDL
MODEL 7
REMARK VINA RESULT:      -6.0      3.987     10.626
REMARK  Name = 5200193
REMARK  9 active torsions:
REMARK  status: ('A' for Active; 'I' for Inactive)
REMARK    1  A    between atoms: C_6  and  C_26
REMARK    2  A    between atoms: C_7  and  O_20
REMARK    3  A    between atoms: C_11  and  O_22
REMARK    4  A    between atoms: C_19  and  O_24
REMARK    5  A    between atoms: C_26  and  C_28
REMARK    6  A    between atoms: C_28  and  C_29
REMARK    7  A    between atoms: C_29  and  C_30
REMARK    8  A    between atoms: C_30  and  O_31
REMARK    9  A    between atoms: O_31  and  S_32
REMARK                            x       y       z     vdW  Elec       q    Type
REMARK                         _______ _______ _______ _____ _____    ______ ____
ROOT
ATOM      1  C   UNL     1     -33.924  27.013   3.877  0.00  0.00    +0.025 C 
ATOM      2  C   UNL     1     -33.257  27.854   4.992  0.00  0.00    +0.005 C 
ATOM      3  C   UNL     1     -32.041  28.656   4.500  0.00  0.00    +0.027 C 
ATOM      4  C   UNL     1     -32.501  29.614   3.350  0.00  0.00    +0.005 C 
ATOM      5  C   UNL     1     -31.307  30.485   2.798  0.00  0.00    +0.000 C 
ATOM      6  C   UNL     1     -35.008  26.305   4.733  0.00  0.00    +0.002 C 
ATOM      7  C   UNL     1     -34.435  27.973   2.780  0.00  0.00    +0.110 C 
ATOM      8  C   UNL     1     -33.294  28.861   2.244  0.00  0.00    +0.029 C 
ATOM      9  C   UNL     1     -30.685  31.254   4.007  0.00  0.00    +0.005 C 
ATOM     10  C   UNL     1     -33.050  26.852   6.128  0.00  0.00    +0.000 C 
ATOM     11  C   UNL     1     -31.335  29.425   5.637  0.00  0.00    +0.110 C 
ATOM     12  C   UNL     1     -34.255  25.901   6.020  0.00  0.00    +0.000 C 
ATOM     13  C   UNL     1     -30.197  30.304   5.112  0.00  0.00    +0.029 C 
ATOM     14  C   UNL     1     -31.824  31.546   1.785  0.00  0.00    +0.002 C 
ATOM     15  C   UNL     1     -32.973  25.971   3.229  0.00  0.00    +0.002 C 
ATOM     16  C   UNL     1     -29.580  32.240   3.589  0.00  0.00    +0.029 C 
ATOM     17  C   UNL     1     -30.261  29.594   2.079  0.00  0.00    +0.000 C 
ATOM     18  C   UNL     1     -30.756  32.564   1.362  0.00  0.00    +0.029 C 
ATOM     19  C   UNL     1     -30.083  33.244   2.552  0.00  0.00    +0.111 C 
ENDROOT
BRANCH   7  20
ATOM     20  O   UNL     1     -35.457  28.840   3.270  0.00  0.00    -0.384 OA
ATOM     21  H   UNL     1     -35.811  29.369   2.537  0.00  0.00    +0.210 HD
ENDBRANCH   7  20
BRANCH  11  22
ATOM     22  O   UNL     1     -32.251  30.270   6.333  0.00  0.00    -0.384 OA
ATOM     23  H   UNL     1     -33.075  29.786   6.498  0.00  0.00    +0.210 HD
ENDBRANCH  11  22
BRANCH  19  24
ATOM     24  O   UNL     1     -31.015  34.122   3.186  0.00  0.00    -0.384 OA
ATOM     25  H   UNL     1     -31.134  33.854   4.111  0.00  0.00    +0.210 HD
ENDBRANCH  19  24
BRANCH   6  26
ATOM     26  C   UNL     1     -35.732  25.138   4.077  0.00  0.00    +0.000 C 
ATOM     27  C   UNL     1     -37.102  25.594   3.563  0.00  0.00    +0.000 C 
BRANCH  26  28
ATOM     28  C   UNL     1     -35.846  23.959   5.067  0.00  0.00    +0.003 C 
BRANCH  28  29
ATOM     29  C   UNL     1     -35.145  22.685   4.593  0.00  0.00    +0.035 C 
BRANCH  29  30
ATOM     30  C   UNL     1     -35.933  21.992   3.490  0.00  0.00    +0.177 C 
BRANCH  30  31
ATOM     31  O   UNL     1     -35.379  20.702   3.270  0.00  0.00    -0.200 OA
BRANCH  31  32
ATOM     32  S   UNL     1     -34.888  20.273   1.772  0.00  0.00    +0.239 S 
ATOM     33  O   UNL     1     -36.214  19.583   1.118  0.00  0.00    -0.116 OA
ATOM     34  O   UNL     1     -34.621  21.492   1.033  0.00  0.00    -0.116 OA
ATOM     35  O   UNL     1     -33.864  19.250   1.886  0.00  0.00    -0.022 OA
ENDBRANCH  31  32
ENDBRANCH  30  31
ENDBRANCH  29  30
ENDBRANCH  28  29
ENDBRANCH  26  28
ENDBRANCH   6  26
TORSDOF 9
ENDMDL
MODEL 8
REMARK VINA RESULT:      -5.9      5.239      7.621
REMARK  Name = 5200193
REMARK  9 active torsions:
REMARK  status: ('A' for Active; 'I' for Inactive)
REMARK    1  A    between atoms: C_6  and  C_26
REMARK    2  A    between atoms: C_7  and  O_20
REMARK    3  A    between atoms: C_11  and  O_22
REMARK    4  A    between atoms: C_19  and  O_24
REMARK    5  A    between atoms: C_26  and  C_28
REMARK    6  A    between atoms: C_28  and  C_29
REMARK    7  A    between atoms: C_29  and  C_30
REMARK    8  A    between atoms: C_30  and  O_31
REMARK    9  A    between atoms: O_31  and  S_32
REMARK                            x       y       z     vdW  Elec       q    Type
REMARK                         _______ _______ _______ _____ _____    ______ ____
ROOT
ATOM      1  C   UNL     1     -40.175  25.476   1.655  0.00  0.00    +0.025 C 
ATOM      2  C   UNL     1     -40.075  23.935   1.555  0.00  0.00    +0.005 C 
ATOM      3  C   UNL     1     -38.640  23.409   1.713  0.00  0.00    +0.027 C 
ATOM      4  C   UNL     1     -38.088  23.863   3.107  0.00  0.00    +0.005 C 
ATOM      5  C   UNL     1     -36.616  23.348   3.350  0.00  0.00    +0.000 C 
ATOM      6  C   UNL     1     -41.693  25.634   1.370  0.00  0.00    +0.002 C 
ATOM      7  C   UNL     1     -39.692  25.907   3.057  0.00  0.00    +0.110 C 
ATOM      8  C   UNL     1     -38.267  25.391   3.337  0.00  0.00    +0.029 C 
ATOM      9  C   UNL     1     -36.625  21.795   3.186  0.00  0.00    +0.005 C 
ATOM     10  C   UNL     1     -40.828  23.605   0.266  0.00  0.00    +0.000 C 
ATOM     11  C   UNL     1     -38.542  21.879   1.530  0.00  0.00    +0.110 C 
ATOM     12  C   UNL     1     -41.951  24.655   0.202  0.00  0.00    +0.000 C 
ATOM     13  C   UNL     1     -37.127  21.360   1.801  0.00  0.00    +0.029 C 
ATOM     14  C   UNL     1     -36.160  23.662   4.805  0.00  0.00    +0.002 C 
ATOM     15  C   UNL     1     -39.338  26.225   0.584  0.00  0.00    +0.002 C 
ATOM     16  C   UNL     1     -35.269  21.148   3.518  0.00  0.00    +0.029 C 
ATOM     17  C   UNL     1     -35.625  24.030   2.372  0.00  0.00    +0.000 C 
ATOM     18  C   UNL     1     -34.822  23.012   5.183  0.00  0.00    +0.029 C 
ATOM     19  C   UNL     1     -34.803  21.506   4.929  0.00  0.00    +0.111 C 
ENDROOT
BRANCH   7  20
ATOM     20  O   UNL     1     -40.540  25.401   4.088  0.00  0.00    -0.384 OA
ATOM     21  H   UNL     1     -39.999  25.118   4.842  0.00  0.00    +0.210 HD
ENDBRANCH   7  20
BRANCH  11  22
ATOM     22  O   UNL     1     -39.431  21.197   2.413  0.00  0.00    -0.384 OA
ATOM     23  H   UNL     1     -40.021  21.839   2.838  0.00  0.00    +0.210 HD
ENDBRANCH  11  22
BRANCH  19  24
ATOM     24  O   UNL     1     -35.661  20.856   5.868  0.00  0.00    -0.384 OA
ATOM     25  H   UNL     1     -36.146  21.524   6.378  0.00  0.00    +0.210 HD
ENDBRANCH  19  24
BRANCH   6  26
ATOM     26  C   UNL     1     -42.184  27.045   1.083  0.00  0.00    +0.000 C 
ATOM     27  C   UNL     1     -43.044  27.547   2.248  0.00  0.00    +0.000 C 
BRANCH  26  28
ATOM     28  C   UNL     1     -42.947  27.079  -0.258  0.00  0.00    +0.003 C 
BRANCH  28  29
ATOM     29  C   UNL     1     -42.320  28.006  -1.301  0.00  0.00    +0.035 C 
BRANCH  29  30
ATOM     30  C   UNL     1     -43.177  29.243  -1.536  0.00  0.00    +0.177 C 
BRANCH  30  31
ATOM     31  O   UNL     1     -42.402  30.400  -1.252  0.00  0.00    -0.200 OA
BRANCH  31  32
ATOM     32  S   UNL     1     -42.517  31.115   0.213  0.00  0.00    +0.239 S 
ATOM     33  O   UNL     1     -41.261  30.488   1.044  0.00  0.00    -0.116 OA
ATOM     34  O   UNL     1     -42.258  32.531   0.031  0.00  0.00    -0.116 OA
ATOM     35  O   UNL     1     -43.742  30.676   0.857  0.00  0.00    -0.022 OA
ENDBRANCH  31  32
ENDBRANCH  30  31
ENDBRANCH  29  30
ENDBRANCH  28  29
ENDBRANCH  26  28
ENDBRANCH   6  26
TORSDOF 9
ENDMDL
MODEL 9
REMARK VINA RESULT:      -5.9      5.690      7.275
REMARK  Name = 5200193
REMARK  9 active torsions:
REMARK  status: ('A' for Active; 'I' for Inactive)
REMARK    1  A    between atoms: C_6  and  C_26
REMARK    2  A    between atoms: C_7  and  O_20
REMARK    3  A    between atoms: C_11  and  O_22
REMARK    4  A    between atoms: C_19  and  O_24
REMARK    5  A    between atoms: C_26  and  C_28
REMARK    6  A    between atoms: C_28  and  C_29
REMARK    7  A    between atoms: C_29  and  C_30
REMARK    8  A    between atoms: C_30  and  O_31
REMARK    9  A    between atoms: O_31  and  S_32
REMARK                            x       y       z     vdW  Elec       q    Type
REMARK                         _______ _______ _______ _____ _____    ______ ____
ROOT
ATOM      1  C   UNL     1     -40.738  25.838   1.902  0.00  0.00    +0.025 C 
ATOM      2  C   UNL     1     -41.038  24.441   1.306  0.00  0.00    +0.005 C 
ATOM      3  C   UNL     1     -39.792  23.744   0.740  0.00  0.00    +0.027 C 
ATOM      4  C   UNL     1     -38.737  23.588   1.888  0.00  0.00    +0.005 C 
ATOM      5  C   UNL     1     -37.427  22.865   1.387  0.00  0.00    +0.000 C 
ATOM      6  C   UNL     1     -42.187  26.252   2.275  0.00  0.00    +0.002 C 
ATOM      7  C   UNL     1     -39.751  25.666   3.077  0.00  0.00    +0.110 C 
ATOM      8  C   UNL     1     -38.472  24.932   2.625  0.00  0.00    +0.029 C 
ATOM      9  C   UNL     1     -37.850  21.494   0.772  0.00  0.00    +0.005 C 
ATOM     10  C   UNL     1     -42.215  24.695   0.363  0.00  0.00    +0.000 C 
ATOM     11  C   UNL     1     -40.116  22.388   0.075  0.00  0.00    +0.110 C 
ATOM     12  C   UNL     1     -43.023  25.808   1.053  0.00  0.00    +0.000 C 
ATOM     13  C   UNL     1     -38.851  21.658  -0.382  0.00  0.00    +0.029 C 
ATOM     14  C   UNL     1     -36.474  22.568   2.582  0.00  0.00    +0.002 C 
ATOM     15  C   UNL     1     -40.132  26.835   0.879  0.00  0.00    +0.002 C 
ATOM     16  C   UNL     1     -36.650  20.628   0.351  0.00  0.00    +0.029 C 
ATOM     17  C   UNL     1     -36.666  23.749   0.366  0.00  0.00    +0.000 C 
ATOM     18  C   UNL     1     -35.276  21.685   2.207  0.00  0.00    +0.029 C 
ATOM     19  C   UNL     1     -35.691  20.387   1.518  0.00  0.00    +0.111 C 
ENDROOT
BRANCH   7  20
ATOM     20  O   UNL     1     -40.322  24.909   4.143  0.00  0.00    -0.384 OA
ATOM     21  H   UNL     1     -40.849  24.181   3.777  0.00  0.00    +0.210 HD
ENDBRANCH   7  20
BRANCH  11  22
ATOM     22  O   UNL     1     -40.814  21.528   0.975  0.00  0.00    -0.384 OA
ATOM     23  H   UNL     1     -41.238  20.813   0.474  0.00  0.00    +0.210 HD
ENDBRANCH  11  22
BRANCH  19  24
ATOM     24  O   UNL     1     -36.335  19.532   2.464  0.00  0.00    -0.384 OA
ATOM     25  H   UNL     1     -35.931  18.651   2.430  0.00  0.00    +0.210 HD
ENDBRANCH  19  24
BRANCH   6  26
ATOM     26  C   UNL     1     -42.400  27.713   2.642  0.00  0.00    +0.000 C 
ATOM     27  C   UNL     1     -42.190  27.911   4.147  0.00  0.00    +0.000 C 
BRANCH  26  28
ATOM     28  C   UNL     1     -43.799  28.177   2.184  0.00  0.00    +0.003 C 
BRANCH  28  29
ATOM     29  C   UNL     1     -44.778  28.412   3.336  0.00  0.00    +0.035 C 
BRANCH  29  30
ATOM     30  C   UNL     1     -45.226  29.865   3.401  0.00  0.00    +0.177 C 
BRANCH  30  31
ATOM     31  O   UNL     1     -44.150  30.657   3.885  0.00  0.00    -0.200 OA
BRANCH  31  32
ATOM     32  S   UNL     1     -44.160  31.181   5.433  0.00  0.00    +0.239 S 
ATOM     33  O   UNL     1     -43.776  32.762   5.304  0.00  0.00    -0.116 OA
ATOM     34  O   UNL     1     -45.526  31.102   5.914  0.00  0.00    -0.116 OA
ATOM     35  O   UNL     1     -43.091  30.522   6.161  0.00  0.00    -0.022 OA
ENDBRANCH  31  32
ENDBRANCH  30  31
ENDBRANCH  29  30
ENDBRANCH  28  29
ENDBRANCH  26  28
ENDBRANCH   6  26
TORSDOF 9
ENDMDL
