MODEL 1
REMARK VINA RESULT:      -5.9      0.000      0.000
REMARK  Name = 52940199
REMARK  6 active torsions:
REMARK  status: ('A' for Active; 'I' for Inactive)
REMARK    1  A    between atoms: N_1  and  C1*_11
REMARK    2  A    between atoms: C_7  and  C_26
REMARK    3  A    between atoms: C2*_12  and  O2*_15
REMARK    4  A    between atoms: C3*_13  and  O3*_17
REMARK    5  A    between atoms: C4*_14  and  C5*_19
REMARK    6  A    between atoms: C5*_19  and  O5*_20
REMARK                            x       y       z     vdW  Elec       q    Type
REMARK                         _______ _______ _______ _____ _____    ______ ____
ROOT
ATOM      1  N   UNL     1     -36.079  23.059   1.691  0.00  0.00    -0.249 N 
ATOM      2  N   UNL     1     -35.642  22.309   3.940  0.00  0.00    -0.233 NA
ATOM      3  N   UNL     1     -35.996  24.048   5.608  0.00  0.00    -0.234 NA
ATOM      4  C   UNL     1     -36.004  23.245   3.045  0.00  0.00    +0.122 C 
ATOM      5  C   UNL     1     -36.481  24.226   1.091  0.00  0.00    +0.075 C 
ATOM      6  C   UNL     1     -36.366  24.558   3.319  0.00  0.00    +0.141 C 
ATOM      7  C   UNL     1     -36.665  25.172   2.076  0.00  0.00    +0.075 C 
ATOM      8  C   UNL     1     -36.351  24.944   4.658  0.00  0.00    +0.111 C 
ATOM      9  C   UNL     1     -35.668  22.802   5.194  0.00  0.00    +0.252 C 
ATOM     10  N   UNL     1     -36.699  26.252   5.043  0.00  0.00    -0.346 N 
ATOM     11  H   UNL     1     -36.684  26.507   5.994  0.00  0.00    +0.143 HD
ATOM     12  H   UNL     1     -36.961  26.913   4.361  0.00  0.00    +0.143 HD
ENDROOT
BRANCH   1  14
ATOM     13  O4* UNL     1     -34.639  21.070   1.523  0.00  0.00    -0.333 OA
ATOM     14  C1* UNL     1     -35.768  21.777   0.959  0.00  0.00    +0.227 C 
ATOM     15  C2* UNL     1     -36.916  20.767   0.915  0.00  0.00    +0.187 C 
ATOM     16  C3* UNL     1     -36.148  19.495   0.612  0.00  0.00    +0.171 C 
ATOM     17  C4* UNL     1     -34.925  19.660   1.504  0.00  0.00    +0.175 C 
BRANCH  15  18
ATOM     18  O2* UNL     1     -37.537  20.666   2.195  0.00  0.00    -0.378 OA
ATOM     19  H2* UNL     1     -37.350  19.795   2.577  0.00  0.00    +0.211 HD
ENDBRANCH  15  18
BRANCH  16  20
ATOM     20  O3* UNL     1     -36.870  18.320   0.915  0.00  0.00    -0.379 OA
ATOM     21  H3* UNL     1     -36.532  17.938   1.741  0.00  0.00    +0.211 HD
ENDBRANCH  16  20
BRANCH  17  22
ATOM     22  C5* UNL     1     -33.710  18.899   1.002  0.00  0.00    +0.169 C 
BRANCH  22  23
ATOM     23  O5* UNL     1     -34.081  17.550   0.768  0.00  0.00    -0.379 OA
ATOM     24  H5* UNL     1     -33.300  16.982   0.853  0.00  0.00    +0.211 HD
ENDBRANCH  22  23
ENDBRANCH  17  22
ENDBRANCH   1  14
BRANCH   7  26
ATOM     25  N   UNL     1     -37.424  27.603   1.628  0.00  0.00    -0.191 NA
ATOM     26  C   UNL     1     -37.083  26.512   1.829  0.00  0.00    +0.098 C 
ENDBRANCH   7  26
TORSDOF 6
ENDMDL
MODEL 2
REMARK VINA RESULT:      -5.7      4.546      7.351
REMARK  Name = 52940199
REMARK  6 active torsions:
REMARK  status: ('A' for Active; 'I' for Inactive)
REMARK    1  A    between atoms: N_1  and  C1*_11
REMARK    2  A    between atoms: C_7  and  C_26
REMARK    3  A    between atoms: C2*_12  and  O2*_15
REMARK    4  A    between atoms: C3*_13  and  O3*_17
REMARK    5  A    between atoms: C4*_14  and  C5*_19
REMARK    6  A    between atoms: C5*_19  and  O5*_20
REMARK                            x       y       z     vdW  Elec       q    Type
REMARK                         _______ _______ _______ _____ _____    ______ ____
ROOT
ATOM      1  N   UNL     1     -34.761  25.705   4.477  0.00  0.00    -0.249 N 
ATOM      2  N   UNL     1     -36.358  26.263   2.761  0.00  0.00    -0.233 NA
ATOM      3  N   UNL     1     -37.773  24.384   2.131  0.00  0.00    -0.234 NA
ATOM      4  C   UNL     1     -35.787  25.404   3.622  0.00  0.00    +0.122 C 
ATOM      5  C   UNL     1     -34.432  24.591   5.206  0.00  0.00    +0.075 C 
ATOM      6  C   UNL     1     -36.122  24.069   3.807  0.00  0.00    +0.141 C 
ATOM      7  C   UNL     1     -35.258  23.561   4.811  0.00  0.00    +0.075 C 
ATOM      8  C   UNL     1     -37.157  23.569   3.018  0.00  0.00    +0.111 C 
ATOM      9  C   UNL     1     -37.341  25.664   2.059  0.00  0.00    +0.252 C 
ATOM     10  N   UNL     1     -37.574  22.230   3.127  0.00  0.00    -0.346 N 
ATOM     11  H   UNL     1     -38.307  21.894   2.562  0.00  0.00    +0.143 HD
ATOM     12  H   UNL     1     -37.133  21.628   3.770  0.00  0.00    +0.143 HD
ENDROOT
BRANCH   1  14
ATOM     13  O4* UNL     1     -33.333  27.182   5.833  0.00  0.00    -0.333 OA
ATOM     14  C1* UNL     1     -34.086  27.048   4.605  0.00  0.00    +0.227 C 
ATOM     15  C2* UNL     1     -33.110  27.388   3.476  0.00  0.00    +0.187 C 
ATOM     16  C3* UNL     1     -32.280  28.463   4.148  0.00  0.00    +0.171 C 
ATOM     17  C4* UNL     1     -32.110  27.886   5.547  0.00  0.00    +0.175 C 
BRANCH  15  18
ATOM     18  O2* UNL     1     -32.292  26.261   3.173  0.00  0.00    -0.378 OA
ATOM     19  H2* UNL     1     -31.404  26.563   2.926  0.00  0.00    +0.211 HD
ENDBRANCH  15  18
BRANCH  16  20
ATOM     20  O3* UNL     1     -31.038  28.689   3.515  0.00  0.00    -0.379 OA
ATOM     21  H3* UNL     1     -31.178  28.799   2.561  0.00  0.00    +0.211 HD
ENDBRANCH  16  20
BRANCH  17  22
ATOM     22  C5* UNL     1     -31.870  28.945   6.608  0.00  0.00    +0.169 C 
BRANCH  22  23
ATOM     23  O5* UNL     1     -32.219  30.212   6.077  0.00  0.00    -0.379 OA
ATOM     24  H5* UNL     1     -31.421  30.658   5.754  0.00  0.00    +0.211 HD
ENDBRANCH  22  23
ENDBRANCH  17  22
ENDBRANCH   1  14
BRANCH   7  26
ATOM     25  N   UNL     1     -35.168  21.171   5.792  0.00  0.00    -0.191 NA
ATOM     26  C   UNL     1     -35.208  22.244   5.351  0.00  0.00    +0.098 C 
ENDBRANCH   7  26
TORSDOF 6
ENDMDL
MODEL 3
REMARK VINA RESULT:      -5.7      5.017      6.297
REMARK  Name = 52940199
REMARK  6 active torsions:
REMARK  status: ('A' for Active; 'I' for Inactive)
REMARK    1  A    between atoms: N_1  and  C1*_11
REMARK    2  A    between atoms: C_7  and  C_26
REMARK    3  A    between atoms: C2*_12  and  O2*_15
REMARK    4  A    between atoms: C3*_13  and  O3*_17
REMARK    5  A    between atoms: C4*_14  and  C5*_19
REMARK    6  A    between atoms: C5*_19  and  O5*_20
REMARK                            x       y       z     vdW  Elec       q    Type
REMARK                         _______ _______ _______ _____ _____    ______ ____
ROOT
ATOM      1  N   UNL     1     -33.159  26.897   3.582  0.00  0.00    -0.249 N 
ATOM      2  N   UNL     1     -32.900  27.118   5.968  0.00  0.00    -0.233 NA
ATOM      3  N   UNL     1     -31.458  28.976   6.600  0.00  0.00    -0.234 NA
ATOM      4  C   UNL     1     -32.656  27.501   4.703  0.00  0.00    +0.122 C 
ATOM      5  C   UNL     1     -32.702  27.552   2.466  0.00  0.00    +0.075 C 
ATOM      6  C   UNL     1     -31.860  28.564   4.297  0.00  0.00    +0.141 C 
ATOM      7  C   UNL     1     -31.894  28.589   2.879  0.00  0.00    +0.075 C 
ATOM      8  C   UNL     1     -31.252  29.310   5.305  0.00  0.00    +0.111 C 
ATOM      9  C   UNL     1     -32.259  27.914   6.847  0.00  0.00    +0.252 C 
ATOM     10  N   UNL     1     -30.425  30.408   5.001  0.00  0.00    -0.346 N 
ATOM     11  H   UNL     1     -30.005  30.924   5.727  0.00  0.00    +0.143 HD
ATOM     12  H   UNL     1     -30.269  30.661   4.063  0.00  0.00    +0.143 HD
ENDROOT
BRANCH   1  14
ATOM     13  O4* UNL     1     -33.809  24.775   4.645  0.00  0.00    -0.333 OA
ATOM     14  C1* UNL     1     -34.073  25.696   3.562  0.00  0.00    +0.227 C 
ATOM     15  C2* UNL     1     -35.565  26.023   3.643  0.00  0.00    +0.187 C 
ATOM     16  C3* UNL     1     -36.111  24.689   4.113  0.00  0.00    +0.171 C 
ATOM     17  C4* UNL     1     -35.066  24.279   5.142  0.00  0.00    +0.175 C 
BRANCH  15  18
ATOM     18  O2* UNL     1     -35.802  27.020   4.635  0.00  0.00    -0.378 OA
ATOM     19  H2* UNL     1     -36.746  27.239   4.655  0.00  0.00    +0.211 HD
ENDBRANCH  15  18
BRANCH  16  20
ATOM     20  O3* UNL     1     -37.402  24.779   4.677  0.00  0.00    -0.379 OA
ATOM     21  H3* UNL     1     -37.486  24.132   5.396  0.00  0.00    +0.211 HD
ENDBRANCH  16  20
BRANCH  17  22
ATOM     22  C5* UNL     1     -34.979  22.777   5.343  0.00  0.00    +0.169 C 
BRANCH  22  23
ATOM     23  O5* UNL     1     -36.134  22.341   6.041  0.00  0.00    -0.379 OA
ATOM     24  H5* UNL     1     -35.871  21.943   6.884  0.00  0.00    +0.211 HD
ENDBRANCH  22  23
ENDBRANCH  17  22
ENDBRANCH   1  14
BRANCH   7  26
ATOM     25  N   UNL     1     -30.702  30.228   1.273  0.00  0.00    -0.191 NA
ATOM     26  C   UNL     1     -31.238  29.492   1.994  0.00  0.00    +0.098 C 
ENDBRANCH   7  26
TORSDOF 6
ENDMDL
MODEL 4
REMARK VINA RESULT:      -5.6      1.193      1.970
REMARK  Name = 52940199
REMARK  6 active torsions:
REMARK  status: ('A' for Active; 'I' for Inactive)
REMARK    1  A    between atoms: N_1  and  C1*_11
REMARK    2  A    between atoms: C_7  and  C_26
REMARK    3  A    between atoms: C2*_12  and  O2*_15
REMARK    4  A    between atoms: C3*_13  and  O3*_17
REMARK    5  A    between atoms: C4*_14  and  C5*_19
REMARK    6  A    between atoms: C5*_19  and  O5*_20
REMARK                            x       y       z     vdW  Elec       q    Type
REMARK                         _______ _______ _______ _____ _____    ______ ____
ROOT
ATOM      1  N   UNL     1     -36.851  22.347   2.646  0.00  0.00    -0.249 N 
ATOM      2  N   UNL     1     -35.518  22.219   4.650  0.00  0.00    -0.233 NA
ATOM      3  N   UNL     1     -35.461  24.313   5.891  0.00  0.00    -0.234 NA
ATOM      4  C   UNL     1     -36.307  22.878   3.785  0.00  0.00    +0.122 C 
ATOM      5  C   UNL     1     -37.599  23.304   2.009  0.00  0.00    +0.075 C 
ATOM      6  C   UNL     1     -36.716  24.202   3.878  0.00  0.00    +0.141 C 
ATOM      7  C   UNL     1     -37.533  24.464   2.749  0.00  0.00    +0.075 C 
ATOM      8  C   UNL     1     -36.259  24.921   4.983  0.00  0.00    +0.111 C 
ATOM      9  C   UNL     1     -35.144  23.017   5.671  0.00  0.00    +0.252 C 
ATOM     10  N   UNL     1     -36.614  26.269   5.172  0.00  0.00    -0.346 N 
ATOM     11  H   UNL     1     -36.284  26.761   5.958  0.00  0.00    +0.143 HD
ATOM     12  H   UNL     1     -37.196  26.721   4.518  0.00  0.00    +0.143 HD
ENDROOT
BRANCH   1  14
ATOM     13  O4* UNL     1     -37.546  20.597   1.062  0.00  0.00    -0.333 OA
ATOM     14  C1* UNL     1     -36.662  20.933   2.156  0.00  0.00    +0.227 C 
ATOM     15  C2* UNL     1     -35.249  20.605   1.670  0.00  0.00    +0.187 C 
ATOM     16  C3* UNL     1     -35.531  19.384   0.816  0.00  0.00    +0.171 C 
ATOM     17  C4* UNL     1     -36.817  19.797   0.112  0.00  0.00    +0.175 C 
BRANCH  15  18
ATOM     18  O2* UNL     1     -34.747  21.662   0.855  0.00  0.00    -0.378 OA
ATOM     19  H2* UNL     1     -33.793  21.755   0.998  0.00  0.00    +0.211 HD
ENDBRANCH  15  18
BRANCH  16  20
ATOM     20  O3* UNL     1     -34.498  19.091  -0.100  0.00  0.00    -0.379 OA
ATOM     21  H3* UNL     1     -34.826  18.468  -0.768  0.00  0.00    +0.211 HD
ENDBRANCH  16  20
BRANCH  17  22
ATOM     22  C5* UNL     1     -37.668  18.618  -0.323  0.00  0.00    +0.169 C 
BRANCH  22  23
ATOM     23  O5* UNL     1     -37.269  17.471   0.409  0.00  0.00    -0.379 OA
ATOM     24  H5* UNL     1     -38.028  17.121   0.900  0.00  0.00    +0.211 HD
ENDBRANCH  22  23
ENDBRANCH  17  22
ENDBRANCH   1  14
BRANCH   7  26
ATOM     25  N   UNL     1     -38.724  26.667   2.106  0.00  0.00    -0.191 NA
ATOM     26  C   UNL     1     -38.189  25.678   2.394  0.00  0.00    +0.098 C 
ENDBRANCH   7  26
TORSDOF 6
ENDMDL
MODEL 5
REMARK VINA RESULT:      -5.6      1.740      2.466
REMARK  Name = 52940199
REMARK  6 active torsions:
REMARK  status: ('A' for Active; 'I' for Inactive)
REMARK    1  A    between atoms: N_1  and  C1*_11
REMARK    2  A    between atoms: C_7  and  C_26
REMARK    3  A    between atoms: C2*_12  and  O2*_15
REMARK    4  A    between atoms: C3*_13  and  O3*_17
REMARK    5  A    between atoms: C4*_14  and  C5*_19
REMARK    6  A    between atoms: C5*_19  and  O5*_20
REMARK                            x       y       z     vdW  Elec       q    Type
REMARK                         _______ _______ _______ _____ _____    ______ ____
ROOT
ATOM      1  N   UNL     1     -36.256  22.465   1.729  0.00  0.00    -0.249 N 
ATOM      2  N   UNL     1     -38.573  23.073   2.003  0.00  0.00    -0.233 NA
ATOM      3  N   UNL     1     -38.899  24.875   3.609  0.00  0.00    -0.234 NA
ATOM      4  C   UNL     1     -37.265  23.206   2.284  0.00  0.00    +0.122 C 
ATOM      5  C   UNL     1     -35.053  22.872   2.246  0.00  0.00    +0.075 C 
ATOM      6  C   UNL     1     -36.695  24.107   3.174  0.00  0.00    +0.141 C 
ATOM      7  C   UNL     1     -35.294  23.888   3.145  0.00  0.00    +0.075 C 
ATOM      8  C   UNL     1     -37.570  24.959   3.847  0.00  0.00    +0.111 C 
ATOM      9  C   UNL     1     -39.312  23.949   2.713  0.00  0.00    +0.252 C 
ATOM     10  N   UNL     1     -37.096  25.908   4.771  0.00  0.00    -0.346 N 
ATOM     11  H   UNL     1     -37.728  26.502   5.236  0.00  0.00    +0.143 HD
ATOM     12  H   UNL     1     -36.130  25.979   4.952  0.00  0.00    +0.143 HD
ENDROOT
BRANCH   1  14
ATOM     13  O4* UNL     1     -35.169  20.867   0.206  0.00  0.00    -0.333 OA
ATOM     14  C1* UNL     1     -36.429  21.366   0.709  0.00  0.00    +0.227 C 
ATOM     15  C2* UNL     1     -37.196  20.141   1.209  0.00  0.00    +0.187 C 
ATOM     16  C3* UNL     1     -36.746  19.106   0.196  0.00  0.00    +0.171 C 
ATOM     17  C4* UNL     1     -35.266  19.438   0.061  0.00  0.00    +0.175 C 
BRANCH  15  18
ATOM     18  O2* UNL     1     -36.749  19.772   2.511  0.00  0.00    -0.378 OA
ATOM     19  H2* UNL     1     -37.310  20.195   3.178  0.00  0.00    +0.211 HD
ENDBRANCH  15  18
BRANCH  16  20
ATOM     20  O3* UNL     1     -36.953  17.777   0.624  0.00  0.00    -0.379 OA
ATOM     21  H3* UNL     1     -36.565  17.165  -0.022  0.00  0.00    +0.211 HD
ENDBRANCH  16  20
BRANCH  17  22
ATOM     22  C5* UNL     1     -34.676  19.018  -1.273  0.00  0.00    +0.169 C 
BRANCH  22  23
ATOM     23  O5* UNL     1     -34.841  17.617  -1.425  0.00  0.00    -0.379 OA
ATOM     24  H5* UNL     1     -34.986  17.213  -0.556  0.00  0.00    +0.211 HD
ENDBRANCH  22  23
ENDBRANCH  17  22
ENDBRANCH   1  14
BRANCH   7  26
ATOM     25  N   UNL     1     -33.450  25.109   4.484  0.00  0.00    -0.191 NA
ATOM     26  C   UNL     1     -34.278  24.560   3.883  0.00  0.00    +0.098 C 
ENDBRANCH   7  26
TORSDOF 6
ENDMDL
MODEL 6
REMARK VINA RESULT:      -5.6      2.116      3.795
REMARK  Name = 52940199
REMARK  6 active torsions:
REMARK  status: ('A' for Active; 'I' for Inactive)
REMARK    1  A    between atoms: N_1  and  C1*_11
REMARK    2  A    between atoms: C_7  and  C_26
REMARK    3  A    between atoms: C2*_12  and  O2*_15
REMARK    4  A    between atoms: C3*_13  and  O3*_17
REMARK    5  A    between atoms: C4*_14  and  C5*_19
REMARK    6  A    between atoms: C5*_19  and  O5*_20
REMARK                            x       y       z     vdW  Elec       q    Type
REMARK                         _______ _______ _______ _____ _____    ______ ____
ROOT
ATOM      1  N   UNL     1     -35.604  24.846   2.407  0.00  0.00    -0.249 N 
ATOM      2  N   UNL     1     -36.813  26.391   1.006  0.00  0.00    -0.233 NA
ATOM      3  N   UNL     1     -36.387  28.721   1.571  0.00  0.00    -0.234 NA
ATOM      4  C   UNL     1     -35.965  26.105   2.009  0.00  0.00    +0.122 C 
ATOM      5  C   UNL     1     -34.725  24.933   3.456  0.00  0.00    +0.075 C 
ATOM      6  C   UNL     1     -35.303  27.018   2.820  0.00  0.00    +0.141 C 
ATOM      7  C   UNL     1     -34.521  26.267   3.735  0.00  0.00    +0.075 C 
ATOM      8  C   UNL     1     -35.543  28.368   2.569  0.00  0.00    +0.111 C 
ATOM      9  C   UNL     1     -36.962  27.723   0.861  0.00  0.00    +0.252 C 
ATOM     10  N   UNL     1     -34.923  29.373   3.333  0.00  0.00    -0.346 N 
ATOM     11  H   UNL     1     -35.104  30.321   3.141  0.00  0.00    +0.143 HD
ATOM     12  H   UNL     1     -34.306  29.128   4.061  0.00  0.00    +0.143 HD
ENDROOT
BRANCH   1  14
ATOM     13  O4* UNL     1     -35.315  22.410   2.212  0.00  0.00    -0.333 OA
ATOM     14  C1* UNL     1     -36.093  23.556   1.797  0.00  0.00    +0.227 C 
ATOM     15  C2* UNL     1     -37.550  23.208   2.110  0.00  0.00    +0.187 C 
ATOM     16  C3* UNL     1     -37.542  21.719   1.825  0.00  0.00    +0.171 C 
ATOM     17  C4* UNL     1     -36.208  21.302   2.429  0.00  0.00    +0.175 C 
BRANCH  15  18
ATOM     18  O2* UNL     1     -37.829  23.437   3.489  0.00  0.00    -0.378 OA
ATOM     19  H2* UNL     1     -37.250  24.138   3.825  0.00  0.00    +0.211 HD
ENDBRANCH  15  18
BRANCH  16  20
ATOM     20  O3* UNL     1     -38.626  21.031   2.412  0.00  0.00    -0.379 OA
ATOM     21  H3* UNL     1     -38.524  20.078   2.260  0.00  0.00    +0.211 HD
ENDBRANCH  16  20
BRANCH  17  22
ATOM     22  C5* UNL     1     -35.629  20.048   1.798  0.00  0.00    +0.169 C 
BRANCH  22  23
ATOM     23  O5* UNL     1     -36.693  19.167   1.473  0.00  0.00    -0.379 OA
ATOM     24  H5* UNL     1     -36.338  18.385   1.024  0.00  0.00    +0.211 HD
ENDBRANCH  22  23
ENDBRANCH  17  22
ENDBRANCH   1  14
BRANCH   7  26
ATOM     25  N   UNL     1     -32.967  27.136   5.610  0.00  0.00    -0.191 NA
ATOM     26  C   UNL     1     -33.665  26.746   4.768  0.00  0.00    +0.098 C 
ENDBRANCH   7  26
TORSDOF 6
ENDMDL
MODEL 7
REMARK VINA RESULT:      -5.5      3.601      6.363
REMARK  Name = 52940199
REMARK  6 active torsions:
REMARK  status: ('A' for Active; 'I' for Inactive)
REMARK    1  A    between atoms: N_1  and  C1*_11
REMARK    2  A    between atoms: C_7  and  C_26
REMARK    3  A    between atoms: C2*_12  and  O2*_15
REMARK    4  A    between atoms: C3*_13  and  O3*_17
REMARK    5  A    between atoms: C4*_14  and  C5*_19
REMARK    6  A    between atoms: C5*_19  and  O5*_20
REMARK                            x       y       z     vdW  Elec       q    Type
REMARK                         _______ _______ _______ _____ _____    ______ ____
ROOT
ATOM      1  N   UNL     1     -36.460  23.427   3.332  0.00  0.00    -0.249 N 
ATOM      2  N   UNL     1     -38.818  23.767   2.962  0.00  0.00    -0.233 NA
ATOM      3  N   UNL     1     -39.822  22.036   1.574  0.00  0.00    -0.234 NA
ATOM      4  C   UNL     1     -37.674  23.081   2.800  0.00  0.00    +0.122 C 
ATOM      5  C   UNL     1     -35.518  22.501   2.962  0.00  0.00    +0.075 C 
ATOM      6  C   UNL     1     -37.505  21.909   2.074  0.00  0.00    +0.141 C 
ATOM      7  C   UNL     1     -36.137  21.549   2.181  0.00  0.00    +0.075 C 
ATOM      8  C   UNL     1     -38.639  21.392   1.449  0.00  0.00    +0.111 C 
ATOM      9  C   UNL     1     -39.838  23.168   2.313  0.00  0.00    +0.252 C 
ATOM     10  N   UNL     1     -38.576  20.210   0.688  0.00  0.00    -0.346 N 
ATOM     11  H   UNL     1     -39.387  19.859   0.255  0.00  0.00    +0.143 HD
ATOM     12  H   UNL     1     -37.720  19.732   0.591  0.00  0.00    +0.143 HD
ENDROOT
BRANCH   1  14
ATOM     13  O4* UNL     1     -34.881  24.603   4.809  0.00  0.00    -0.333 OA
ATOM     14  C1* UNL     1     -36.188  24.637   4.191  0.00  0.00    +0.227 C 
ATOM     15  C2* UNL     1     -36.270  25.977   3.458  0.00  0.00    +0.187 C 
ATOM     16  C3* UNL     1     -35.475  26.855   4.404  0.00  0.00    +0.171 C 
ATOM     17  C4* UNL     1     -34.325  25.930   4.781  0.00  0.00    +0.175 C 
BRANCH  15  18
ATOM     18  O2* UNL     1     -35.607  25.895   2.199  0.00  0.00    -0.378 OA
ATOM     19  H2* UNL     1     -35.915  25.110   1.721  0.00  0.00    +0.211 HD
ENDBRANCH  15  18
BRANCH  16  20
ATOM     20  O3* UNL     1     -35.019  28.050   3.809  0.00  0.00    -0.379 OA
ATOM     21  H3* UNL     1     -34.821  28.701   4.501  0.00  0.00    +0.211 HD
ENDBRANCH  16  20
BRANCH  17  22
ATOM     22  C5* UNL     1     -33.712  26.256   6.131  0.00  0.00    +0.169 C 
BRANCH  22  23
ATOM     23  O5* UNL     1     -33.014  27.487   6.031  0.00  0.00    -0.379 OA
ATOM     24  H5* UNL     1     -32.387  27.563   6.767  0.00  0.00    +0.211 HD
ENDBRANCH  22  23
ENDBRANCH  17  22
ENDBRANCH   1  14
BRANCH   7  26
ATOM     25  N   UNL     1     -34.927  19.511   1.147  0.00  0.00    -0.191 NA
ATOM     26  C   UNL     1     -35.470  20.426   1.611  0.00  0.00    +0.098 C 
ENDBRANCH   7  26
TORSDOF 6
ENDMDL
MODEL 8
REMARK VINA RESULT:      -5.5      4.863      6.633
REMARK  Name = 52940199
REMARK  6 active torsions:
REMARK  status: ('A' for Active; 'I' for Inactive)
REMARK    1  A    between atoms: N_1  and  C1*_11
REMARK    2  A    between atoms: C_7  and  C_26
REMARK    3  A    between atoms: C2*_12  and  O2*_15
REMARK    4  A    between atoms: C3*_13  and  O3*_17
REMARK    5  A    between atoms: C4*_14  and  C5*_19
REMARK    6  A    between atoms: C5*_19  and  O5*_20
REMARK                            x       y       z     vdW  Elec       q    Type
REMARK                         _______ _______ _______ _____ _____    ______ ____
ROOT
ATOM      1  N   UNL     1     -33.361  26.832   4.372  0.00  0.00    -0.249 N 
ATOM      2  N   UNL     1     -33.235  27.612   2.094  0.00  0.00    -0.233 NA
ATOM      3  N   UNL     1     -31.898  29.633   1.854  0.00  0.00    -0.234 NA
ATOM      4  C   UNL     1     -32.940  27.703   3.402  0.00  0.00    +0.122 C 
ATOM      5  C   UNL     1     -32.871  27.232   5.589  0.00  0.00    +0.075 C 
ATOM      6  C   UNL     1     -32.164  28.680   4.012  0.00  0.00    +0.141 C 
ATOM      7  C   UNL     1     -32.126  28.375   5.397  0.00  0.00    +0.075 C 
ATOM      8  C   UNL     1     -31.638  29.669   3.181  0.00  0.00    +0.111 C 
ATOM      9  C   UNL     1     -32.671  28.620   1.399  0.00  0.00    +0.252 C 
ATOM     10  N   UNL     1     -30.839  30.705   3.698  0.00  0.00    -0.346 N 
ATOM     11  H   UNL     1     -30.475  31.394   3.096  0.00  0.00    +0.143 HD
ATOM     12  H   UNL     1     -30.642  30.740   4.662  0.00  0.00    +0.143 HD
ENDROOT
BRANCH   1  14
ATOM     13  O4* UNL     1     -34.216  24.706   5.269  0.00  0.00    -0.333 OA
ATOM     14  C1* UNL     1     -34.232  25.620   4.149  0.00  0.00    +0.227 C 
ATOM     15  C2* UNL     1     -35.706  25.929   3.880  0.00  0.00    +0.187 C 
ATOM     16  C3* UNL     1     -36.331  24.589   4.219  0.00  0.00    +0.171 C 
ATOM     17  C4* UNL     1     -35.548  24.196   5.465  0.00  0.00    +0.175 C 
BRANCH  15  18
ATOM     18  O2* UNL     1     -36.177  26.926   4.784  0.00  0.00    -0.378 OA
ATOM     19  H2* UNL     1     -35.429  27.457   5.098  0.00  0.00    +0.211 HD
ENDBRANCH  15  18
BRANCH  16  20
ATOM     20  O3* UNL     1     -37.718  24.666   4.468  0.00  0.00    -0.379 OA
ATOM     21  H3* UNL     1     -38.124  25.291   3.846  0.00  0.00    +0.211 HD
ENDBRANCH  16  20
BRANCH  17  22
ATOM     22  C5* UNL     1     -35.493  22.696   5.690  0.00  0.00    +0.169 C 
BRANCH  22  23
ATOM     23  O5* UNL     1     -36.292  22.056   4.708  0.00  0.00    -0.379 OA
ATOM     24  H5* UNL     1     -36.825  22.720   4.244  0.00  0.00    +0.211 HD
ENDBRANCH  22  23
ENDBRANCH  17  22
ENDBRANCH   1  14
BRANCH   7  26
ATOM     25  N   UNL     1     -30.917  29.654   7.290  0.00  0.00    -0.191 NA
ATOM     26  C   UNL     1     -31.460  29.080   6.440  0.00  0.00    +0.098 C 
ENDBRANCH   7  26
TORSDOF 6
ENDMDL
MODEL 9
REMARK VINA RESULT:      -5.4      2.478      4.517
REMARK  Name = 52940199
REMARK  6 active torsions:
REMARK  status: ('A' for Active; 'I' for Inactive)
REMARK    1  A    between atoms: N_1  and  C1*_11
REMARK    2  A    between atoms: C_7  and  C_26
REMARK    3  A    between atoms: C2*_12  and  O2*_15
REMARK    4  A    between atoms: C3*_13  and  O3*_17
REMARK    5  A    between atoms: C4*_14  and  C5*_19
REMARK    6  A    between atoms: C5*_19  and  O5*_20
REMARK                            x       y       z     vdW  Elec       q    Type
REMARK                         _______ _______ _______ _____ _____    ______ ____
ROOT
ATOM      1  N   UNL     1     -35.934  24.642   4.009  0.00  0.00    -0.249 N 
ATOM      2  N   UNL     1     -36.545  25.998   2.112  0.00  0.00    -0.233 NA
ATOM      3  N   UNL     1     -35.425  28.161   2.090  0.00  0.00    -0.234 NA
ATOM      4  C   UNL     1     -35.865  25.780   3.251  0.00  0.00    +0.122 C 
ATOM      5  C   UNL     1     -35.109  24.767   5.097  0.00  0.00    +0.075 C 
ATOM      6  C   UNL     1     -34.977  26.652   3.867  0.00  0.00    +0.141 C 
ATOM      7  C   UNL     1     -34.504  26.003   5.036  0.00  0.00    +0.075 C 
ATOM      8  C   UNL     1     -34.771  27.880   3.240  0.00  0.00    +0.111 C 
ATOM      9  C   UNL     1     -36.261  27.215   1.604  0.00  0.00    +0.252 C 
ATOM     10  N   UNL     1     -33.892  28.836   3.783  0.00  0.00    -0.346 N 
ATOM     11  H   UNL     1     -33.757  29.698   3.326  0.00  0.00    +0.143 HD
ATOM     12  H   UNL     1     -33.409  28.642   4.619  0.00  0.00    +0.143 HD
ENDROOT
BRANCH   1  14
ATOM     13  O4* UNL     1     -38.070  23.778   3.143  0.00  0.00    -0.333 OA
ATOM     14  C1* UNL     1     -36.784  23.432   3.706  0.00  0.00    +0.227 C 
ATOM     15  C2* UNL     1     -36.156  22.433   2.733  0.00  0.00    +0.187 C 
ATOM     16  C3* UNL     1     -37.393  21.688   2.270  0.00  0.00    +0.171 C 
ATOM     17  C4* UNL     1     -38.391  22.828   2.111  0.00  0.00    +0.175 C 
BRANCH  15  18
ATOM     18  O2* UNL     1     -35.562  23.118   1.632  0.00  0.00    -0.378 OA
ATOM     19  H2* UNL     1     -35.346  24.025   1.895  0.00  0.00    +0.211 HD
ENDBRANCH  15  18
BRANCH  16  20
ATOM     20  O3* UNL     1     -37.202  20.980   1.064  0.00  0.00    -0.379 OA
ATOM     21  H3* UNL     1     -36.577  20.252   1.213  0.00  0.00    +0.211 HD
ENDBRANCH  16  20
BRANCH  17  22
ATOM     22  C5* UNL     1     -39.836  22.385   2.254  0.00  0.00    +0.169 C 
BRANCH  22  23
ATOM     23  O5* UNL     1     -39.873  20.970   2.350  0.00  0.00    -0.379 OA
ATOM     24  H5* UNL     1     -40.541  20.709   3.001  0.00  0.00    +0.211 HD
ENDBRANCH  22  23
ENDBRANCH  17  22
ENDBRANCH   1  14
BRANCH   7  26
ATOM     25  N   UNL     1     -32.821  26.883   6.791  0.00  0.00    -0.191 NA
ATOM     26  C   UNL     1     -33.577  26.488   6.003  0.00  0.00    +0.098 C 
ENDBRANCH   7  26
TORSDOF 6
ENDMDL
