MODEL 1
REMARK VINA RESULT:      -7.3      0.000      0.000
REMARK  Name = 5490092
REMARK  9 active torsions:
REMARK  status: ('A' for Active; 'I' for Inactive)
REMARK    1  A    between atoms: C_3  and  O_20
REMARK    2  A    between atoms: C_8  and  O_18
REMARK    3  A    between atoms: C_10  and  C_12
REMARK    4  A    between atoms: O_20  and  C_26
REMARK    5  A    between atoms: C_22  and  O_27
REMARK    6  A    between atoms: C_23  and  O_29
REMARK    7  A    between atoms: C_24  and  O_31
REMARK    8  A    between atoms: C_25  and  C_33
REMARK    9  A    between atoms: C_33  and  O_34
REMARK                            x       y       z     vdW  Elec       q    Type
REMARK                         _______ _______ _______ _____ _____    ______ ____
ROOT
ATOM      1  O   UNL     1     -35.271  19.489   0.949  0.00  0.00    -0.453 OA
ATOM      2  O   UNL     1     -38.199  18.092  -1.515  0.00  0.00    -0.286 OA
ATOM      3  C   UNL     1     -37.936  21.794   1.878  0.00  0.00    +0.147 C 
ATOM      4  C   UNL     1     -36.698  21.153   1.826  0.00  0.00    +0.075 C 
ATOM      5  C   UNL     1     -38.983  21.364   1.061  0.00  0.00    +0.074 C 
ATOM      6  C   UNL     1     -36.509  20.080   0.956  0.00  0.00    +0.154 C 
ATOM      7  C   UNL     1     -37.556  19.651   0.140  0.00  0.00    +0.107 C 
ATOM      8  C   UNL     1     -38.796  20.291   0.189  0.00  0.00    +0.143 C 
ATOM      9  C   UNL     1     -37.328  18.519  -0.770  0.00  0.00    +0.205 C 
ATOM     10  C   UNL     1     -35.055  18.416   0.098  0.00  0.00    +0.148 C 
ATOM     11  C   UNL     1     -35.979  17.917  -0.737  0.00  0.00    +0.080 C 
ENDROOT
BRANCH  10  12
ATOM     12  C   UNL     1     -33.688  17.861   0.167  0.00  0.00    +0.035 C 
ATOM     13  C   UNL     1     -32.724  18.474   0.972  0.00  0.00    +0.003 C 
ATOM     14  C   UNL     1     -33.353  16.724  -0.570  0.00  0.00    +0.003 C 
ATOM     15  C   UNL     1     -31.432  17.951   1.039  0.00  0.00    +0.000 C 
ATOM     16  C   UNL     1     -32.061  16.201  -0.504  0.00  0.00    +0.000 C 
ATOM     17  C   UNL     1     -31.101  16.814   0.301  0.00  0.00    +0.000 C 
ENDBRANCH  10  12
BRANCH   8  18
ATOM     18  O   UNL     1     -39.849  19.910  -0.587  0.00  0.00    -0.505 OA
ATOM     19  H   UNL     1     -39.900  19.032  -0.908  0.00  0.00    +0.292 HD
ENDBRANCH   8  18
BRANCH   3  20
ATOM     20  O   UNL     1     -38.124  22.844   2.728  0.00  0.00    -0.450 OA
BRANCH  20  26
ATOM     21  O   UNL     1     -36.524  22.631   4.414  0.00  0.00    -0.316 OA
ATOM     22  C   UNL     1     -36.134  25.475   4.518  0.00  0.00    +0.173 C 
ATOM     23  C   UNL     1     -35.598  24.533   5.597  0.00  0.00    +0.169 C 
ATOM     24  C   UNL     1     -37.293  24.838   3.754  0.00  0.00    +0.210 C 
ATOM     25  C   UNL     1     -35.335  23.140   5.021  0.00  0.00    +0.177 C 
ATOM     26  C   UNL     1     -36.951  23.417   3.303  0.00  0.00    +0.318 C 
BRANCH  22  27
ATOM     27  O   UNL     1     -36.583  26.669   5.158  0.00  0.00    -0.379 OA
ATOM     28  H   UNL     1     -36.446  26.596   6.115  0.00  0.00    +0.211 HD
ENDBRANCH  22  27
BRANCH  23  29
ATOM     29  O   UNL     1     -34.385  25.061   6.125  0.00  0.00    -0.379 OA
ATOM     30  H   UNL     1     -34.536  25.968   6.436  0.00  0.00    +0.211 HD
ENDBRANCH  23  29
BRANCH  24  31
ATOM     31  O   UNL     1     -37.580  25.618   2.592  0.00  0.00    -0.377 OA
ATOM     32  H   UNL     1     -38.125  26.381   2.843  0.00  0.00    +0.211 HD
ENDBRANCH  24  31
BRANCH  25  33
ATOM     33  C   UNL     1     -34.913  22.151   6.103  0.00  0.00    +0.169 C 
BRANCH  33  34
ATOM     34  O   UNL     1     -35.378  20.863   5.743  0.00  0.00    -0.379 OA
ATOM     35  H   UNL     1     -36.173  20.949   5.193  0.00  0.00    +0.211 HD
ENDBRANCH  33  34
ENDBRANCH  25  33
ENDBRANCH  20  26
ENDBRANCH   3  20
TORSDOF 9
ENDMDL
MODEL 2
REMARK VINA RESULT:      -7.1      1.803      2.599
REMARK  Name = 5490092
REMARK  9 active torsions:
REMARK  status: ('A' for Active; 'I' for Inactive)
REMARK    1  A    between atoms: C_3  and  O_20
REMARK    2  A    between atoms: C_8  and  O_18
REMARK    3  A    between atoms: C_10  and  C_12
REMARK    4  A    between atoms: O_20  and  C_26
REMARK    5  A    between atoms: C_22  and  O_27
REMARK    6  A    between atoms: C_23  and  O_29
REMARK    7  A    between atoms: C_24  and  O_31
REMARK    8  A    between atoms: C_25  and  C_33
REMARK    9  A    between atoms: C_33  and  O_34
REMARK                            x       y       z     vdW  Elec       q    Type
REMARK                         _______ _______ _______ _____ _____    ______ ____
ROOT
ATOM      1  O   UNL     1     -32.665  19.890   0.724  0.00  0.00    -0.453 OA
ATOM      2  O   UNL     1     -34.865  16.563  -0.105  0.00  0.00    -0.286 OA
ATOM      3  C   UNL     1     -35.994  21.263   1.280  0.00  0.00    +0.147 C 
ATOM      4  C   UNL     1     -34.606  21.153   1.179  0.00  0.00    +0.075 C 
ATOM      5  C   UNL     1     -36.806  20.161   1.012  0.00  0.00    +0.074 C 
ATOM      6  C   UNL     1     -34.033  19.937   0.808  0.00  0.00    +0.154 C 
ATOM      7  C   UNL     1     -34.845  18.836   0.539  0.00  0.00    +0.107 C 
ATOM      8  C   UNL     1     -36.235  18.943   0.640  0.00  0.00    +0.143 C 
ATOM      9  C   UNL     1     -34.214  17.567   0.147  0.00  0.00    +0.205 C 
ATOM     10  C   UNL     1     -32.066  18.692   0.363  0.00  0.00    +0.148 C 
ATOM     11  C   UNL     1     -32.739  17.568   0.075  0.00  0.00    +0.080 C 
ENDROOT
BRANCH  10  12
ATOM     12  C   UNL     1     -30.591  18.755   0.298  0.00  0.00    +0.035 C 
ATOM     13  C   UNL     1     -29.965  19.765  -0.437  0.00  0.00    +0.003 C 
ATOM     14  C   UNL     1     -29.817  17.806   0.970  0.00  0.00    +0.003 C 
ATOM     15  C   UNL     1     -28.572  19.826  -0.498  0.00  0.00    +0.000 C 
ATOM     16  C   UNL     1     -28.425  17.866   0.908  0.00  0.00    +0.000 C 
ATOM     17  C   UNL     1     -27.803  18.877   0.174  0.00  0.00    +0.000 C 
ENDBRANCH  10  12
BRANCH   8  18
ATOM     18  O   UNL     1     -37.070  17.897   0.388  0.00  0.00    -0.505 OA
ATOM     19  H   UNL     1     -36.833  17.251  -0.246  0.00  0.00    +0.292 HD
ENDBRANCH   8  18
BRANCH   3  20
ATOM     20  O   UNL     1     -36.558  22.451   1.643  0.00  0.00    -0.450 OA
BRANCH  20  26
ATOM     21  O   UNL     1     -35.951  22.468   3.896  0.00  0.00    -0.316 OA
ATOM     22  C   UNL     1     -36.034  25.337   3.984  0.00  0.00    +0.173 C 
ATOM     23  C   UNL     1     -35.965  24.480   5.248  0.00  0.00    +0.169 C 
ATOM     24  C   UNL     1     -36.589  24.541   2.805  0.00  0.00    +0.210 C 
ATOM     25  C   UNL     1     -35.278  23.143   4.961  0.00  0.00    +0.177 C 
ATOM     26  C   UNL     1     -35.891  23.188   2.667  0.00  0.00    +0.318 C 
BRANCH  22  27
ATOM     27  O   UNL     1     -36.887  26.451   4.252  0.00  0.00    -0.379 OA
ATOM     28  H   UNL     1     -37.065  26.501   5.204  0.00  0.00    +0.211 HD
ENDBRANCH  22  27
BRANCH  23  29
ATOM     29  O   UNL     1     -35.234  25.178   6.253  0.00  0.00    -0.379 OA
ATOM     30  H   UNL     1     -34.843  25.979   5.869  0.00  0.00    +0.211 HD
ENDBRANCH  23  29
BRANCH  24  31
ATOM     31  O   UNL     1     -36.382  25.275   1.597  0.00  0.00    -0.377 OA
ATOM     32  H   UNL     1     -36.925  24.892   0.890  0.00  0.00    +0.211 HD
ENDBRANCH  24  31
BRANCH  25  33
ATOM     33  C   UNL     1     -35.303  22.222   6.177  0.00  0.00    +0.169 C 
BRANCH  33  34
ATOM     34  O   UNL     1     -35.329  20.880   5.725  0.00  0.00    -0.379 OA
ATOM     35  H   UNL     1     -36.167  20.711   5.266  0.00  0.00    +0.211 HD
ENDBRANCH  33  34
ENDBRANCH  25  33
ENDBRANCH  20  26
ENDBRANCH   3  20
TORSDOF 9
ENDMDL
MODEL 3
REMARK VINA RESULT:      -7.1      3.221      5.801
REMARK  Name = 5490092
REMARK  9 active torsions:
REMARK  status: ('A' for Active; 'I' for Inactive)
REMARK    1  A    between atoms: C_3  and  O_20
REMARK    2  A    between atoms: C_8  and  O_18
REMARK    3  A    between atoms: C_10  and  C_12
REMARK    4  A    between atoms: O_20  and  C_26
REMARK    5  A    between atoms: C_22  and  O_27
REMARK    6  A    between atoms: C_23  and  O_29
REMARK    7  A    between atoms: C_24  and  O_31
REMARK    8  A    between atoms: C_25  and  C_33
REMARK    9  A    between atoms: C_33  and  O_34
REMARK                            x       y       z     vdW  Elec       q    Type
REMARK                         _______ _______ _______ _____ _____    ______ ____
ROOT
ATOM      1  O   UNL     1     -35.019  22.200   2.990  0.00  0.00    -0.453 OA
ATOM      2  O   UNL     1     -38.724  23.807   2.456  0.00  0.00    -0.286 OA
ATOM      3  C   UNL     1     -34.694  25.101   5.171  0.00  0.00    +0.147 C 
ATOM      4  C   UNL     1     -34.401  23.925   4.477  0.00  0.00    +0.075 C 
ATOM      5  C   UNL     1     -35.946  25.702   5.034  0.00  0.00    +0.074 C 
ATOM      6  C   UNL     1     -35.364  23.353   3.646  0.00  0.00    +0.154 C 
ATOM      7  C   UNL     1     -36.614  23.956   3.510  0.00  0.00    +0.107 C 
ATOM      8  C   UNL     1     -36.910  25.132   4.202  0.00  0.00    +0.143 C 
ATOM      9  C   UNL     1     -37.609  23.332   2.624  0.00  0.00    +0.205 C 
ATOM     10  C   UNL     1     -35.958  21.604   2.161  0.00  0.00    +0.148 C 
ATOM     11  C   UNL     1     -37.189  22.090   1.944  0.00  0.00    +0.080 C 
ENDROOT
BRANCH  10  12
ATOM     12  C   UNL     1     -35.479  20.372   1.501  0.00  0.00    +0.035 C 
ATOM     13  C   UNL     1     -34.186  19.903   1.746  0.00  0.00    +0.003 C 
ATOM     14  C   UNL     1     -36.317  19.671   0.630  0.00  0.00    +0.003 C 
ATOM     15  C   UNL     1     -33.733  18.739   1.124  0.00  0.00    +0.000 C 
ATOM     16  C   UNL     1     -35.864  18.508   0.007  0.00  0.00    +0.000 C 
ATOM     17  C   UNL     1     -34.572  18.042   0.255  0.00  0.00    +0.000 C 
ENDBRANCH  10  12
BRANCH   8  18
ATOM     18  O   UNL     1     -38.116  25.758   4.102  0.00  0.00    -0.505 OA
ATOM     19  H   UNL     1     -38.579  26.009   4.876  0.00  0.00    +0.292 HD
ENDBRANCH   8  18
BRANCH   3  20
ATOM     20  O   UNL     1     -33.755  25.663   5.985  0.00  0.00    -0.450 OA
BRANCH  20  26
ATOM     21  O   UNL     1     -32.790  26.966   4.307  0.00  0.00    -0.316 OA
ATOM     22  C   UNL     1     -31.581  28.711   6.241  0.00  0.00    +0.173 C 
ATOM     23  C   UNL     1     -31.184  28.723   4.765  0.00  0.00    +0.169 C 
ATOM     24  C   UNL     1     -32.222  27.380   6.631  0.00  0.00    +0.210 C 
ATOM     25  C   UNL     1     -32.348  28.258   3.886  0.00  0.00    +0.177 C 
ATOM     26  C   UNL     1     -33.308  26.972   5.635  0.00  0.00    +0.318 C 
BRANCH  22  27
ATOM     27  O   UNL     1     -30.400  28.917   7.017  0.00  0.00    -0.379 OA
ATOM     28  H   UNL     1     -30.593  28.748   7.953  0.00  0.00    +0.211 HD
ENDBRANCH  22  27
BRANCH  23  29
ATOM     29  O   UNL     1     -30.809  30.044   4.387  0.00  0.00    -0.379 OA
ATOM     30  H   UNL     1     -30.014  30.307   4.879  0.00  0.00    +0.211 HD
ENDBRANCH  23  29
BRANCH  24  31
ATOM     31  O   UNL     1     -32.823  27.503   7.921  0.00  0.00    -0.377 OA
ATOM     32  H   UNL     1     -32.183  27.891   8.539  0.00  0.00    +0.211 HD
ENDBRANCH  24  31
BRANCH  25  33
ATOM     33  C   UNL     1     -31.940  28.148   2.420  0.00  0.00    +0.169 C 
BRANCH  33  34
ATOM     34  O   UNL     1     -32.098  29.418   1.812  0.00  0.00    -0.379 OA
ATOM     35  H   UNL     1     -31.228  29.766   1.561  0.00  0.00    +0.211 HD
ENDBRANCH  33  34
ENDBRANCH  25  33
ENDBRANCH  20  26
ENDBRANCH   3  20
TORSDOF 9
ENDMDL
MODEL 4
REMARK VINA RESULT:      -7.0      1.533      2.197
REMARK  Name = 5490092
REMARK  9 active torsions:
REMARK  status: ('A' for Active; 'I' for Inactive)
REMARK    1  A    between atoms: C_3  and  O_20
REMARK    2  A    between atoms: C_8  and  O_18
REMARK    3  A    between atoms: C_10  and  C_12
REMARK    4  A    between atoms: O_20  and  C_26
REMARK    5  A    between atoms: C_22  and  O_27
REMARK    6  A    between atoms: C_23  and  O_29
REMARK    7  A    between atoms: C_24  and  O_31
REMARK    8  A    between atoms: C_25  and  C_33
REMARK    9  A    between atoms: C_33  and  O_34
REMARK                            x       y       z     vdW  Elec       q    Type
REMARK                         _______ _______ _______ _____ _____    ______ ____
ROOT
ATOM      1  O   UNL     1     -34.715  20.059   1.530  0.00  0.00    -0.453 OA
ATOM      2  O   UNL     1     -38.042  18.728  -0.408  0.00  0.00    -0.286 OA
ATOM      3  C   UNL     1     -37.124  22.462   2.832  0.00  0.00    +0.147 C 
ATOM      4  C   UNL     1     -35.930  21.779   2.595  0.00  0.00    +0.075 C 
ATOM      5  C   UNL     1     -38.301  22.057   2.202  0.00  0.00    +0.074 C 
ATOM      6  C   UNL     1     -35.917  20.690   1.725  0.00  0.00    +0.154 C 
ATOM      7  C   UNL     1     -37.094  20.286   1.095  0.00  0.00    +0.107 C 
ATOM      8  C   UNL     1     -38.290  20.968   1.330  0.00  0.00    +0.143 C 
ATOM      9  C   UNL     1     -37.050  19.135   0.180  0.00  0.00    +0.205 C 
ATOM     10  C   UNL     1     -34.672  18.968   0.674  0.00  0.00    +0.148 C 
ATOM     11  C   UNL     1     -35.733  18.489   0.007  0.00  0.00    +0.080 C 
ENDROOT
BRANCH  10  12
ATOM     12  C   UNL     1     -33.329  18.369   0.534  0.00  0.00    +0.035 C 
ATOM     13  C   UNL     1     -32.189  19.147   0.752  0.00  0.00    +0.003 C 
ATOM     14  C   UNL     1     -33.192  17.024   0.182  0.00  0.00    +0.003 C 
ATOM     15  C   UNL     1     -30.919  18.582   0.621  0.00  0.00    +0.000 C 
ATOM     16  C   UNL     1     -31.923  16.460   0.050  0.00  0.00    +0.000 C 
ATOM     17  C   UNL     1     -30.787  17.239   0.269  0.00  0.00    +0.000 C 
ENDBRANCH  10  12
BRANCH   8  18
ATOM     18  O   UNL     1     -39.465  20.612   0.739  0.00  0.00    -0.505 OA
ATOM     19  H   UNL     1     -39.640  19.712   0.550  0.00  0.00    +0.292 HD
ENDBRANCH   8  18
BRANCH   3  20
ATOM     20  O   UNL     1     -37.140  23.529   3.683  0.00  0.00    -0.450 OA
BRANCH  20  26
ATOM     21  O   UNL     1     -35.597  24.926   4.737  0.00  0.00    -0.316 OA
ATOM     22  C   UNL     1     -35.815  26.884   2.647  0.00  0.00    +0.173 C 
ATOM     23  C   UNL     1     -35.136  27.183   3.984  0.00  0.00    +0.169 C 
ATOM     24  C   UNL     1     -36.785  25.710   2.770  0.00  0.00    +0.210 C 
ATOM     25  C   UNL     1     -34.565  25.905   4.602  0.00  0.00    +0.177 C 
ATOM     26  C   UNL     1     -36.136  24.522   3.481  0.00  0.00    +0.318 C 
BRANCH  22  27
ATOM     27  O   UNL     1     -36.529  28.052   2.243  0.00  0.00    -0.379 OA
ATOM     28  H   UNL     1     -36.104  28.437   1.461  0.00  0.00    +0.211 HD
ENDBRANCH  22  27
BRANCH  23  29
ATOM     29  O   UNL     1     -34.081  28.118   3.779  0.00  0.00    -0.379 OA
ATOM     30  H   UNL     1     -34.395  28.840   3.211  0.00  0.00    +0.211 HD
ENDBRANCH  23  29
BRANCH  24  31
ATOM     31  O   UNL     1     -37.185  25.287   1.466  0.00  0.00    -0.377 OA
ATOM     32  H   UNL     1     -36.442  25.394   0.851  0.00  0.00    +0.211 HD
ENDBRANCH  24  31
BRANCH  25  33
ATOM     33  C   UNL     1     -33.987  26.158   5.991  0.00  0.00    +0.169 C 
BRANCH  33  34
ATOM     34  O   UNL     1     -32.740  26.815   5.847  0.00  0.00    -0.379 OA
ATOM     35  H   UNL     1     -32.869  27.652   5.374  0.00  0.00    +0.211 HD
ENDBRANCH  33  34
ENDBRANCH  25  33
ENDBRANCH  20  26
ENDBRANCH   3  20
TORSDOF 9
ENDMDL
MODEL 5
REMARK VINA RESULT:      -6.9      2.006      3.207
REMARK  Name = 5490092
REMARK  9 active torsions:
REMARK  status: ('A' for Active; 'I' for Inactive)
REMARK    1  A    between atoms: C_3  and  O_20
REMARK    2  A    between atoms: C_8  and  O_18
REMARK    3  A    between atoms: C_10  and  C_12
REMARK    4  A    between atoms: O_20  and  C_26
REMARK    5  A    between atoms: C_22  and  O_27
REMARK    6  A    between atoms: C_23  and  O_29
REMARK    7  A    between atoms: C_24  and  O_31
REMARK    8  A    between atoms: C_25  and  C_33
REMARK    9  A    between atoms: C_33  and  O_34
REMARK                            x       y       z     vdW  Elec       q    Type
REMARK                         _______ _______ _______ _____ _____    ______ ____
ROOT
ATOM      1  O   UNL     1     -34.823  20.996   1.712  0.00  0.00    -0.453 OA
ATOM      2  O   UNL     1     -37.980  19.109  -0.040  0.00  0.00    -0.286 OA
ATOM      3  C   UNL     1     -37.513  23.097   2.987  0.00  0.00    +0.147 C 
ATOM      4  C   UNL     1     -36.241  22.579   2.738  0.00  0.00    +0.075 C 
ATOM      5  C   UNL     1     -38.637  22.497   2.419  0.00  0.00    +0.074 C 
ATOM      6  C   UNL     1     -36.097  21.459   1.920  0.00  0.00    +0.154 C 
ATOM      7  C   UNL     1     -37.221  20.860   1.353  0.00  0.00    +0.107 C 
ATOM      8  C   UNL     1     -38.495  21.376   1.600  0.00  0.00    +0.143 C 
ATOM      9  C   UNL     1     -37.039  19.682   0.492  0.00  0.00    +0.205 C 
ATOM     10  C   UNL     1     -34.648  19.880   0.907  0.00  0.00    +0.148 C 
ATOM     11  C   UNL     1     -35.649  19.222   0.302  0.00  0.00    +0.080 C 
ENDROOT
BRANCH  10  12
ATOM     12  C   UNL     1     -33.238  19.471   0.746  0.00  0.00    +0.035 C 
ATOM     13  C   UNL     1     -32.351  20.282   0.033  0.00  0.00    +0.003 C 
ATOM     14  C   UNL     1     -32.785  18.275   1.306  0.00  0.00    +0.003 C 
ATOM     15  C   UNL     1     -31.018  19.897  -0.119  0.00  0.00    +0.000 C 
ATOM     16  C   UNL     1     -31.452  17.890   1.153  0.00  0.00    +0.000 C 
ATOM     17  C   UNL     1     -30.569  18.702   0.441  0.00  0.00    +0.000 C 
ENDBRANCH  10  12
BRANCH   8  18
ATOM     18  O   UNL     1     -39.624  20.828   1.069  0.00  0.00    -0.505 OA
ATOM     19  H   UNL     1     -39.577  20.012   0.612  0.00  0.00    +0.292 HD
ENDBRANCH   8  18
BRANCH   3  20
ATOM     20  O   UNL     1     -37.658  24.193   3.787  0.00  0.00    -0.450 OA
BRANCH  20  26
ATOM     21  O   UNL     1     -36.791  25.258   1.900  0.00  0.00    -0.316 OA
ATOM     22  C   UNL     1     -35.423  27.196   3.519  0.00  0.00    +0.173 C 
ATOM     23  C   UNL     1     -35.130  27.018   2.029  0.00  0.00    +0.169 C 
ATOM     24  C   UNL     1     -36.057  25.939   4.112  0.00  0.00    +0.210 C 
ATOM     25  C   UNL     1     -36.359  26.477   1.294  0.00  0.00    +0.177 C 
ATOM     26  C   UNL     1     -37.216  25.438   3.249  0.00  0.00    +0.318 C 
BRANCH  22  27
ATOM     27  O   UNL     1     -34.189  27.466   4.183  0.00  0.00    -0.379 OA
ATOM     28  H   UNL     1     -33.518  26.828   3.893  0.00  0.00    +0.211 HD
ENDBRANCH  22  27
BRANCH  23  29
ATOM     29  O   UNL     1     -34.760  28.274   1.467  0.00  0.00    -0.379 OA
ATOM     30  H   UNL     1     -35.340  28.968   1.819  0.00  0.00    +0.211 HD
ENDBRANCH  23  29
BRANCH  24  31
ATOM     31  O   UNL     1     -36.564  26.233   5.414  0.00  0.00    -0.377 OA
ATOM     32  H   UNL     1     -37.518  26.402   5.358  0.00  0.00    +0.211 HD
ENDBRANCH  24  31
BRANCH  25  33
ATOM     33  C   UNL     1     -36.055  26.180  -0.171  0.00  0.00    +0.169 C 
BRANCH  33  34
ATOM     34  O   UNL     1     -34.661  25.969  -0.309  0.00  0.00    -0.379 OA
ATOM     35  H   UNL     1     -34.288  25.711   0.548  0.00  0.00    +0.211 HD
ENDBRANCH  33  34
ENDBRANCH  25  33
ENDBRANCH  20  26
ENDBRANCH   3  20
TORSDOF 9
ENDMDL
MODEL 6
REMARK VINA RESULT:      -6.9      2.753      4.125
REMARK  Name = 5490092
REMARK  9 active torsions:
REMARK  status: ('A' for Active; 'I' for Inactive)
REMARK    1  A    between atoms: C_3  and  O_20
REMARK    2  A    between atoms: C_8  and  O_18
REMARK    3  A    between atoms: C_10  and  C_12
REMARK    4  A    between atoms: O_20  and  C_26
REMARK    5  A    between atoms: C_22  and  O_27
REMARK    6  A    between atoms: C_23  and  O_29
REMARK    7  A    between atoms: C_24  and  O_31
REMARK    8  A    between atoms: C_25  and  C_33
REMARK    9  A    between atoms: C_33  and  O_34
REMARK                            x       y       z     vdW  Elec       q    Type
REMARK                         _______ _______ _______ _____ _____    ______ ____
ROOT
ATOM      1  O   UNL     1     -34.663  22.143   2.011  0.00  0.00    -0.453 OA
ATOM      2  O   UNL     1     -38.491  20.912   1.359  0.00  0.00    -0.286 OA
ATOM      3  C   UNL     1     -36.421  25.055   3.318  0.00  0.00    +0.147 C 
ATOM      4  C   UNL     1     -35.397  24.186   2.939  0.00  0.00    +0.075 C 
ATOM      5  C   UNL     1     -37.755  24.693   3.125  0.00  0.00    +0.074 C 
ATOM      6  C   UNL     1     -35.710  22.954   2.365  0.00  0.00    +0.154 C 
ATOM      7  C   UNL     1     -37.044  22.594   2.171  0.00  0.00    +0.107 C 
ATOM      8  C   UNL     1     -38.071  23.462   2.550  0.00  0.00    +0.143 C 
ATOM      9  C   UNL     1     -37.346  21.291   1.560  0.00  0.00    +0.205 C 
ATOM     10  C   UNL     1     -34.944  20.909   1.443  0.00  0.00    +0.148 C 
ATOM     11  C   UNL     1     -36.182  20.455   1.201  0.00  0.00    +0.080 C 
ENDROOT
BRANCH  10  12
ATOM     12  C   UNL     1     -33.743  20.122   1.096  0.00  0.00    +0.035 C 
ATOM     13  C   UNL     1     -33.574  18.837   1.619  0.00  0.00    +0.003 C 
ATOM     14  C   UNL     1     -32.773  20.657   0.247  0.00  0.00    +0.003 C 
ATOM     15  C   UNL     1     -32.441  18.091   1.291  0.00  0.00    +0.000 C 
ATOM     16  C   UNL     1     -31.639  19.912  -0.080  0.00  0.00    +0.000 C 
ATOM     17  C   UNL     1     -31.474  18.629   0.442  0.00  0.00    +0.000 C 
ENDBRANCH  10  12
BRANCH   8  18
ATOM     18  O   UNL     1     -39.388  23.156   2.381  0.00  0.00    -0.505 OA
ATOM     19  H   UNL     1     -39.643  22.278   2.183  0.00  0.00    +0.292 HD
ENDBRANCH   8  18
BRANCH   3  20
ATOM     20  O   UNL     1     -36.118  26.260   3.881  0.00  0.00    -0.450 OA
BRANCH  20  26
ATOM     21  O   UNL     1     -34.269  26.934   5.136  0.00  0.00    -0.316 OA
ATOM     22  C   UNL     1     -33.262  28.514   2.959  0.00  0.00    +0.173 C 
ATOM     23  C   UNL     1     -32.717  28.637   4.382  0.00  0.00    +0.169 C 
ATOM     24  C   UNL     1     -34.671  27.923   2.955  0.00  0.00    +0.210 C 
ATOM     25  C   UNL     1     -32.894  27.323   5.147  0.00  0.00    +0.177 C 
ATOM     26  C   UNL     1     -34.751  26.666   3.821  0.00  0.00    +0.318 C 
BRANCH  22  27
ATOM     27  O   UNL     1     -33.291  29.820   2.383  0.00  0.00    -0.379 OA
ATOM     28  H   UNL     1     -33.977  29.857   1.698  0.00  0.00    +0.211 HD
ENDBRANCH  22  27
BRANCH  23  29
ATOM     29  O   UNL     1     -31.333  28.968   4.331  0.00  0.00    -0.379 OA
ATOM     30  H   UNL     1     -31.021  29.189   5.223  0.00  0.00    +0.211 HD
ENDBRANCH  23  29
BRANCH  24  31
ATOM     31  O   UNL     1     -35.033  27.570   1.619  0.00  0.00    -0.377 OA
ATOM     32  H   UNL     1     -35.999  27.525   1.548  0.00  0.00    +0.211 HD
ENDBRANCH  24  31
BRANCH  25  33
ATOM     33  C   UNL     1     -32.467  27.456   6.605  0.00  0.00    +0.169 C 
BRANCH  33  34
ATOM     34  O   UNL     1     -31.053  27.409   6.667  0.00  0.00    -0.379 OA
ATOM     35  H   UNL     1     -30.701  27.137   5.804  0.00  0.00    +0.211 HD
ENDBRANCH  33  34
ENDBRANCH  25  33
ENDBRANCH  20  26
ENDBRANCH   3  20
TORSDOF 9
ENDMDL
MODEL 7
REMARK VINA RESULT:      -6.9      1.695      2.665
REMARK  Name = 5490092
REMARK  9 active torsions:
REMARK  status: ('A' for Active; 'I' for Inactive)
REMARK    1  A    between atoms: C_3  and  O_20
REMARK    2  A    between atoms: C_8  and  O_18
REMARK    3  A    between atoms: C_10  and  C_12
REMARK    4  A    between atoms: O_20  and  C_26
REMARK    5  A    between atoms: C_22  and  O_27
REMARK    6  A    between atoms: C_23  and  O_29
REMARK    7  A    between atoms: C_24  and  O_31
REMARK    8  A    between atoms: C_25  and  C_33
REMARK    9  A    between atoms: C_33  and  O_34
REMARK                            x       y       z     vdW  Elec       q    Type
REMARK                         _______ _______ _______ _____ _____    ______ ____
ROOT
ATOM      1  O   UNL     1     -33.112  19.773   1.268  0.00  0.00    -0.453 OA
ATOM      2  O   UNL     1     -35.663  17.648  -1.093  0.00  0.00    -0.286 OA
ATOM      3  C   UNL     1     -36.266  21.158   2.457  0.00  0.00    +0.147 C 
ATOM      4  C   UNL     1     -34.901  20.913   2.305  0.00  0.00    +0.075 C 
ATOM      5  C   UNL     1     -37.194  20.463   1.680  0.00  0.00    +0.074 C 
ATOM      6  C   UNL     1     -34.465  19.970   1.374  0.00  0.00    +0.154 C 
ATOM      7  C   UNL     1     -35.393  19.277   0.598  0.00  0.00    +0.107 C 
ATOM      8  C   UNL     1     -36.761  19.520   0.747  0.00  0.00    +0.143 C 
ATOM      9  C   UNL     1     -34.906  18.290  -0.379  0.00  0.00    +0.205 C 
ATOM     10  C   UNL     1     -32.650  18.837   0.355  0.00  0.00    +0.148 C 
ATOM     11  C   UNL     1     -33.442  18.113  -0.451  0.00  0.00    +0.080 C 
ENDROOT
BRANCH  10  12
ATOM     12  C   UNL     1     -31.179  18.710   0.320  0.00  0.00    +0.035 C 
ATOM     13  C   UNL     1     -30.414  19.614  -0.421  0.00  0.00    +0.003 C 
ATOM     14  C   UNL     1     -30.546  17.685   1.028  0.00  0.00    +0.003 C 
ATOM     15  C   UNL     1     -29.024  19.495  -0.454  0.00  0.00    +0.000 C 
ATOM     16  C   UNL     1     -29.156  17.565   0.994  0.00  0.00    +0.000 C 
ATOM     17  C   UNL     1     -28.395  18.471   0.254  0.00  0.00    +0.000 C 
ENDBRANCH  10  12
BRANCH   8  18
ATOM     18  O   UNL     1     -37.706  18.869   0.013  0.00  0.00    -0.505 OA
ATOM     19  H   UNL     1     -38.614  19.010   0.189  0.00  0.00    +0.292 HD
ENDBRANCH   8  18
BRANCH   3  20
ATOM     20  O   UNL     1     -36.695  22.079   3.367  0.00  0.00    -0.450 OA
BRANCH  20  26
ATOM     21  O   UNL     1     -35.404  23.880   4.098  0.00  0.00    -0.316 OA
ATOM     22  C   UNL     1     -37.305  25.770   3.067  0.00  0.00    +0.173 C 
ATOM     23  C   UNL     1     -36.183  26.174   4.024  0.00  0.00    +0.169 C 
ATOM     24  C   UNL     1     -37.615  24.278   3.176  0.00  0.00    +0.210 C 
ATOM     25  C   UNL     1     -34.986  25.231   3.888  0.00  0.00    +0.177 C 
ATOM     26  C   UNL     1     -36.338  23.438   3.116  0.00  0.00    +0.318 C 
BRANCH  22  27
ATOM     27  O   UNL     1     -38.468  26.524   3.406  0.00  0.00    -0.379 OA
ATOM     28  H   UNL     1     -38.222  27.450   3.561  0.00  0.00    +0.211 HD
ENDBRANCH  22  27
BRANCH  23  29
ATOM     29  O   UNL     1     -35.769  27.505   3.731  0.00  0.00    -0.379 OA
ATOM     30  H   UNL     1     -36.023  27.729   2.822  0.00  0.00    +0.211 HD
ENDBRANCH  23  29
BRANCH  24  31
ATOM     31  O   UNL     1     -38.457  23.888   2.090  0.00  0.00    -0.377 OA
ATOM     32  H   UNL     1     -38.630  22.935   2.143  0.00  0.00    +0.211 HD
ENDBRANCH  24  31
BRANCH  25  33
ATOM     33  C   UNL     1     -33.902  25.541   4.915  0.00  0.00    +0.169 C 
BRANCH  33  34
ATOM     34  O   UNL     1     -34.474  26.318   5.953  0.00  0.00    -0.379 OA
ATOM     35  H   UNL     1     -34.073  26.069   6.800  0.00  0.00    +0.211 HD
ENDBRANCH  33  34
ENDBRANCH  25  33
ENDBRANCH  20  26
ENDBRANCH   3  20
TORSDOF 9
ENDMDL
MODEL 8
REMARK VINA RESULT:      -6.8      2.759      8.587
REMARK  Name = 5490092
REMARK  9 active torsions:
REMARK  status: ('A' for Active; 'I' for Inactive)
REMARK    1  A    between atoms: C_3  and  O_20
REMARK    2  A    between atoms: C_8  and  O_18
REMARK    3  A    between atoms: C_10  and  C_12
REMARK    4  A    between atoms: O_20  and  C_26
REMARK    5  A    between atoms: C_22  and  O_27
REMARK    6  A    between atoms: C_23  and  O_29
REMARK    7  A    between atoms: C_24  and  O_31
REMARK    8  A    between atoms: C_25  and  C_33
REMARK    9  A    between atoms: C_33  and  O_34
REMARK                            x       y       z     vdW  Elec       q    Type
REMARK                         _______ _______ _______ _____ _____    ______ ____
ROOT
ATOM      1  O   UNL     1     -35.201  24.711   2.088  0.00  0.00    -0.453 OA
ATOM      2  O   UNL     1     -35.884  23.430   5.894  0.00  0.00    -0.286 OA
ATOM      3  C   UNL     1     -34.977  21.119   1.521  0.00  0.00    +0.147 C 
ATOM      4  C   UNL     1     -34.979  22.497   1.301  0.00  0.00    +0.075 C 
ATOM      5  C   UNL     1     -35.206  20.613   2.801  0.00  0.00    +0.074 C 
ATOM      6  C   UNL     1     -35.211  23.368   2.364  0.00  0.00    +0.154 C 
ATOM      7  C   UNL     1     -35.440  22.862   3.644  0.00  0.00    +0.107 C 
ATOM      8  C   UNL     1     -35.438  21.483   3.867  0.00  0.00    +0.143 C 
ATOM      9  C   UNL     1     -35.679  23.803   4.748  0.00  0.00    +0.205 C 
ATOM     10  C   UNL     1     -35.435  25.602   3.125  0.00  0.00    +0.148 C 
ATOM     11  C   UNL     1     -35.660  25.238   4.396  0.00  0.00    +0.080 C 
ENDROOT
BRANCH  10  12
ATOM     12  C   UNL     1     -35.395  27.021   2.716  0.00  0.00    +0.035 C 
ATOM     13  C   UNL     1     -34.454  27.886   3.281  0.00  0.00    +0.003 C 
ATOM     14  C   UNL     1     -36.296  27.504   1.765  0.00  0.00    +0.003 C 
ATOM     15  C   UNL     1     -34.415  29.227   2.896  0.00  0.00    +0.000 C 
ATOM     16  C   UNL     1     -36.258  28.845   1.380  0.00  0.00    +0.000 C 
ATOM     17  C   UNL     1     -35.317  29.706   1.945  0.00  0.00    +0.000 C 
ENDBRANCH  10  12
BRANCH   8  18
ATOM     18  O   UNL     1     -35.656  20.940   5.097  0.00  0.00    -0.505 OA
ATOM     19  H   UNL     1     -35.984  21.473   5.793  0.00  0.00    +0.292 HD
ENDBRANCH   8  18
BRANCH   3  20
ATOM     20  O   UNL     1     -34.750  20.264   0.482  0.00  0.00    -0.450 OA
BRANCH  20  26
ATOM     21  O   UNL     1     -32.696  19.158   0.546  0.00  0.00    -0.316 OA
ATOM     22  C   UNL     1     -33.955  16.617   0.087  0.00  0.00    +0.173 C 
ATOM     23  C   UNL     1     -32.444  16.817  -0.030  0.00  0.00    +0.169 C 
ATOM     24  C   UNL     1     -34.702  17.940  -0.078  0.00  0.00    +0.210 C 
ATOM     25  C   UNL     1     -31.976  17.966   0.866  0.00  0.00    +0.177 C 
ATOM     26  C   UNL     1     -34.094  19.036   0.798  0.00  0.00    +0.318 C 
BRANCH  22  27
ATOM     27  O   UNL     1     -34.361  15.710  -0.937  0.00  0.00    -0.379 OA
ATOM     28  H   UNL     1     -34.607  16.207  -1.733  0.00  0.00    +0.211 HD
ENDBRANCH  22  27
BRANCH  23  29
ATOM     29  O   UNL     1     -31.778  15.618   0.356  0.00  0.00    -0.379 OA
ATOM     30  H   UNL     1     -32.358  14.859   0.188  0.00  0.00    +0.211 HD
ENDBRANCH  23  29
BRANCH  24  31
ATOM     31  O   UNL     1     -36.066  17.765   0.308  0.00  0.00    -0.377 OA
ATOM     32  H   UNL     1     -36.642  18.210  -0.333  0.00  0.00    +0.211 HD
ENDBRANCH  24  31
BRANCH  25  33
ATOM     33  C   UNL     1     -30.492  18.262   0.678  0.00  0.00    +0.169 C 
BRANCH  33  34
ATOM     34  O   UNL     1     -29.746  17.334   1.445  0.00  0.00    -0.379 OA
ATOM     35  H   UNL     1     -28.810  17.390   1.199  0.00  0.00    +0.211 HD
ENDBRANCH  33  34
ENDBRANCH  25  33
ENDBRANCH  20  26
ENDBRANCH   3  20
TORSDOF 9
ENDMDL
MODEL 9
REMARK VINA RESULT:      -6.8      4.209      7.724
REMARK  Name = 5490092
REMARK  9 active torsions:
REMARK  status: ('A' for Active; 'I' for Inactive)
REMARK    1  A    between atoms: C_3  and  O_20
REMARK    2  A    between atoms: C_8  and  O_18
REMARK    3  A    between atoms: C_10  and  C_12
REMARK    4  A    between atoms: O_20  and  C_26
REMARK    5  A    between atoms: C_22  and  O_27
REMARK    6  A    between atoms: C_23  and  O_29
REMARK    7  A    between atoms: C_24  and  O_31
REMARK    8  A    between atoms: C_25  and  C_33
REMARK    9  A    between atoms: C_33  and  O_34
REMARK                            x       y       z     vdW  Elec       q    Type
REMARK                         _______ _______ _______ _____ _____    ______ ____
ROOT
ATOM      1  O   UNL     1     -36.594  25.346   3.746  0.00  0.00    -0.453 OA
ATOM      2  O   UNL     1     -35.688  21.419   3.151  0.00  0.00    -0.286 OA
ATOM      3  C   UNL     1     -39.795  24.224   2.415  0.00  0.00    +0.147 C 
ATOM      4  C   UNL     1     -38.791  25.040   2.938  0.00  0.00    +0.075 C 
ATOM      5  C   UNL     1     -39.551  22.869   2.189  0.00  0.00    +0.074 C 
ATOM      6  C   UNL     1     -37.541  24.496   3.235  0.00  0.00    +0.154 C 
ATOM      7  C   UNL     1     -37.298  23.142   3.008  0.00  0.00    +0.107 C 
ATOM      8  C   UNL     1     -38.302  22.323   2.484  0.00  0.00    +0.143 C 
ATOM      9  C   UNL     1     -35.971  22.595   3.327  0.00  0.00    +0.205 C 
ATOM     10  C   UNL     1     -35.343  24.832   4.056  0.00  0.00    +0.148 C 
ATOM     11  C   UNL     1     -34.988  23.551   3.877  0.00  0.00    +0.080 C 
ENDROOT
BRANCH  10  12
ATOM     12  C   UNL     1     -34.400  25.834   4.593  0.00  0.00    +0.035 C 
ATOM     13  C   UNL     1     -34.141  25.888   5.965  0.00  0.00    +0.003 C 
ATOM     14  C   UNL     1     -33.763  26.731   3.733  0.00  0.00    +0.003 C 
ATOM     15  C   UNL     1     -33.250  26.833   6.474  0.00  0.00    +0.000 C 
ATOM     16  C   UNL     1     -32.873  27.678   4.241  0.00  0.00    +0.000 C 
ATOM     17  C   UNL     1     -32.616  27.728   5.612  0.00  0.00    +0.000 C 
ENDBRANCH  10  12
BRANCH   8  18
ATOM     18  O   UNL     1     -38.114  20.995   2.245  0.00  0.00    -0.505 OA
ATOM     19  H   UNL     1     -37.549  20.720   1.551  0.00  0.00    +0.292 HD
ENDBRANCH   8  18
BRANCH   3  20
ATOM     20  O   UNL     1     -41.019  24.753   2.124  0.00  0.00    -0.450 OA
BRANCH  20  26
ATOM     21  O   UNL     1     -42.039  26.581   3.155  0.00  0.00    -0.316 OA
ATOM     22  C   UNL     1     -41.884  28.135   0.745  0.00  0.00    +0.173 C 
ATOM     23  C   UNL     1     -42.742  28.556   1.938  0.00  0.00    +0.169 C 
ATOM     24  C   UNL     1     -41.604  26.633   0.767  0.00  0.00    +0.210 C 
ATOM     25  C   UNL     1     -42.166  28.002   3.244  0.00  0.00    +0.177 C 
ATOM     26  C   UNL     1     -41.119  26.177   2.144  0.00  0.00    +0.318 C 
BRANCH  22  27
ATOM     27  O   UNL     1     -42.592  28.469  -0.449  0.00  0.00    -0.379 OA
ATOM     28  H   UNL     1     -42.668  29.434  -0.522  0.00  0.00    +0.211 HD
ENDBRANCH  22  27
BRANCH  23  29
ATOM     29  O   UNL     1     -42.786  29.978   2.009  0.00  0.00    -0.379 OA
ATOM     30  H   UNL     1     -43.398  30.316   1.337  0.00  0.00    +0.211 HD
ENDBRANCH  23  29
BRANCH  24  31
ATOM     31  O   UNL     1     -40.588  26.326  -0.189  0.00  0.00    -0.377 OA
ATOM     32  H   UNL     1     -40.541  25.365  -0.312  0.00  0.00    +0.211 HD
ENDBRANCH  24  31
BRANCH  25  33
ATOM     33  C   UNL     1     -43.069  28.309   4.434  0.00  0.00    +0.169 C 
BRANCH  33  34
ATOM     34  O   UNL     1     -42.542  29.429   5.123  0.00  0.00    -0.379 OA
ATOM     35  H   UNL     1     -43.246  29.850   5.640  0.00  0.00    +0.211 HD
ENDBRANCH  33  34
ENDBRANCH  25  33
ENDBRANCH  20  26
ENDBRANCH   3  20
TORSDOF 9
ENDMDL
