MODEL 1
REMARK VINA RESULT:      -6.1      0.000      0.000
REMARK  Name = 53240406
REMARK  7 active torsions:
REMARK  status: ('A' for Active; 'I' for Inactive)
REMARK    1  A    between atoms: C_3  and  C_12
REMARK    2  A    between atoms: C_4  and  N_7
REMARK    3  A    between atoms: C_4  and  C_16
REMARK    4  A    between atoms: C_5  and  S_19
REMARK    5  A    between atoms: C_12  and  O_13
REMARK    6  A    between atoms: C_16  and  O_17
REMARK    7  A    between atoms: S_19  and  C_23
REMARK                            x       y       z     vdW  Elec       q    Type
REMARK                         _______ _______ _______ _____ _____    ______ ____
ROOT
ATOM      1  C   UNL     1     -37.028  23.791   4.326  0.00  0.00    +0.004 C 
ATOM      2  C   UNL     1     -36.368  25.130   4.447  0.00  0.00    +0.020 C 
ATOM      3  C   UNL     1     -37.326  24.867   3.314  0.00  0.00    +0.098 C 
ATOM      4  C   UNL     1     -35.951  22.755   4.114  0.00  0.00    +0.044 C 
ATOM      5  C   UNL     1     -34.882  24.925   4.329  0.00  0.00    +0.054 C 
ATOM      6  C   UNL     1     -34.722  23.559   3.628  0.00  0.00    +0.002 C 
ENDROOT
BRANCH   4   7
ATOM      7  N   UNL     1     -36.368  21.734   3.162  0.00  0.00    +0.390 N 
ATOM      8  H   UNL     1     -35.903  20.853   3.384  0.00  0.00    -0.088 HD
ATOM      9  H   UNL     1     -36.111  22.026   2.219  0.00  0.00    -0.088 HD
ATOM     10  H   UNL     1     -37.378  21.610   3.218  0.00  0.00    -0.088 HD
ENDBRANCH   4   7
BRANCH   3  12
ATOM     11  O   UNL     1     -38.812  26.533   2.539  0.00  0.00    -0.250 OA
ATOM     12  C   UNL     1     -38.635  25.526   3.207  0.00  0.00    +0.313 C 
BRANCH  12  13
ATOM     13  O   UNL     1     -39.593  24.888   3.922  0.00  0.00    -0.480 OA
ATOM     14  H   UNL     1     -40.472  25.215   3.923  0.00  0.00    +0.295 HD
ENDBRANCH  12  13
ENDBRANCH   3  12
BRANCH   4  16
ATOM     15  O   UNL     1     -35.850  22.496   6.491  0.00  0.00    -0.253 OA
ATOM     16  C   UNL     1     -35.632  22.023   5.386  0.00  0.00    +0.294 C 
BRANCH  16  17
ATOM     17  O   UNL     1     -35.085  20.805   5.157  0.00  0.00    -0.482 OA
ATOM     18  H   UNL     1     -34.357  20.514   5.669  0.00  0.00    +0.295 HD
ENDBRANCH  16  17
ENDBRANCH   4  16
BRANCH   5  19
ATOM     19  S   UNL     1     -34.097  26.276   3.427  0.00  0.00    -0.080 S 
BRANCH  19  23
ATOM     20  N   UNL     1     -32.899  28.462   4.614  0.00  0.00    -0.213 N 
ATOM     21  N   UNL     1     -32.892  26.712   5.923  0.00  0.00    -0.200 NA
ATOM     22  N   UNL     1     -32.285  28.908   5.720  0.00  0.00    -0.157 NA
ATOM     23  C   UNL     1     -33.257  27.156   4.742  0.00  0.00    +0.176 C 
ATOM     24  C   UNL     1     -32.306  27.812   6.481  0.00  0.00    +0.219 C 
ATOM     25  H   UNL     1     -33.069  29.010   3.814  0.00  0.00    +0.177 HD
ENDBRANCH  19  23
ENDBRANCH   5  19
TORSDOF 7
ENDMDL
MODEL 2
REMARK VINA RESULT:      -6.0      1.701      3.936
REMARK  Name = 53240406
REMARK  7 active torsions:
REMARK  status: ('A' for Active; 'I' for Inactive)
REMARK    1  A    between atoms: C_3  and  C_12
REMARK    2  A    between atoms: C_4  and  N_7
REMARK    3  A    between atoms: C_4  and  C_16
REMARK    4  A    between atoms: C_5  and  S_19
REMARK    5  A    between atoms: C_12  and  O_13
REMARK    6  A    between atoms: C_16  and  O_17
REMARK    7  A    between atoms: S_19  and  C_23
REMARK                            x       y       z     vdW  Elec       q    Type
REMARK                         _______ _______ _______ _____ _____    ______ ____
ROOT
ATOM      1  C   UNL     1     -35.992  23.884   3.778  0.00  0.00    +0.004 C 
ATOM      2  C   UNL     1     -34.658  24.231   4.361  0.00  0.00    +0.020 C 
ATOM      3  C   UNL     1     -35.533  23.213   5.047  0.00  0.00    +0.098 C 
ATOM      4  C   UNL     1     -36.844  25.130   3.783  0.00  0.00    +0.044 C 
ATOM      5  C   UNL     1     -34.672  25.693   4.712  0.00  0.00    +0.054 C 
ATOM      6  C   UNL     1     -36.166  26.065   4.813  0.00  0.00    +0.002 C 
ENDROOT
BRANCH   4   7
ATOM      7  N   UNL     1     -38.230  24.833   4.119  0.00  0.00    +0.390 N 
ATOM      8  H   UNL     1     -38.344  24.845   5.133  0.00  0.00    -0.088 HD
ATOM      9  H   UNL     1     -38.475  23.910   3.761  0.00  0.00    -0.088 HD
ATOM     10  H   UNL     1     -38.839  25.535   3.700  0.00  0.00    -0.088 HD
ENDBRANCH   4   7
BRANCH   3  12
ATOM     11  O   UNL     1     -35.353  21.022   4.182  0.00  0.00    -0.250 OA
ATOM     12  C   UNL     1     -35.191  21.786   5.121  0.00  0.00    +0.313 C 
BRANCH  12  13
ATOM     13  O   UNL     1     -34.685  21.439   6.329  0.00  0.00    -0.480 OA
ATOM     14  H   UNL     1     -33.964  21.917   6.689  0.00  0.00    +0.295 HD
ENDBRANCH  12  13
ENDBRANCH   3  12
BRANCH   4  16
ATOM     15  O   UNL     1     -36.437  25.237   1.427  0.00  0.00    -0.253 OA
ATOM     16  C   UNL     1     -36.881  25.778   2.429  0.00  0.00    +0.294 C 
BRANCH  16  17
ATOM     17  O   UNL     1     -37.455  27.004   2.459  0.00  0.00    -0.482 OA
ATOM     18  H   UNL     1     -38.262  27.133   2.918  0.00  0.00    +0.295 HD
ENDBRANCH  16  17
ENDBRANCH   4  16
BRANCH   5  19
ATOM     19  S   UNL     1     -33.760  26.019   6.234  0.00  0.00    -0.080 S 
BRANCH  19  23
ATOM     20  N   UNL     1     -32.166  28.214   6.752  0.00  0.00    -0.213 N 
ATOM     21  N   UNL     1     -32.817  28.146   4.667  0.00  0.00    -0.200 NA
ATOM     22  N   UNL     1     -31.603  29.308   6.218  0.00  0.00    -0.157 NA
ATOM     23  C   UNL     1     -32.887  27.529   5.823  0.00  0.00    +0.176 C 
ATOM     24  C   UNL     1     -32.026  29.221   4.955  0.00  0.00    +0.219 C 
ATOM     25  H   UNL     1     -32.071  27.942   7.693  0.00  0.00    +0.177 HD
ENDBRANCH  19  23
ENDBRANCH   5  19
TORSDOF 7
ENDMDL
MODEL 3
REMARK VINA RESULT:      -5.9      2.713      6.539
REMARK  Name = 53240406
REMARK  7 active torsions:
REMARK  status: ('A' for Active; 'I' for Inactive)
REMARK    1  A    between atoms: C_3  and  C_12
REMARK    2  A    between atoms: C_4  and  N_7
REMARK    3  A    between atoms: C_4  and  C_16
REMARK    4  A    between atoms: C_5  and  S_19
REMARK    5  A    between atoms: C_12  and  O_13
REMARK    6  A    between atoms: C_16  and  O_17
REMARK    7  A    between atoms: S_19  and  C_23
REMARK                            x       y       z     vdW  Elec       q    Type
REMARK                         _______ _______ _______ _____ _____    ______ ____
ROOT
ATOM      1  C   UNL     1     -35.530  24.219   4.781  0.00  0.00    +0.004 C 
ATOM      2  C   UNL     1     -36.387  23.259   4.016  0.00  0.00    +0.020 C 
ATOM      3  C   UNL     1     -35.168  22.756   4.746  0.00  0.00    +0.098 C 
ATOM      4  C   UNL     1     -34.958  25.218   3.805  0.00  0.00    +0.044 C 
ATOM      5  C   UNL     1     -36.364  23.671   2.569  0.00  0.00    +0.054 C 
ATOM      6  C   UNL     1     -35.097  24.540   2.421  0.00  0.00    +0.002 C 
ENDROOT
BRANCH   4   7
ATOM      7  N   UNL     1     -33.580  25.559   4.129  0.00  0.00    +0.390 N 
ATOM      8  H   UNL     1     -33.363  25.236   5.072  0.00  0.00    -0.088 HD
ATOM      9  H   UNL     1     -33.461  26.571   4.081  0.00  0.00    -0.088 HD
ATOM     10  H   UNL     1     -32.953  25.109   3.462  0.00  0.00    -0.088 HD
ENDBRANCH   4   7
BRANCH   3  12
ATOM     11  O   UNL     1     -35.405  22.316   7.055  0.00  0.00    -0.250 OA
ATOM     12  C   UNL     1     -35.248  21.882   5.924  0.00  0.00    +0.313 C 
BRANCH  12  13
ATOM     13  O   UNL     1     -35.130  20.572   5.603  0.00  0.00    -0.480 OA
ATOM     14  H   UNL     1     -35.736  20.179   5.005  0.00  0.00    +0.295 HD
ENDBRANCH  12  13
ENDBRANCH   3  12
BRANCH   4  16
ATOM     15  O   UNL     1     -35.677  27.323   2.920  0.00  0.00    -0.253 OA
ATOM     16  C   UNL     1     -35.718  26.514   3.835  0.00  0.00    +0.294 C 
BRANCH  16  17
ATOM     17  O   UNL     1     -36.435  26.665   4.974  0.00  0.00    -0.482 OA
ATOM     18  H   UNL     1     -37.308  26.331   5.026  0.00  0.00    +0.295 HD
ENDBRANCH  16  17
ENDBRANCH   4  16
BRANCH   5  19
ATOM     19  S   UNL     1     -36.368  22.239   1.472  0.00  0.00    -0.080 S 
BRANCH  19  23
ATOM     20  N   UNL     1     -38.858  21.260   2.157  0.00  0.00    -0.213 N 
ATOM     21  N   UNL     1     -38.894  22.337   0.255  0.00  0.00    -0.200 NA
ATOM     22  N   UNL     1     -40.142  21.172   1.778  0.00  0.00    -0.157 NA
ATOM     23  C   UNL     1     -38.123  21.953   1.246  0.00  0.00    +0.176 C 
ATOM     24  C   UNL     1     -40.111  21.840   0.623  0.00  0.00    +0.219 C 
ATOM     25  H   UNL     1     -38.495  20.873   2.986  0.00  0.00    +0.177 HD
ENDBRANCH  19  23
ENDBRANCH   5  19
TORSDOF 7
ENDMDL
MODEL 4
REMARK VINA RESULT:      -5.7      2.681      4.032
REMARK  Name = 53240406
REMARK  7 active torsions:
REMARK  status: ('A' for Active; 'I' for Inactive)
REMARK    1  A    between atoms: C_3  and  C_12
REMARK    2  A    between atoms: C_4  and  N_7
REMARK    3  A    between atoms: C_4  and  C_16
REMARK    4  A    between atoms: C_5  and  S_19
REMARK    5  A    between atoms: C_12  and  O_13
REMARK    6  A    between atoms: C_16  and  O_17
REMARK    7  A    between atoms: S_19  and  C_23
REMARK                            x       y       z     vdW  Elec       q    Type
REMARK                         _______ _______ _______ _____ _____    ______ ____
ROOT
ATOM      1  C   UNL     1     -35.545  21.571   3.150  0.00  0.00    +0.004 C 
ATOM      2  C   UNL     1     -35.282  23.030   3.360  0.00  0.00    +0.020 C 
ATOM      3  C   UNL     1     -36.006  22.239   4.420  0.00  0.00    +0.098 C 
ATOM      4  C   UNL     1     -36.438  21.424   1.942  0.00  0.00    +0.044 C 
ATOM      5  C   UNL     1     -35.995  23.789   2.274  0.00  0.00    +0.054 C 
ATOM      6  C   UNL     1     -37.078  22.820   1.754  0.00  0.00    +0.002 C 
ENDROOT
BRANCH   4   7
ATOM      7  N   UNL     1     -37.427  20.372   2.128  0.00  0.00    +0.390 N 
ATOM      8  H   UNL     1     -36.999  19.586   2.617  0.00  0.00    -0.088 HD
ATOM      9  H   UNL     1     -37.767  20.062   1.217  0.00  0.00    -0.088 HD
ATOM     10  H   UNL     1     -38.206  20.731   2.678  0.00  0.00    -0.088 HD
ENDBRANCH   4   7
BRANCH   3  12
ATOM     11  O   UNL     1     -35.187  22.819   6.559  0.00  0.00    -0.250 OA
ATOM     12  C   UNL     1     -35.422  21.948   5.736  0.00  0.00    +0.313 C 
BRANCH  12  13
ATOM     13  O   UNL     1     -35.188  20.625   5.914  0.00  0.00    -0.480 OA
ATOM     14  H   UNL     1     -35.361  20.021   5.219  0.00  0.00    +0.295 HD
ENDBRANCH  12  13
ENDBRANCH   3  12
BRANCH   4  16
ATOM     15  O   UNL     1     -35.963  21.401  -0.404  0.00  0.00    -0.253 OA
ATOM     16  C   UNL     1     -35.653  21.037   0.720  0.00  0.00    +0.294 C 
BRANCH  16  17
ATOM     17  O   UNL     1     -34.588  20.255   1.018  0.00  0.00    -0.482 OA
ATOM     18  H   UNL     1     -34.696  19.328   1.103  0.00  0.00    +0.295 HD
ENDBRANCH  16  17
ENDBRANCH   4  16
BRANCH   5  19
ATOM     19  S   UNL     1     -36.674  25.342   2.888  0.00  0.00    -0.080 S 
BRANCH  19  23
ATOM     20  N   UNL     1     -35.529  25.781   5.362  0.00  0.00    -0.213 N 
ATOM     21  N   UNL     1     -34.226  26.422   3.730  0.00  0.00    -0.200 NA
ATOM     22  N   UNL     1     -34.446  26.250   6.000  0.00  0.00    -0.157 NA
ATOM     23  C   UNL     1     -35.390  25.887   4.013  0.00  0.00    +0.176 C 
ATOM     24  C   UNL     1     -33.687  26.625   4.968  0.00  0.00    +0.219 C 
ATOM     25  H   UNL     1     -36.321  25.408   5.812  0.00  0.00    +0.177 HD
ENDBRANCH  19  23
ENDBRANCH   5  19
TORSDOF 7
ENDMDL
MODEL 5
REMARK VINA RESULT:      -5.6      3.948      5.306
REMARK  Name = 53240406
REMARK  7 active torsions:
REMARK  status: ('A' for Active; 'I' for Inactive)
REMARK    1  A    between atoms: C_3  and  C_12
REMARK    2  A    between atoms: C_4  and  N_7
REMARK    3  A    between atoms: C_4  and  C_16
REMARK    4  A    between atoms: C_5  and  S_19
REMARK    5  A    between atoms: C_12  and  O_13
REMARK    6  A    between atoms: C_16  and  O_17
REMARK    7  A    between atoms: S_19  and  C_23
REMARK                            x       y       z     vdW  Elec       q    Type
REMARK                         _______ _______ _______ _____ _____    ______ ____
ROOT
ATOM      1  C   UNL     1     -35.646  21.722   3.153  0.00  0.00    +0.004 C 
ATOM      2  C   UNL     1     -35.135  23.101   3.437  0.00  0.00    +0.020 C 
ATOM      3  C   UNL     1     -35.965  22.383   4.470  0.00  0.00    +0.098 C 
ATOM      4  C   UNL     1     -36.571  21.800   1.963  0.00  0.00    +0.044 C 
ATOM      5  C   UNL     1     -35.726  24.032   2.414  0.00  0.00    +0.054 C 
ATOM      6  C   UNL     1     -36.967  23.293   1.870  0.00  0.00    +0.002 C 
ENDROOT
BRANCH   4   7
ATOM      7  N   UNL     1     -37.721  20.921   2.117  0.00  0.00    +0.390 N 
ATOM      8  H   UNL     1     -38.469  21.228   1.496  0.00  0.00    -0.088 HD
ATOM      9  H   UNL     1     -38.046  20.954   3.083  0.00  0.00    -0.088 HD
ATOM     10  H   UNL     1     -37.453  19.966   1.881  0.00  0.00    -0.088 HD
ENDBRANCH   4   7
BRANCH   3  12
ATOM     11  O   UNL     1     -35.189  22.678   6.682  0.00  0.00    -0.250 OA
ATOM     12  C   UNL     1     -35.418  21.920   5.752  0.00  0.00    +0.313 C 
BRANCH  12  13
ATOM     13  O   UNL     1     -35.208  20.582   5.770  0.00  0.00    -0.480 OA
ATOM     14  H   UNL     1     -35.615  20.035   5.127  0.00  0.00    +0.295 HD
ENDBRANCH  12  13
ENDBRANCH   3  12
BRANCH   4  16
ATOM     15  O   UNL     1     -34.820  20.758   0.707  0.00  0.00    -0.253 OA
ATOM     16  C   UNL     1     -35.884  21.359   0.702  0.00  0.00    +0.294 C 
BRANCH  16  17
ATOM     17  O   UNL     1     -36.576  21.703  -0.410  0.00  0.00    -0.482 OA
ATOM     18  H   UNL     1     -37.204  21.111  -0.773  0.00  0.00    +0.295 HD
ENDBRANCH  16  17
ENDBRANCH   4  16
BRANCH   5  19
ATOM     19  S   UNL     1     -36.121  25.639   3.130  0.00  0.00    -0.080 S 
BRANCH  19  23
ATOM     20  N   UNL     1     -38.611  24.782   3.961  0.00  0.00    -0.213 N 
ATOM     21  N   UNL     1     -38.747  26.316   2.411  0.00  0.00    -0.200 NA
ATOM     22  N   UNL     1     -39.933  24.932   3.792  0.00  0.00    -0.157 NA
ATOM     23  C   UNL     1     -37.913  25.608   3.137  0.00  0.00    +0.176 C 
ATOM     24  C   UNL     1     -39.963  25.871   2.844  0.00  0.00    +0.219 C 
ATOM     25  H   UNL     1     -38.200  24.156   4.600  0.00  0.00    +0.177 HD
ENDBRANCH  19  23
ENDBRANCH   5  19
TORSDOF 7
ENDMDL
MODEL 6
REMARK VINA RESULT:      -5.5      2.696      3.972
REMARK  Name = 53240406
REMARK  7 active torsions:
REMARK  status: ('A' for Active; 'I' for Inactive)
REMARK    1  A    between atoms: C_3  and  C_12
REMARK    2  A    between atoms: C_4  and  N_7
REMARK    3  A    between atoms: C_4  and  C_16
REMARK    4  A    between atoms: C_5  and  S_19
REMARK    5  A    between atoms: C_12  and  O_13
REMARK    6  A    between atoms: C_16  and  O_17
REMARK    7  A    between atoms: S_19  and  C_23
REMARK                            x       y       z     vdW  Elec       q    Type
REMARK                         _______ _______ _______ _____ _____    ______ ____
ROOT
ATOM      1  C   UNL     1     -35.398  21.573   3.297  0.00  0.00    +0.004 C 
ATOM      2  C   UNL     1     -35.171  23.020   2.985  0.00  0.00    +0.020 C 
ATOM      3  C   UNL     1     -36.092  22.633   4.115  0.00  0.00    +0.098 C 
ATOM      4  C   UNL     1     -36.041  20.929   2.094  0.00  0.00    +0.044 C 
ATOM      5  C   UNL     1     -35.655  23.272   1.584  0.00  0.00    +0.054 C 
ATOM      6  C   UNL     1     -36.624  22.109   1.280  0.00  0.00    +0.002 C 
ENDROOT
BRANCH   4   7
ATOM      7  N   UNL     1     -37.054  19.957   2.480  0.00  0.00    +0.390 N 
ATOM      8  H   UNL     1     -36.793  19.036   2.129  0.00  0.00    -0.088 HD
ATOM      9  H   UNL     1     -37.954  20.230   2.084  0.00  0.00    -0.088 HD
ATOM     10  H   UNL     1     -37.125  19.926   3.497  0.00  0.00    -0.088 HD
ENDBRANCH   4   7
BRANCH   3  12
ATOM     11  O   UNL     1     -35.874  22.033   6.390  0.00  0.00    -0.250 OA
ATOM     12  C   UNL     1     -35.775  22.891   5.526  0.00  0.00    +0.313 C 
BRANCH  12  13
ATOM     13  O   UNL     1     -35.370  24.166   5.739  0.00  0.00    -0.480 OA
ATOM     14  H   UNL     1     -35.263  24.483   6.614  0.00  0.00    +0.295 HD
ENDBRANCH  12  13
ENDBRANCH   3  12
BRANCH   4  16
ATOM     15  O   UNL     1     -34.996  20.239   0.053  0.00  0.00    -0.253 OA
ATOM     16  C   UNL     1     -35.038  20.170   1.273  0.00  0.00    +0.294 C 
BRANCH  16  17
ATOM     17  O   UNL     1     -34.208  19.420   2.037  0.00  0.00    -0.482 OA
ATOM     18  H   UNL     1     -34.557  18.742   2.581  0.00  0.00    +0.295 HD
ENDBRANCH  16  17
ENDBRANCH   4  16
BRANCH   5  19
ATOM     19  S   UNL     1     -36.431  24.893   1.432  0.00  0.00    -0.080 S 
BRANCH  19  23
ATOM     20  N   UNL     1     -36.032  26.328   3.757  0.00  0.00    -0.213 N 
ATOM     21  N   UNL     1     -34.229  26.243   2.525  0.00  0.00    -0.200 NA
ATOM     22  N   UNL     1     -35.138  27.028   4.471  0.00  0.00    -0.157 NA
ATOM     23  C   UNL     1     -35.484  25.865   2.601  0.00  0.00    +0.176 C 
ATOM     24  C   UNL     1     -34.064  26.947   3.684  0.00  0.00    +0.219 C 
ATOM     25  H   UNL     1     -36.964  26.170   4.033  0.00  0.00    +0.177 HD
ENDBRANCH  19  23
ENDBRANCH   5  19
TORSDOF 7
ENDMDL
MODEL 7
REMARK VINA RESULT:      -5.5      2.750      5.746
REMARK  Name = 53240406
REMARK  7 active torsions:
REMARK  status: ('A' for Active; 'I' for Inactive)
REMARK    1  A    between atoms: C_3  and  C_12
REMARK    2  A    between atoms: C_4  and  N_7
REMARK    3  A    between atoms: C_4  and  C_16
REMARK    4  A    between atoms: C_5  and  S_19
REMARK    5  A    between atoms: C_12  and  O_13
REMARK    6  A    between atoms: C_16  and  O_17
REMARK    7  A    between atoms: S_19  and  C_23
REMARK                            x       y       z     vdW  Elec       q    Type
REMARK                         _______ _______ _______ _____ _____    ______ ____
ROOT
ATOM      1  C   UNL     1     -34.656  24.405   5.035  0.00  0.00    +0.004 C 
ATOM      2  C   UNL     1     -36.146  24.281   5.100  0.00  0.00    +0.020 C 
ATOM      3  C   UNL     1     -35.324  23.146   4.546  0.00  0.00    +0.098 C 
ATOM      4  C   UNL     1     -34.319  25.554   4.116  0.00  0.00    +0.044 C 
ATOM      5  C   UNL     1     -36.737  25.362   4.237  0.00  0.00    +0.054 C 
ATOM      6  C   UNL     1     -35.601  25.774   3.277  0.00  0.00    +0.002 C 
ENDROOT
BRANCH   4   7
ATOM      7  N   UNL     1     -33.153  25.262   3.295  0.00  0.00    +0.390 N 
ATOM      8  H   UNL     1     -33.230  24.318   2.918  0.00  0.00    -0.088 HD
ATOM      9  H   UNL     1     -32.310  25.332   3.867  0.00  0.00    -0.088 HD
ATOM     10  H   UNL     1     -33.100  25.933   2.529  0.00  0.00    -0.088 HD
ENDBRANCH   4   7
BRANCH   3  12
ATOM     11  O   UNL     1     -34.787  21.750   6.375  0.00  0.00    -0.250 OA
ATOM     12  C   UNL     1     -35.190  21.851   5.226  0.00  0.00    +0.313 C 
BRANCH  12  13
ATOM     13  O   UNL     1     -35.562  20.813   4.439  0.00  0.00    -0.480 OA
ATOM     14  H   UNL     1     -35.885  20.974   3.573  0.00  0.00    +0.295 HD
ENDBRANCH  12  13
ENDBRANCH   3  12
BRANCH   4  16
ATOM     15  O   UNL     1     -33.686  26.774   6.075  0.00  0.00    -0.253 OA
ATOM     16  C   UNL     1     -33.977  26.796   4.889  0.00  0.00    +0.294 C 
BRANCH  16  17
ATOM     17  O   UNL     1     -34.030  27.911   4.122  0.00  0.00    -0.482 OA
ATOM     18  H   UNL     1     -33.274  28.187   3.643  0.00  0.00    +0.295 HD
ENDBRANCH  16  17
ENDBRANCH   4  16
BRANCH   5  19
ATOM     19  S   UNL     1     -38.214  24.788   3.375  0.00  0.00    -0.080 S 
BRANCH  19  23
ATOM     20  N   UNL     1     -37.854  22.124   2.743  0.00  0.00    -0.213 N 
ATOM     21  N   UNL     1     -36.801  23.446   1.358  0.00  0.00    -0.200 NA
ATOM     22  N   UNL     1     -37.267  21.271   1.891  0.00  0.00    -0.157 NA
ATOM     23  C   UNL     1     -37.572  23.415   2.420  0.00  0.00    +0.176 C 
ATOM     24  C   UNL     1     -36.643  22.120   1.072  0.00  0.00    +0.219 C 
ATOM     25  H   UNL     1     -38.416  21.852   3.504  0.00  0.00    +0.177 HD
ENDBRANCH  19  23
ENDBRANCH   5  19
TORSDOF 7
ENDMDL
MODEL 8
REMARK VINA RESULT:      -5.5      2.813      6.112
REMARK  Name = 53240406
REMARK  7 active torsions:
REMARK  status: ('A' for Active; 'I' for Inactive)
REMARK    1  A    between atoms: C_3  and  C_12
REMARK    2  A    between atoms: C_4  and  N_7
REMARK    3  A    between atoms: C_4  and  C_16
REMARK    4  A    between atoms: C_5  and  S_19
REMARK    5  A    between atoms: C_12  and  O_13
REMARK    6  A    between atoms: C_16  and  O_17
REMARK    7  A    between atoms: S_19  and  C_23
REMARK                            x       y       z     vdW  Elec       q    Type
REMARK                         _______ _______ _______ _____ _____    ______ ____
ROOT
ATOM      1  C   UNL     1     -37.024  23.790   4.050  0.00  0.00    +0.004 C 
ATOM      2  C   UNL     1     -36.545  22.965   2.897  0.00  0.00    +0.020 C 
ATOM      3  C   UNL     1     -35.734  23.021   4.166  0.00  0.00    +0.098 C 
ATOM      4  C   UNL     1     -37.071  25.233   3.609  0.00  0.00    +0.044 C 
ATOM      5  C   UNL     1     -36.311  23.889   1.733  0.00  0.00    +0.054 C 
ATOM      6  C   UNL     1     -36.157  25.291   2.361  0.00  0.00    +0.002 C 
ENDROOT
BRANCH   4   7
ATOM      7  N   UNL     1     -36.636  26.134   4.667  0.00  0.00    +0.390 N 
ATOM      8  H   UNL     1     -36.215  25.593   5.422  0.00  0.00    -0.088 HD
ATOM      9  H   UNL     1     -37.441  26.648   5.026  0.00  0.00    -0.088 HD
ATOM     10  H   UNL     1     -35.951  26.791   4.294  0.00  0.00    -0.088 HD
ENDBRANCH   4   7
BRANCH   3  12
ATOM     11  O   UNL     1     -35.011  20.837   4.704  0.00  0.00    -0.250 OA
ATOM     12  C   UNL     1     -35.567  21.865   5.058  0.00  0.00    +0.313 C 
BRANCH  12  13
ATOM     13  O   UNL     1     -36.093  22.082   6.287  0.00  0.00    -0.480 OA
ATOM     14  H   UNL     1     -35.530  22.126   7.036  0.00  0.00    +0.295 HD
ENDBRANCH  12  13
ENDBRANCH   3  12
BRANCH   4  16
ATOM     15  O   UNL     1     -38.704  26.559   2.467  0.00  0.00    -0.253 OA
ATOM     16  C   UNL     1     -38.468  25.657   3.258  0.00  0.00    +0.294 C 
BRANCH  16  17
ATOM     17  O   UNL     1     -39.407  24.932   3.911  0.00  0.00    -0.482 OA
ATOM     18  H   UNL     1     -40.285  24.899   3.586  0.00  0.00    +0.295 HD
ENDBRANCH  16  17
ENDBRANCH   4  16
BRANCH   5  19
ATOM     19  S   UNL     1     -34.872  23.388   0.768  0.00  0.00    -0.080 S 
BRANCH  19  23
ATOM     20  N   UNL     1     -34.325  20.795   1.542  0.00  0.00    -0.213 N 
ATOM     21  N   UNL     1     -35.854  20.881  -0.017  0.00  0.00    -0.200 NA
ATOM     22  N   UNL     1     -34.631  19.504   1.340  0.00  0.00    -0.157 NA
ATOM     23  C   UNL     1     -35.056  21.606   0.731  0.00  0.00    +0.176 C 
ATOM     24  C   UNL     1     -35.561  19.610   0.388  0.00  0.00    +0.219 C 
ATOM     25  H   UNL     1     -33.658  21.113   2.192  0.00  0.00    +0.177 HD
ENDBRANCH  19  23
ENDBRANCH   5  19
TORSDOF 7
ENDMDL
MODEL 9
REMARK VINA RESULT:      -5.5      2.946      5.539
REMARK  Name = 53240406
REMARK  7 active torsions:
REMARK  status: ('A' for Active; 'I' for Inactive)
REMARK    1  A    between atoms: C_3  and  C_12
REMARK    2  A    between atoms: C_4  and  N_7
REMARK    3  A    between atoms: C_4  and  C_16
REMARK    4  A    between atoms: C_5  and  S_19
REMARK    5  A    between atoms: C_12  and  O_13
REMARK    6  A    between atoms: C_16  and  O_17
REMARK    7  A    between atoms: S_19  and  C_23
REMARK                            x       y       z     vdW  Elec       q    Type
REMARK                         _______ _______ _______ _____ _____    ______ ____
ROOT
ATOM      1  C   UNL     1     -36.287  25.264   3.434  0.00  0.00    +0.004 C 
ATOM      2  C   UNL     1     -35.895  23.856   3.110  0.00  0.00    +0.020 C 
ATOM      3  C   UNL     1     -37.350  24.204   3.299  0.00  0.00    +0.098 C 
ATOM      4  C   UNL     1     -35.671  25.629   4.763  0.00  0.00    +0.044 C 
ATOM      5  C   UNL     1     -35.021  23.351   4.225  0.00  0.00    +0.054 C 
ATOM      6  C   UNL     1     -35.332  24.272   5.424  0.00  0.00    +0.002 C 
ENDROOT
BRANCH   4   7
ATOM      7  N   UNL     1     -36.572  26.439   5.570  0.00  0.00    +0.390 N 
ATOM      8  H   UNL     1     -36.035  26.946   6.273  0.00  0.00    -0.088 HD
ATOM      9  H   UNL     1     -37.251  25.833   6.031  0.00  0.00    -0.088 HD
ATOM     10  H   UNL     1     -37.060  27.104   4.970  0.00  0.00    -0.088 HD
ENDBRANCH   4   7
BRANCH   3  12
ATOM     11  O   UNL     1     -38.804  25.200   1.726  0.00  0.00    -0.250 OA
ATOM     12  C   UNL     1     -38.325  24.182   2.201  0.00  0.00    +0.313 C 
BRANCH  12  13
ATOM     13  O   UNL     1     -38.613  22.923   1.792  0.00  0.00    -0.480 OA
ATOM     14  H   UNL     1     -38.418  22.659   0.914  0.00  0.00    +0.295 HD
ENDBRANCH  12  13
ENDBRANCH   3  12
BRANCH   4  16
ATOM     15  O   UNL     1     -33.351  26.134   5.070  0.00  0.00    -0.253 OA
ATOM     16  C   UNL     1     -34.427  26.453   4.586  0.00  0.00    +0.294 C 
BRANCH  16  17
ATOM     17  O   UNL     1     -34.645  27.562   3.840  0.00  0.00    -0.482 OA
ATOM     18  H   UNL     1     -35.492  27.720   3.471  0.00  0.00    +0.295 HD
ENDBRANCH  16  17
ENDBRANCH   4  16
BRANCH   5  19
ATOM     19  S   UNL     1     -35.333  21.610   4.574  0.00  0.00    -0.080 S 
BRANCH  19  23
ATOM     20  N   UNL     1     -36.940  20.586   2.575  0.00  0.00    -0.213 N 
ATOM     21  N   UNL     1     -34.858  20.776   1.938  0.00  0.00    -0.200 NA
ATOM     22  N   UNL     1     -36.963  20.136   1.312  0.00  0.00    -0.157 NA
ATOM     23  C   UNL     1     -35.685  20.964   2.940  0.00  0.00    +0.176 C 
ATOM     24  C   UNL     1     -35.679  20.271   0.971  0.00  0.00    +0.219 C 
ATOM     25  H   UNL     1     -37.729  20.636   3.162  0.00  0.00    +0.177 HD
ENDBRANCH  19  23
ENDBRANCH   5  19
TORSDOF 7
ENDMDL
