MODEL 1
REMARK VINA RESULT:      -6.4      0.000      0.000
REMARK  Name = 19150
REMARK  9 active torsions:
REMARK  status: ('A' for Active; 'I' for Inactive)
REMARK    1  A    between atoms: CA_5  and  N_11
REMARK    2  A    between atoms: CA_7  and  C_26
REMARK    3  A    between atoms: C_8  and  C_29
REMARK    4  A    between atoms: C_12  and  CA_14
REMARK    5  A    between atoms: CA_14  and  C_15
REMARK    6  A    between atoms: CA_14  and  N_21
REMARK    7  A    between atoms: C_26  and  O_27
REMARK    8  A    between atoms: C_29  and  O_30
REMARK    9  A    between atoms: O_30  and  C_32
REMARK                            x       y       z     vdW  Elec       q    Type
REMARK                         _______ _______ _______ _____ _____    ______ ____
ROOT
ATOM      1  S   UNL     1     -34.492  24.408   2.013  0.00  0.00    -0.114 S 
ATOM      2  O   UNL     1     -38.963  23.342   2.711  0.00  0.00    -0.273 OA
ATOM      3  N   UNL     1     -37.022  24.679   2.773  0.00  0.00    -0.242 N 
ATOM      4  C   UNL     1     -35.783  24.083   3.237  0.00  0.00    +0.155 C 
ATOM      5  CA  UNL     1     -36.507  22.724   3.127  0.00  0.00    +0.178 C 
ATOM      6  C   UNL     1     -37.786  23.569   2.863  0.00  0.00    +0.251 C 
ATOM      7  CA  UNL     1     -37.144  25.981   2.409  0.00  0.00    +0.127 C 
ATOM      8  C   UNL     1     -36.057  26.754   2.171  0.00  0.00    +0.030 C 
ATOM      9  C   UNL     1     -34.626  26.220   2.190  0.00  0.00    +0.086 C 
ENDROOT
BRANCH   5  11
ATOM     10  O   UNL     1     -35.078  20.226   3.299  0.00  0.00    -0.277 OA
ATOM     11  N   UNL     1     -36.157  21.831   2.021  0.00  0.00    -0.298 N 
ATOM     12  C   UNL     1     -35.460  20.636   2.205  0.00  0.00    +0.206 C 
ATOM     13  H   UNL     1     -36.426  22.085   1.109  0.00  0.00    +0.150 HD
BRANCH  12  14
ATOM     14  CA  UNL     1     -35.198  19.895   0.898  0.00  0.00    +0.036 C 
BRANCH  14  15
ATOM     15  C   UNL     1     -33.728  19.558   0.754  0.00  0.00    -0.034 C 
ATOM     16  C   UNL     1     -33.270  18.335   1.208  0.00  0.00    -0.006 C 
ATOM     17  C   UNL     1     -32.878  20.481   0.170  0.00  0.00    -0.006 C 
ATOM     18  C   UNL     1     -31.917  18.023   1.075  0.00  0.00    -0.000 C 
ATOM     19  C   UNL     1     -31.526  20.171   0.037  0.00  0.00    -0.000 C 
ATOM     20  C   UNL     1     -31.044  18.941   0.490  0.00  0.00    -0.000 C 
ENDBRANCH  14  15
BRANCH  14  21
ATOM     21  N   UNL     1     -36.049  18.702   0.883  0.00  0.00    +0.390 N 
ATOM     22  H1  UNL     1     -35.610  17.965   1.435  0.00  0.00    -0.088 HD
ATOM     23  H2  UNL     1     -36.168  18.381  -0.078  0.00  0.00    -0.088 HD
ATOM     24  H3  UNL     1     -36.961  18.928   1.281  0.00  0.00    -0.088 HD
ENDBRANCH  14  21
ENDBRANCH  12  14
ENDBRANCH   5  11
BRANCH   7  26
ATOM     25  OXT UNL     1     -38.959  26.869   1.156  0.00  0.00    -0.244 OA
ATOM     26  C   UNL     1     -38.508  26.497   2.220  0.00  0.00    +0.352 C 
BRANCH  26  27
ATOM     27  O   UNL     1     -39.157  26.486   3.401  0.00  0.00    -0.476 OA
ATOM     28  H   UNL     1     -38.709  26.218   4.180  0.00  0.00    +0.295 HD
ENDBRANCH  26  27
ENDBRANCH   7  26
BRANCH   8  29
ATOM     29  C   UNL     1     -36.108  28.227   1.844  0.00  0.00    +0.233 C 
BRANCH  29  30
ATOM     30  O   UNL     1     -34.811  28.776   1.950  0.00  0.00    -0.444 OA
BRANCH  30  32
ATOM     31  O   UNL     1     -33.831  29.848   3.745  0.00  0.00    -0.250 OA
ATOM     32  C   UNL     1     -34.660  29.802   2.847  0.00  0.00    +0.318 C 
ATOM     33  C   UNL     1     -35.662  30.881   2.574  0.00  0.00    +0.121 C 
ENDBRANCH  30  32
ENDBRANCH  29  30
ENDBRANCH   8  29
TORSDOF 9
ENDMDL
MODEL 2
REMARK VINA RESULT:      -6.2      4.651      9.380
REMARK  Name = 19150
REMARK  9 active torsions:
REMARK  status: ('A' for Active; 'I' for Inactive)
REMARK    1  A    between atoms: CA_5  and  N_11
REMARK    2  A    between atoms: CA_7  and  C_26
REMARK    3  A    between atoms: C_8  and  C_29
REMARK    4  A    between atoms: C_12  and  CA_14
REMARK    5  A    between atoms: CA_14  and  C_15
REMARK    6  A    between atoms: CA_14  and  N_21
REMARK    7  A    between atoms: C_26  and  O_27
REMARK    8  A    between atoms: C_29  and  O_30
REMARK    9  A    between atoms: O_30  and  C_32
REMARK                            x       y       z     vdW  Elec       q    Type
REMARK                         _______ _______ _______ _____ _____    ______ ____
ROOT
ATOM      1  S   UNL     1     -39.049  25.810   2.965  0.00  0.00    -0.114 S 
ATOM      2  O   UNL     1     -41.773  23.109   0.339  0.00  0.00    -0.273 OA
ATOM      3  N   UNL     1     -39.755  23.877   1.286  0.00  0.00    -0.242 N 
ATOM      4  C   UNL     1     -39.487  25.304   1.286  0.00  0.00    +0.155 C 
ATOM      5  CA  UNL     1     -40.965  25.484   0.878  0.00  0.00    +0.178 C 
ATOM      6  C   UNL     1     -40.980  23.937   0.720  0.00  0.00    +0.251 C 
ATOM      7  CA  UNL     1     -38.891  22.947   1.764  0.00  0.00    +0.127 C 
ATOM      8  C   UNL     1     -37.838  23.293   2.543  0.00  0.00    +0.030 C 
ATOM      9  C   UNL     1     -37.587  24.719   3.031  0.00  0.00    +0.086 C 
ENDROOT
BRANCH   5  11
ATOM     10  O   UNL     1     -42.949  27.544   0.516  0.00  0.00    -0.277 OA
ATOM     11  N   UNL     1     -41.912  25.980   1.877  0.00  0.00    -0.298 N 
ATOM     12  C   UNL     1     -42.841  26.987   1.606  0.00  0.00    +0.206 C 
ATOM     13  H   UNL     1     -41.894  25.585   2.779  0.00  0.00    +0.150 HD
BRANCH  12  14
ATOM     14  CA  UNL     1     -43.700  27.341   2.815  0.00  0.00    +0.036 C 
BRANCH  14  15
ATOM     15  C   UNL     1     -44.767  26.291   3.045  0.00  0.00    -0.034 C 
ATOM     16  C   UNL     1     -45.468  26.292   4.237  0.00  0.00    -0.006 C 
ATOM     17  C   UNL     1     -45.016  25.354   2.057  0.00  0.00    -0.006 C 
ATOM     18  C   UNL     1     -46.451  25.325   4.449  0.00  0.00    -0.000 C 
ATOM     19  C   UNL     1     -45.999  24.388   2.268  0.00  0.00    -0.000 C 
ATOM     20  C   UNL     1     -46.716  24.372   3.465  0.00  0.00    -0.000 C 
ENDBRANCH  14  15
BRANCH  14  21
ATOM     21  N   UNL     1     -42.809  27.494   3.968  0.00  0.00    +0.390 N 
ATOM     22  H1  UNL     1     -42.358  28.407   3.931  0.00  0.00    -0.088 HD
ATOM     23  H2  UNL     1     -42.097  26.763   3.946  0.00  0.00    -0.088 HD
ATOM     24  H3  UNL     1     -43.349  27.416   4.829  0.00  0.00    -0.088 HD
ENDBRANCH  14  21
ENDBRANCH  12  14
ENDBRANCH   5  11
BRANCH   7  26
ATOM     25  OXT UNL     1     -38.773  20.954   0.474  0.00  0.00    -0.244 OA
ATOM     26  C   UNL     1     -39.185  21.540   1.454  0.00  0.00    +0.352 C 
BRANCH  26  27
ATOM     27  O   UNL     1     -39.973  21.025   2.419  0.00  0.00    -0.476 OA
ATOM     28  H   UNL     1     -40.075  20.096   2.495  0.00  0.00    +0.295 HD
ENDBRANCH  26  27
ENDBRANCH   7  26
BRANCH   8  29
ATOM     29  C   UNL     1     -36.788  22.330   3.044  0.00  0.00    +0.233 C 
BRANCH  29  30
ATOM     30  O   UNL     1     -36.487  22.624   4.392  0.00  0.00    -0.444 OA
BRANCH  30  32
ATOM     31  O   UNL     1     -35.084  20.794   4.515  0.00  0.00    -0.250 OA
ATOM     32  C   UNL     1     -35.564  21.811   4.997  0.00  0.00    +0.318 C 
ATOM     33  C   UNL     1     -35.211  22.345   6.352  0.00  0.00    +0.121 C 
ENDBRANCH  30  32
ENDBRANCH  29  30
ENDBRANCH   8  29
TORSDOF 9
ENDMDL
MODEL 3
REMARK VINA RESULT:      -6.2      3.429      8.930
REMARK  Name = 19150
REMARK  9 active torsions:
REMARK  status: ('A' for Active; 'I' for Inactive)
REMARK    1  A    between atoms: CA_5  and  N_11
REMARK    2  A    between atoms: CA_7  and  C_26
REMARK    3  A    between atoms: C_8  and  C_29
REMARK    4  A    between atoms: C_12  and  CA_14
REMARK    5  A    between atoms: CA_14  and  C_15
REMARK    6  A    between atoms: CA_14  and  N_21
REMARK    7  A    between atoms: C_26  and  O_27
REMARK    8  A    between atoms: C_29  and  O_30
REMARK    9  A    between atoms: O_30  and  C_32
REMARK                            x       y       z     vdW  Elec       q    Type
REMARK                         _______ _______ _______ _____ _____    ______ ____
ROOT
ATOM      1  S   UNL     1     -34.604  26.208   1.583  0.00  0.00    -0.114 S 
ATOM      2  O   UNL     1     -39.177  27.017   1.805  0.00  0.00    -0.273 OA
ATOM      3  N   UNL     1     -37.216  25.728   1.574  0.00  0.00    -0.242 N 
ATOM      4  C   UNL     1     -36.173  26.205   0.684  0.00  0.00    +0.155 C 
ATOM      5  CA  UNL     1     -36.946  27.541   0.649  0.00  0.00    +0.178 C 
ATOM      6  C   UNL     1     -38.058  26.773   1.420  0.00  0.00    +0.251 C 
ATOM      7  CA  UNL     1     -37.150  24.556   2.254  0.00  0.00    +0.127 C 
ATOM      8  C   UNL     1     -35.985  23.878   2.385  0.00  0.00    +0.030 C 
ATOM      9  C   UNL     1     -34.644  24.407   1.880  0.00  0.00    +0.086 C 
ENDROOT
BRANCH   5  11
ATOM     10  O   UNL     1     -35.978  30.019  -0.459  0.00  0.00    -0.277 OA
ATOM     11  N   UNL     1     -36.406  28.683   1.387  0.00  0.00    -0.298 N 
ATOM     12  C   UNL     1     -35.959  29.847   0.758  0.00  0.00    +0.206 C 
ATOM     13  H   UNL     1     -36.356  28.628   2.368  0.00  0.00    +0.150 HD
BRANCH  12  14
ATOM     14  CA  UNL     1     -35.422  30.882   1.740  0.00  0.00    +0.036 C 
BRANCH  14  15
ATOM     15  C   UNL     1     -36.149  32.202   1.583  0.00  0.00    -0.034 C 
ATOM     16  C   UNL     1     -37.502  32.264   1.861  0.00  0.00    -0.006 C 
ATOM     17  C   UNL     1     -35.442  33.316   1.166  0.00  0.00    -0.006 C 
ATOM     18  C   UNL     1     -38.172  33.479   1.717  0.00  0.00    -0.000 C 
ATOM     19  C   UNL     1     -36.110  34.531   1.022  0.00  0.00    -0.000 C 
ATOM     20  C   UNL     1     -37.476  34.613   1.297  0.00  0.00    -0.000 C 
ENDBRANCH  14  15
BRANCH  14  21
ATOM     21  N   UNL     1     -35.556  30.329   3.091  0.00  0.00    +0.390 N 
ATOM     22  H1  UNL     1     -36.003  31.016   3.697  0.00  0.00    -0.088 HD
ATOM     23  H2  UNL     1     -34.631  30.103   3.459  0.00  0.00    -0.088 HD
ATOM     24  H3  UNL     1     -36.125  29.483   3.058  0.00  0.00    -0.088 HD
ENDBRANCH  14  21
ENDBRANCH  12  14
ENDBRANCH   5  11
BRANCH   7  26
ATOM     25  OXT UNL     1     -39.115  23.230   2.441  0.00  0.00    -0.244 OA
ATOM     26  C   UNL     1     -38.387  24.087   2.898  0.00  0.00    +0.352 C 
BRANCH  26  27
ATOM     27  O   UNL     1     -38.570  24.757   4.053  0.00  0.00    -0.476 OA
ATOM     28  H   UNL     1     -37.993  24.610   4.777  0.00  0.00    +0.295 HD
ENDBRANCH  26  27
ENDBRANCH   7  26
BRANCH   8  29
ATOM     29  C   UNL     1     -35.847  22.531   3.054  0.00  0.00    +0.233 C 
BRANCH  29  30
ATOM     30  O   UNL     1     -34.987  22.647   4.168  0.00  0.00    -0.444 OA
BRANCH  30  32
ATOM     31  O   UNL     1     -36.123  24.058   5.602  0.00  0.00    -0.250 OA
ATOM     32  C   UNL     1     -35.580  22.989   5.356  0.00  0.00    +0.318 C 
ATOM     33  C   UNL     1     -35.476  21.858   6.333  0.00  0.00    +0.121 C 
ENDBRANCH  30  32
ENDBRANCH  29  30
ENDBRANCH   8  29
TORSDOF 9
ENDMDL
MODEL 4
REMARK VINA RESULT:      -6.1      2.229      3.737
REMARK  Name = 19150
REMARK  9 active torsions:
REMARK  status: ('A' for Active; 'I' for Inactive)
REMARK    1  A    between atoms: CA_5  and  N_11
REMARK    2  A    between atoms: CA_7  and  C_26
REMARK    3  A    between atoms: C_8  and  C_29
REMARK    4  A    between atoms: C_12  and  CA_14
REMARK    5  A    between atoms: CA_14  and  C_15
REMARK    6  A    between atoms: CA_14  and  N_21
REMARK    7  A    between atoms: C_26  and  O_27
REMARK    8  A    between atoms: C_29  and  O_30
REMARK    9  A    between atoms: O_30  and  C_32
REMARK                            x       y       z     vdW  Elec       q    Type
REMARK                         _______ _______ _______ _____ _____    ______ ____
ROOT
ATOM      1  S   UNL     1     -35.100  24.156   3.718  0.00  0.00    -0.114 S 
ATOM      2  O   UNL     1     -37.821  27.229   1.535  0.00  0.00    -0.273 OA
ATOM      3  N   UNL     1     -36.190  26.489   3.068  0.00  0.00    -0.242 N 
ATOM      4  C   UNL     1     -36.477  25.317   3.875  0.00  0.00    +0.155 C 
ATOM      5  CA  UNL     1     -37.682  25.084   2.938  0.00  0.00    +0.178 C 
ATOM      6  C   UNL     1     -37.335  26.483   2.351  0.00  0.00    +0.251 C 
ATOM      7  CA  UNL     1     -35.048  27.216   3.171  0.00  0.00    +0.127 C 
ATOM      8  C   UNL     1     -33.963  26.739   3.827  0.00  0.00    +0.030 C 
ATOM      9  C   UNL     1     -33.886  25.330   4.411  0.00  0.00    +0.086 C 
ENDROOT
BRANCH   5  11
ATOM     10  O   UNL     1     -39.277  22.684   2.876  0.00  0.00    -0.277 OA
ATOM     11  N   UNL     1     -37.606  24.003   1.955  0.00  0.00    -0.298 N 
ATOM     12  C   UNL     1     -38.425  22.874   2.009  0.00  0.00    +0.206 C 
ATOM     13  H   UNL     1     -36.950  24.076   1.225  0.00  0.00    +0.150 HD
BRANCH  12  14
ATOM     14  CA  UNL     1     -38.141  21.882   0.887  0.00  0.00    +0.036 C 
BRANCH  14  15
ATOM     15  C   UNL     1     -36.716  21.373   0.964  0.00  0.00    -0.034 C 
ATOM     16  C   UNL     1     -35.853  21.624  -0.086  0.00  0.00    -0.006 C 
ATOM     17  C   UNL     1     -36.311  20.669   2.085  0.00  0.00    -0.006 C 
ATOM     18  C   UNL     1     -34.541  21.156  -0.015  0.00  0.00    -0.000 C 
ATOM     19  C   UNL     1     -35.000  20.201   2.157  0.00  0.00    -0.000 C 
ATOM     20  C   UNL     1     -34.114  20.443   1.106  0.00  0.00    -0.000 C 
ENDBRANCH  14  15
BRANCH  14  21
ATOM     21  N   UNL     1     -39.126  20.801   0.986  0.00  0.00    +0.390 N 
ATOM     22  H1  UNL     1     -38.709  19.930   0.658  0.00  0.00    -0.088 HD
ATOM     23  H2  UNL     1     -39.938  21.026   0.410  0.00  0.00    -0.088 HD
ATOM     24  H3  UNL     1     -39.418  20.693   1.957  0.00  0.00    -0.088 HD
ENDBRANCH  14  21
ENDBRANCH  12  14
ENDBRANCH   5  11
BRANCH   7  26
ATOM     25  OXT UNL     1     -34.760  28.663   1.307  0.00  0.00    -0.244 OA
ATOM     26  C   UNL     1     -35.020  28.516   2.484  0.00  0.00    +0.352 C 
BRANCH  26  27
ATOM     27  O   UNL     1     -35.325  29.492   3.361  0.00  0.00    -0.476 OA
ATOM     28  H   UNL     1     -34.649  30.045   3.702  0.00  0.00    +0.295 HD
ENDBRANCH  26  27
ENDBRANCH   7  26
BRANCH   8  29
ATOM     29  C   UNL     1     -32.689  27.518   4.055  0.00  0.00    +0.233 C 
BRANCH  29  30
ATOM     30  O   UNL     1     -32.872  28.410   5.134  0.00  0.00    -0.444 OA
BRANCH  30  32
ATOM     31  O   UNL     1     -31.092  27.603   6.364  0.00  0.00    -0.250 OA
ATOM     32  C   UNL     1     -31.827  28.516   6.015  0.00  0.00    +0.318 C 
ATOM     33  C   UNL     1     -31.700  29.928   6.501  0.00  0.00    +0.121 C 
ENDBRANCH  30  32
ENDBRANCH  29  30
ENDBRANCH   8  29
TORSDOF 9
ENDMDL
MODEL 5
REMARK VINA RESULT:      -6.1      1.312      1.966
REMARK  Name = 19150
REMARK  9 active torsions:
REMARK  status: ('A' for Active; 'I' for Inactive)
REMARK    1  A    between atoms: CA_5  and  N_11
REMARK    2  A    between atoms: CA_7  and  C_26
REMARK    3  A    between atoms: C_8  and  C_29
REMARK    4  A    between atoms: C_12  and  CA_14
REMARK    5  A    between atoms: CA_14  and  C_15
REMARK    6  A    between atoms: CA_14  and  N_21
REMARK    7  A    between atoms: C_26  and  O_27
REMARK    8  A    between atoms: C_29  and  O_30
REMARK    9  A    between atoms: O_30  and  C_32
REMARK                            x       y       z     vdW  Elec       q    Type
REMARK                         _______ _______ _______ _____ _____    ______ ____
ROOT
ATOM      1  S   UNL     1     -34.205  24.785   1.533  0.00  0.00    -0.114 S 
ATOM      2  O   UNL     1     -38.312  23.293   3.118  0.00  0.00    -0.273 OA
ATOM      3  N   UNL     1     -36.569  24.835   2.741  0.00  0.00    -0.242 N 
ATOM      4  C   UNL     1     -35.203  24.414   2.993  0.00  0.00    +0.155 C 
ATOM      5  CA  UNL     1     -35.765  22.979   3.094  0.00  0.00    +0.178 C 
ATOM      6  C   UNL     1     -37.164  23.658   3.032  0.00  0.00    +0.251 C 
ATOM      7  CA  UNL     1     -36.911  26.085   2.338  0.00  0.00    +0.127 C 
ATOM      8  C   UNL     1     -35.987  26.952   1.859  0.00  0.00    +0.030 C 
ATOM      9  C   UNL     1     -34.522  26.580   1.635  0.00  0.00    +0.086 C 
ENDROOT
BRANCH   5  11
ATOM     10  O   UNL     1     -35.093  20.184   3.299  0.00  0.00    -0.277 OA
ATOM     11  N   UNL     1     -35.517  22.050   1.991  0.00  0.00    -0.298 N 
ATOM     12  C   UNL     1     -35.196  20.707   2.191  0.00  0.00    +0.206 C 
ATOM     13  H   UNL     1     -35.580  22.388   1.068  0.00  0.00    +0.150 HD
BRANCH  12  14
ATOM     14  CA  UNL     1     -34.964  19.952   0.887  0.00  0.00    +0.036 C 
BRANCH  14  15
ATOM     15  C   UNL     1     -33.508  19.559   0.743  0.00  0.00    -0.034 C 
ATOM     16  C   UNL     1     -32.644  20.406   0.073  0.00  0.00    -0.006 C 
ATOM     17  C   UNL     1     -33.075  18.361   1.285  0.00  0.00    -0.006 C 
ATOM     18  C   UNL     1     -31.303  20.045  -0.059  0.00  0.00    -0.000 C 
ATOM     19  C   UNL     1     -31.735  18.000   1.153  0.00  0.00    -0.000 C 
ATOM     20  C   UNL     1     -30.848  18.841   0.480  0.00  0.00    -0.000 C 
ENDBRANCH  14  15
BRANCH  14  21
ATOM     21  N   UNL     1     -35.858  18.792   0.876  0.00  0.00    +0.390 N 
ATOM     22  H1  UNL     1     -35.986  18.452   1.829  0.00  0.00    -0.088 HD
ATOM     23  H2  UNL     1     -35.450  18.052   0.304  0.00  0.00    -0.088 HD
ATOM     24  H3  UNL     1     -36.763  19.061   0.488  0.00  0.00    -0.088 HD
ENDBRANCH  14  21
ENDBRANCH  12  14
ENDBRANCH   5  11
BRANCH   7  26
ATOM     25  OXT UNL     1     -39.010  26.701   1.408  0.00  0.00    -0.244 OA
ATOM     26  C   UNL     1     -38.339  26.433   2.384  0.00  0.00    +0.352 C 
BRANCH  26  27
ATOM     27  O   UNL     1     -38.765  26.406   3.662  0.00  0.00    -0.476 OA
ATOM     28  H   UNL     1     -39.470  25.839   3.910  0.00  0.00    +0.295 HD
ENDBRANCH  26  27
ENDBRANCH   7  26
BRANCH   8  29
ATOM     29  C   UNL     1     -36.274  28.382   1.470  0.00  0.00    +0.233 C 
BRANCH  29  30
ATOM     30  O   UNL     1     -36.477  28.457   0.074  0.00  0.00    -0.444 OA
BRANCH  30  32
ATOM     31  O   UNL     1     -38.251  29.905   0.367  0.00  0.00    -0.250 OA
ATOM     32  C   UNL     1     -37.445  29.329  -0.350  0.00  0.00    +0.318 C 
ATOM     33  C   UNL     1     -37.383  29.489  -1.839  0.00  0.00    +0.121 C 
ENDBRANCH  30  32
ENDBRANCH  29  30
ENDBRANCH   8  29
TORSDOF 9
ENDMDL
MODEL 6
REMARK VINA RESULT:      -6.1      3.626      8.091
REMARK  Name = 19150
REMARK  9 active torsions:
REMARK  status: ('A' for Active; 'I' for Inactive)
REMARK    1  A    between atoms: CA_5  and  N_11
REMARK    2  A    between atoms: CA_7  and  C_26
REMARK    3  A    between atoms: C_8  and  C_29
REMARK    4  A    between atoms: C_12  and  CA_14
REMARK    5  A    between atoms: CA_14  and  C_15
REMARK    6  A    between atoms: CA_14  and  N_21
REMARK    7  A    between atoms: C_26  and  O_27
REMARK    8  A    between atoms: C_29  and  O_30
REMARK    9  A    between atoms: O_30  and  C_32
REMARK                            x       y       z     vdW  Elec       q    Type
REMARK                         _______ _______ _______ _____ _____    ______ ____
ROOT
ATOM      1  S   UNL     1     -33.265  25.543   2.096  0.00  0.00    -0.114 S 
ATOM      2  O   UNL     1     -36.513  25.771   5.415  0.00  0.00    -0.273 OA
ATOM      3  N   UNL     1     -35.615  25.251   3.297  0.00  0.00    -0.242 N 
ATOM      4  C   UNL     1     -34.843  26.266   2.603  0.00  0.00    +0.155 C 
ATOM      5  CA  UNL     1     -34.845  27.044   3.937  0.00  0.00    +0.178 C 
ATOM      6  C   UNL     1     -35.852  25.962   4.421  0.00  0.00    +0.251 C 
ATOM      7  CA  UNL     1     -35.891  24.027   2.780  0.00  0.00    +0.127 C 
ATOM      8  C   UNL     1     -35.225  23.548   1.702  0.00  0.00    +0.030 C 
ATOM      9  C   UNL     1     -34.056  24.278   1.044  0.00  0.00    +0.086 C 
ENDROOT
BRANCH   5  11
ATOM     10  O   UNL     1     -33.091  29.304   4.283  0.00  0.00    -0.277 OA
ATOM     11  N   UNL     1     -33.612  27.088   4.723  0.00  0.00    -0.298 N 
ATOM     12  C   UNL     1     -32.825  28.236   4.832  0.00  0.00    +0.206 C 
ATOM     13  H   UNL     1     -33.326  26.274   5.197  0.00  0.00    +0.150 HD
BRANCH  12  14
ATOM     14  CA  UNL     1     -31.582  28.024   5.689  0.00  0.00    +0.036 C 
BRANCH  14  15
ATOM     15  C   UNL     1     -30.423  28.853   5.174  0.00  0.00    -0.034 C 
ATOM     16  C   UNL     1     -30.049  29.991   5.865  0.00  0.00    -0.006 C 
ATOM     17  C   UNL     1     -29.765  28.452   4.024  0.00  0.00    -0.006 C 
ATOM     18  C   UNL     1     -28.982  30.755   5.391  0.00  0.00    -0.000 C 
ATOM     19  C   UNL     1     -28.699  29.215   3.550  0.00  0.00    -0.000 C 
ATOM     20  C   UNL     1     -28.307  30.367   4.233  0.00  0.00    -0.000 C 
ENDBRANCH  14  15
BRANCH  14  21
ATOM     21  N   UNL     1     -31.932  28.354   7.073  0.00  0.00    +0.390 N 
ATOM     22  H1  UNL     1     -32.926  28.575   7.129  0.00  0.00    -0.088 HD
ATOM     23  H2  UNL     1     -31.387  29.161   7.379  0.00  0.00    -0.088 HD
ATOM     24  H3  UNL     1     -31.727  27.557   7.676  0.00  0.00    -0.088 HD
ENDBRANCH  14  21
ENDBRANCH  12  14
ENDBRANCH   5  11
BRANCH   7  26
ATOM     25  OXT UNL     1     -38.067  23.146   3.155  0.00  0.00    -0.244 OA
ATOM     26  C   UNL     1     -36.900  23.219   3.481  0.00  0.00    +0.352 C 
BRANCH  26  27
ATOM     27  O   UNL     1     -36.322  22.588   4.522  0.00  0.00    -0.476 OA
ATOM     28  H   UNL     1     -35.433  22.297   4.460  0.00  0.00    +0.295 HD
ENDBRANCH  26  27
ENDBRANCH   7  26
BRANCH   8  29
ATOM     29  C   UNL     1     -35.529  22.235   1.021  0.00  0.00    +0.233 C 
BRANCH  29  30
ATOM     30  O   UNL     1     -34.409  21.382   1.125  0.00  0.00    -0.444 OA
BRANCH  30  32
ATOM     31  O   UNL     1     -35.244  20.254   2.959  0.00  0.00    -0.250 OA
ATOM     32  C   UNL     1     -34.549  20.298   1.953  0.00  0.00    +0.318 C 
ATOM     33  C   UNL     1     -33.725  19.152   1.452  0.00  0.00    +0.121 C 
ENDBRANCH  30  32
ENDBRANCH  29  30
ENDBRANCH   8  29
TORSDOF 9
ENDMDL
MODEL 7
REMARK VINA RESULT:      -6.0      4.210      6.323
REMARK  Name = 19150
REMARK  9 active torsions:
REMARK  status: ('A' for Active; 'I' for Inactive)
REMARK    1  A    between atoms: CA_5  and  N_11
REMARK    2  A    between atoms: CA_7  and  C_26
REMARK    3  A    between atoms: C_8  and  C_29
REMARK    4  A    between atoms: C_12  and  CA_14
REMARK    5  A    between atoms: CA_14  and  C_15
REMARK    6  A    between atoms: CA_14  and  N_21
REMARK    7  A    between atoms: C_26  and  O_27
REMARK    8  A    between atoms: C_29  and  O_30
REMARK    9  A    between atoms: O_30  and  C_32
REMARK                            x       y       z     vdW  Elec       q    Type
REMARK                         _______ _______ _______ _____ _____    ______ ____
ROOT
ATOM      1  S   UNL     1     -37.136  27.750   0.319  0.00  0.00    -0.114 S 
ATOM      2  O   UNL     1     -35.200  30.653   3.391  0.00  0.00    -0.273 OA
ATOM      3  N   UNL     1     -36.018  29.953   1.294  0.00  0.00    -0.242 N 
ATOM      4  C   UNL     1     -35.639  28.640   0.804  0.00  0.00    +0.155 C 
ATOM      5  CA  UNL     1     -35.108  28.367   2.227  0.00  0.00    +0.178 C 
ATOM      6  C   UNL     1     -35.385  29.876   2.484  0.00  0.00    +0.251 C 
ATOM      7  CA  UNL     1     -36.787  30.826   0.595  0.00  0.00    +0.127 C 
ATOM      8  C   UNL     1     -37.502  30.432  -0.486  0.00  0.00    +0.030 C 
ATOM      9  C   UNL     1     -37.590  28.979  -0.950  0.00  0.00    +0.086 C 
ENDROOT
BRANCH   5  11
ATOM     10  O   UNL     1     -34.094  26.130   3.736  0.00  0.00    -0.277 OA
ATOM     11  N   UNL     1     -35.872  27.476   3.101  0.00  0.00    -0.298 N 
ATOM     12  C   UNL     1     -35.289  26.413   3.794  0.00  0.00    +0.206 C 
ATOM     13  H   UNL     1     -36.838  27.633   3.205  0.00  0.00    +0.150 HD
BRANCH  12  14
ATOM     14  CA  UNL     1     -36.296  25.621   4.620  0.00  0.00    +0.036 C 
BRANCH  14  15
ATOM     15  C   UNL     1     -35.893  24.163   4.707  0.00  0.00    -0.034 C 
ATOM     16  C   UNL     1     -35.423  23.664   5.909  0.00  0.00    -0.006 C 
ATOM     17  C   UNL     1     -36.006  23.363   3.583  0.00  0.00    -0.006 C 
ATOM     18  C   UNL     1     -35.052  22.321   5.990  0.00  0.00    -0.000 C 
ATOM     19  C   UNL     1     -35.636  22.021   3.664  0.00  0.00    -0.000 C 
ATOM     20  C   UNL     1     -35.158  21.500   4.867  0.00  0.00    -0.000 C 
ENDBRANCH  14  15
BRANCH  14  21
ATOM     21  N   UNL     1     -36.389  26.254   5.938  0.00  0.00    +0.390 N 
ATOM     22  H1  UNL     1     -35.978  25.639   6.641  0.00  0.00    -0.088 HD
ATOM     23  H2  UNL     1     -37.369  26.422   6.167  0.00  0.00    -0.088 HD
ATOM     24  H3  UNL     1     -35.886  27.141   5.927  0.00  0.00    -0.088 HD
ENDBRANCH  14  21
ENDBRANCH  12  14
ENDBRANCH   5  11
BRANCH   7  26
ATOM     25  OXT UNL     1     -36.163  33.117   0.711  0.00  0.00    -0.244 OA
ATOM     26  C   UNL     1     -36.861  32.204   1.103  0.00  0.00    +0.352 C 
BRANCH  26  27
ATOM     27  O   UNL     1     -37.811  32.279   2.055  0.00  0.00    -0.476 OA
ATOM     28  H   UNL     1     -38.352  31.535   2.238  0.00  0.00    +0.295 HD
ENDBRANCH  26  27
ENDBRANCH   7  26
BRANCH   8  29
ATOM     29  C   UNL     1     -38.313  31.357  -1.362  0.00  0.00    +0.233 C 
BRANCH  29  30
ATOM     30  O   UNL     1     -39.688  31.112  -1.155  0.00  0.00    -0.444 OA
BRANCH  30  32
ATOM     31  O   UNL     1     -40.579  31.467   0.946  0.00  0.00    -0.250 OA
ATOM     32  C   UNL     1     -40.295  31.858  -0.178  0.00  0.00    +0.318 C 
ATOM     33  C   UNL     1     -40.569  33.244  -0.678  0.00  0.00    +0.121 C 
ENDBRANCH  30  32
ENDBRANCH  29  30
ENDBRANCH   8  29
TORSDOF 9
ENDMDL
MODEL 8
REMARK VINA RESULT:      -5.9      4.563      7.106
REMARK  Name = 19150
REMARK  9 active torsions:
REMARK  status: ('A' for Active; 'I' for Inactive)
REMARK    1  A    between atoms: CA_5  and  N_11
REMARK    2  A    between atoms: CA_7  and  C_26
REMARK    3  A    between atoms: C_8  and  C_29
REMARK    4  A    between atoms: C_12  and  CA_14
REMARK    5  A    between atoms: CA_14  and  C_15
REMARK    6  A    between atoms: CA_14  and  N_21
REMARK    7  A    between atoms: C_26  and  O_27
REMARK    8  A    between atoms: C_29  and  O_30
REMARK    9  A    between atoms: O_30  and  C_32
REMARK                            x       y       z     vdW  Elec       q    Type
REMARK                         _______ _______ _______ _____ _____    ______ ____
ROOT
ATOM      1  S   UNL     1     -32.596  28.755   4.382  0.00  0.00    -0.114 S 
ATOM      2  O   UNL     1     -32.015  25.252   1.382  0.00  0.00    -0.273 OA
ATOM      3  N   UNL     1     -31.528  27.308   2.429  0.00  0.00    -0.242 N 
ATOM      4  C   UNL     1     -32.611  28.249   2.646  0.00  0.00    +0.155 C 
ATOM      5  CA  UNL     1     -33.564  27.092   2.277  0.00  0.00    +0.178 C 
ATOM      6  C   UNL     1     -32.272  26.321   1.883  0.00  0.00    +0.251 C 
ATOM      7  CA  UNL     1     -30.235  27.556   2.755  0.00  0.00    +0.127 C 
ATOM      8  C   UNL     1     -29.896  28.581   3.574  0.00  0.00    +0.030 C 
ATOM      9  C   UNL     1     -30.921  29.471   4.274  0.00  0.00    +0.086 C 
ENDROOT
BRANCH   5  11
ATOM     10  O   UNL     1     -36.394  26.546   2.295  0.00  0.00    -0.277 OA
ATOM     11  N   UNL     1     -34.329  26.446   3.344  0.00  0.00    -0.298 N 
ATOM     12  C   UNL     1     -35.705  26.224   3.261  0.00  0.00    +0.206 C 
ATOM     13  H   UNL     1     -33.852  26.156   4.155  0.00  0.00    +0.150 HD
BRANCH  12  14
ATOM     14  CA  UNL     1     -36.273  25.555   4.507  0.00  0.00    +0.036 C 
BRANCH  14  15
ATOM     15  C   UNL     1     -35.875  24.095   4.565  0.00  0.00    -0.034 C 
ATOM     16  C   UNL     1     -35.387  23.576   5.751  0.00  0.00    -0.006 C 
ATOM     17  C   UNL     1     -36.008  23.313   3.431  0.00  0.00    -0.006 C 
ATOM     18  C   UNL     1     -35.020  22.231   5.805  0.00  0.00    -0.000 C 
ATOM     19  C   UNL     1     -35.642  21.969   3.484  0.00  0.00    -0.000 C 
ATOM     20  C   UNL     1     -35.147  21.427   4.671  0.00  0.00    -0.000 C 
ENDBRANCH  14  15
BRANCH  14  21
ATOM     21  N   UNL     1     -35.803  26.308   5.673  0.00  0.00    +0.390 N 
ATOM     22  H1  UNL     1     -36.579  26.455   6.319  0.00  0.00    -0.088 HD
ATOM     23  H2  UNL     1     -35.439  27.212   5.370  0.00  0.00    -0.088 HD
ATOM     24  H3  UNL     1     -35.064  25.785   6.142  0.00  0.00    -0.088 HD
ENDBRANCH  14  21
ENDBRANCH  12  14
ENDBRANCH   5  11
BRANCH   7  26
ATOM     25  OXT UNL     1     -28.783  26.656   1.102  0.00  0.00    -0.244 OA
ATOM     26  C   UNL     1     -29.224  26.624   2.233  0.00  0.00    +0.352 C 
BRANCH  26  27
ATOM     27  O   UNL     1     -28.880  25.751   3.200  0.00  0.00    -0.476 OA
ATOM     28  H   UNL     1     -29.387  25.698   3.986  0.00  0.00    +0.295 HD
ENDBRANCH  26  27
ENDBRANCH   7  26
BRANCH   8  29
ATOM     29  C   UNL     1     -28.478  28.971   3.917  0.00  0.00    +0.233 C 
BRANCH  29  30
ATOM     30  O   UNL     1     -28.367  29.156   5.312  0.00  0.00    -0.444 OA
BRANCH  30  32
ATOM     31  O   UNL     1     -27.998  26.896   5.614  0.00  0.00    -0.250 OA
ATOM     32  C   UNL     1     -28.077  28.037   6.049  0.00  0.00    +0.318 C 
ATOM     33  C   UNL     1     -27.863  28.403   7.486  0.00  0.00    +0.121 C 
ENDBRANCH  30  32
ENDBRANCH  29  30
ENDBRANCH   8  29
TORSDOF 9
ENDMDL
MODEL 9
REMARK VINA RESULT:      -5.8      3.213      4.857
REMARK  Name = 19150
REMARK  9 active torsions:
REMARK  status: ('A' for Active; 'I' for Inactive)
REMARK    1  A    between atoms: CA_5  and  N_11
REMARK    2  A    between atoms: CA_7  and  C_26
REMARK    3  A    between atoms: C_8  and  C_29
REMARK    4  A    between atoms: C_12  and  CA_14
REMARK    5  A    between atoms: CA_14  and  C_15
REMARK    6  A    between atoms: CA_14  and  N_21
REMARK    7  A    between atoms: C_26  and  O_27
REMARK    8  A    between atoms: C_29  and  O_30
REMARK    9  A    between atoms: O_30  and  C_32
REMARK                            x       y       z     vdW  Elec       q    Type
REMARK                         _______ _______ _______ _____ _____    ______ ____
ROOT
ATOM      1  S   UNL     1     -35.514  24.357   1.264  0.00  0.00    -0.114 S 
ATOM      2  O   UNL     1     -36.230  23.219   5.714  0.00  0.00    -0.273 OA
ATOM      3  N   UNL     1     -35.172  24.285   3.896  0.00  0.00    -0.242 N 
ATOM      4  C   UNL     1     -34.863  23.500   2.716  0.00  0.00    +0.155 C 
ATOM      5  CA  UNL     1     -35.762  22.403   3.326  0.00  0.00    +0.178 C 
ATOM      6  C   UNL     1     -35.784  23.304   4.594  0.00  0.00    +0.251 C 
ATOM      7  CA  UNL     1     -34.850  25.596   4.036  0.00  0.00    +0.127 C 
ATOM      8  C   UNL     1     -34.477  26.351   2.975  0.00  0.00    +0.030 C 
ATOM      9  C   UNL     1     -34.481  25.837   1.536  0.00  0.00    +0.086 C 
ENDROOT
BRANCH   5  11
ATOM     10  O   UNL     1     -36.494  20.379   1.410  0.00  0.00    -0.277 OA
ATOM     11  N   UNL     1     -37.086  22.179   2.745  0.00  0.00    -0.298 N 
ATOM     12  C   UNL     1     -37.344  21.167   1.819  0.00  0.00    +0.206 C 
ATOM     13  H   UNL     1     -37.826  22.767   3.021  0.00  0.00    +0.150 HD
BRANCH  12  14
ATOM     14  CA  UNL     1     -38.793  21.151   1.347  0.00  0.00    +0.036 C 
BRANCH  14  15
ATOM     15  C   UNL     1     -39.254  22.544   0.971  0.00  0.00    -0.034 C 
ATOM     16  C   UNL     1     -38.828  23.094  -0.225  0.00  0.00    -0.006 C 
ATOM     17  C   UNL     1     -40.090  23.234   1.831  0.00  0.00    -0.006 C 
ATOM     18  C   UNL     1     -39.252  24.377  -0.572  0.00  0.00    -0.000 C 
ATOM     19  C   UNL     1     -40.514  24.516   1.484  0.00  0.00    -0.000 C 
ATOM     20  C   UNL     1     -40.095  25.089   0.283  0.00  0.00    -0.000 C 
ENDBRANCH  14  15
BRANCH  14  21
ATOM     21  N   UNL     1     -38.889  20.210   0.228  0.00  0.00    +0.390 N 
ATOM     22  H1  UNL     1     -39.617  19.523   0.421  0.00  0.00    -0.088 HD
ATOM     23  H2  UNL     1     -37.995  19.732   0.108  0.00  0.00    -0.088 HD
ATOM     24  H3  UNL     1     -39.119  20.718  -0.627  0.00  0.00    -0.088 HD
ENDBRANCH  14  21
ENDBRANCH  12  14
ENDBRANCH   5  11
BRANCH   7  26
ATOM     25  OXT UNL     1     -34.073  26.312   6.166  0.00  0.00    -0.244 OA
ATOM     26  C   UNL     1     -34.988  26.177   5.380  0.00  0.00    +0.352 C 
BRANCH  26  27
ATOM     27  O   UNL     1     -36.274  26.525   5.587  0.00  0.00    -0.476 OA
ATOM     28  H   UNL     1     -36.517  26.980   6.369  0.00  0.00    +0.295 HD
ENDBRANCH  26  27
ENDBRANCH   7  26
BRANCH   8  29
ATOM     29  C   UNL     1     -34.026  27.789   3.062  0.00  0.00    +0.233 C 
BRANCH  29  30
ATOM     30  O   UNL     1     -35.147  28.620   3.275  0.00  0.00    -0.444 OA
BRANCH  30  32
ATOM     31  O   UNL     1     -35.659  29.413   1.167  0.00  0.00    -0.250 OA
ATOM     32  C   UNL     1     -35.361  29.599   2.339  0.00  0.00    +0.318 C 
ATOM     33  C   UNL     1     -35.182  30.953   2.954  0.00  0.00    +0.121 C 
ENDBRANCH  30  32
ENDBRANCH  29  30
ENDBRANCH   8  29
TORSDOF 9
ENDMDL
