MODEL 1
REMARK VINA RESULT:      -5.2      0.000      0.000
REMARK  Name = 195580
REMARK  13 active torsions:
REMARK  status: ('A' for Active; 'I' for Inactive)
REMARK    1  A    between atoms: C_1  and  C_4
REMARK    2  A    between atoms: C_1  and  N_16
REMARK    3  A    between atoms: C_9  and  S_10
REMARK    4  A    between atoms: S_10  and  N_13
REMARK    5  A    between atoms: N_16  and  C_18
REMARK    6  A    between atoms: N_16  and  C_25
REMARK    7  A    between atoms: C_18  and  C_19
REMARK    8  A    between atoms: C_19  and  O_20
REMARK    9  A    between atoms: O_20  and  C_21
REMARK   10  A    between atoms: C_21  and  C_22
REMARK   11  A    between atoms: C_22  and  O_23
REMARK   12  A    between atoms: C_25  and  C_26
REMARK   13  A    between atoms: C_26  and  O_27
REMARK                            x       y       z     vdW  Elec       q    Type
REMARK                         _______ _______ _______ _____ _____    ______ ____
ROOT
ATOM      1  C   UNL     1     -36.910  24.454   4.331  0.00  0.00    -0.043 C 
ENDROOT
BRANCH   1   4
ATOM      2  S   UNL     1     -35.058  26.217   3.249  0.00  0.00    -0.087 S 
ATOM      3  S   UNL     1     -32.623  27.920   4.035  0.00  0.00    -0.061 S 
ATOM      4  C   UNL     1     -35.712  25.329   4.580  0.00  0.00    -0.013 C 
ATOM      5  C   UNL     1     -33.996  26.421   5.526  0.00  0.00    +0.014 C 
ATOM      6  C   UNL     1     -35.045  25.527   5.763  0.00  0.00    +0.001 C 
ATOM      7  C   UNL     1     -33.891  26.855   4.262  0.00  0.00    +0.060 C 
ATOM      8  C   UNL     1     -33.039  26.930   6.410  0.00  0.00    +0.028 C 
ATOM      9  C   UNL     1     -32.197  27.788   5.716  0.00  0.00    +0.152 C 
BRANCH   9  10
ATOM     10  S   UNL     1     -30.806  28.755   6.190  0.00  0.00    +0.063 S 
ATOM     11  O   UNL     1     -30.288  29.339   4.958  0.00  0.00    -0.153 OA
ATOM     12  O   UNL     1     -31.288  29.606   7.270  0.00  0.00    -0.153 OA
BRANCH  10  13
ATOM     13  N   UNL     1     -29.600  27.708   6.821  0.00  0.00    -0.203 NA
ATOM     14  H   UNL     1     -29.034  27.341   6.056  0.00  0.00    +0.144 HD
ATOM     15  H   UNL     1     -30.045  26.935   7.316  0.00  0.00    +0.144 HD
ENDBRANCH  10  13
ENDBRANCH   9  10
ENDBRANCH   1   4
BRANCH   1  16
ATOM     16  N   UNL     1     -36.938  23.981   2.948  0.00  0.00    +0.393 N 
ATOM     17  H   UNL     1     -36.109  24.333   2.469  0.00  0.00    -0.079 HD
BRANCH  16  18
ATOM     18  C   UNL     1     -38.122  24.492   2.259  0.00  0.00    -0.044 C 
BRANCH  18  19
ATOM     19  C   UNL     1     -39.194  24.930   3.239  0.00  0.00    +0.120 C 
BRANCH  19  20
ATOM     20  O   UNL     1     -39.585  26.266   2.947  0.00  0.00    -0.353 OA
BRANCH  20  21
ATOM     21  C   UNL     1     -40.937  26.331   2.514  0.00  0.00    +0.174 C 
BRANCH  21  22
ATOM     22  C   UNL     1     -41.799  26.829   3.658  0.00  0.00    +0.174 C 
BRANCH  22  23
ATOM     23  O   UNL     1     -42.160  28.183   3.411  0.00  0.00    -0.348 OA
ATOM     24  C   UNL     1     -43.027  28.683   4.420  0.00  0.00    +0.174 C 
ENDBRANCH  22  23
ENDBRANCH  21  22
ENDBRANCH  20  21
ENDBRANCH  19  20
ENDBRANCH  18  19
ENDBRANCH  16  18
BRANCH  16  25
ATOM     25  C   UNL     1     -36.912  22.520   2.906  0.00  0.00    -0.044 C 
BRANCH  25  26
ATOM     26  C   UNL     1     -35.589  21.972   3.410  0.00  0.00    +0.120 C 
BRANCH  26  27
ATOM     27  O   UNL     1     -35.551  20.566   3.200  0.00  0.00    -0.353 OA
ATOM     28  C   UNL     1     -36.221  20.199   2.002  0.00  0.00    +0.174 C 
ENDBRANCH  26  27
ENDBRANCH  25  26
ENDBRANCH  16  25
ENDBRANCH   1  16
TORSDOF 13
ENDMDL
MODEL 2
REMARK VINA RESULT:      -5.1      5.325      8.461
REMARK  Name = 195580
REMARK  13 active torsions:
REMARK  status: ('A' for Active; 'I' for Inactive)
REMARK    1  A    between atoms: C_1  and  C_4
REMARK    2  A    between atoms: C_1  and  N_16
REMARK    3  A    between atoms: C_9  and  S_10
REMARK    4  A    between atoms: S_10  and  N_13
REMARK    5  A    between atoms: N_16  and  C_18
REMARK    6  A    between atoms: N_16  and  C_25
REMARK    7  A    between atoms: C_18  and  C_19
REMARK    8  A    between atoms: C_19  and  O_20
REMARK    9  A    between atoms: O_20  and  C_21
REMARK   10  A    between atoms: C_21  and  C_22
REMARK   11  A    between atoms: C_22  and  O_23
REMARK   12  A    between atoms: C_25  and  C_26
REMARK   13  A    between atoms: C_26  and  O_27
REMARK                            x       y       z     vdW  Elec       q    Type
REMARK                         _______ _______ _______ _____ _____    ______ ____
ROOT
ATOM      1  C   UNL     1     -36.931  21.225   2.154  0.00  0.00    -0.043 C 
ENDROOT
BRANCH   1   4
ATOM      2  S   UNL     1     -36.331  19.317   0.228  0.00  0.00    -0.087 S 
ATOM      3  S   UNL     1     -34.075  17.426  -0.655  0.00  0.00    -0.061 S 
ATOM      4  C   UNL     1     -35.913  20.256   1.617  0.00  0.00    -0.013 C 
ATOM      5  C   UNL     1     -34.062  19.033   1.287  0.00  0.00    +0.014 C 
ATOM      6  C   UNL     1     -34.651  20.009   2.097  0.00  0.00    +0.001 C 
ATOM      7  C   UNL     1     -34.828  18.589   0.281  0.00  0.00    +0.060 C 
ATOM      8  C   UNL     1     -32.792  18.452   1.370  0.00  0.00    +0.028 C 
ATOM      9  C   UNL     1     -32.654  17.527   0.343  0.00  0.00    +0.152 C 
BRANCH   9  10
ATOM     10  S   UNL     1     -31.348  16.454  -0.144  0.00  0.00    +0.063 S 
ATOM     11  O   UNL     1     -31.236  16.594  -1.591  0.00  0.00    -0.153 OA
ATOM     12  O   UNL     1     -30.230  16.801   0.725  0.00  0.00    -0.153 OA
BRANCH  10  13
ATOM     13  N   UNL     1     -31.814  14.836   0.192  0.00  0.00    -0.203 NA
ATOM     14  H   UNL     1     -31.329  14.509   1.027  0.00  0.00    +0.144 HD
ATOM     15  H   UNL     1     -31.570  14.240  -0.599  0.00  0.00    +0.144 HD
ENDBRANCH  10  13
ENDBRANCH   9  10
ENDBRANCH   1   4
BRANCH   1  16
ATOM     16  N   UNL     1     -36.860  22.505   1.451  0.00  0.00    +0.393 N 
ATOM     17  H   UNL     1     -36.347  22.368   0.580  0.00  0.00    -0.079 HD
BRANCH  16  18
ATOM     18  C   UNL     1     -36.144  23.492   2.259  0.00  0.00    -0.044 C 
BRANCH  18  19
ATOM     19  C   UNL     1     -36.066  23.072   3.714  0.00  0.00    +0.120 C 
BRANCH  19  20
ATOM     20  O   UNL     1     -36.966  23.860   4.483  0.00  0.00    -0.353 OA
BRANCH  20  21
ATOM     21  C   UNL     1     -36.763  25.248   4.262  0.00  0.00    +0.174 C 
BRANCH  21  22
ATOM     22  C   UNL     1     -36.018  25.834   5.446  0.00  0.00    +0.174 C 
BRANCH  22  23
ATOM     23  O   UNL     1     -35.096  26.811   4.977  0.00  0.00    -0.348 OA
ATOM     24  C   UNL     1     -35.126  26.915   3.560  0.00  0.00    +0.174 C 
ENDBRANCH  22  23
ENDBRANCH  21  22
ENDBRANCH  20  21
ENDBRANCH  19  20
ENDBRANCH  18  19
ENDBRANCH  16  18
BRANCH  16  25
ATOM     25  C   UNL     1     -38.202  22.985   1.127  0.00  0.00    -0.044 C 
BRANCH  25  26
ATOM     26  C   UNL     1     -39.254  22.340   2.012  0.00  0.00    +0.120 C 
BRANCH  26  27
ATOM     27  O   UNL     1     -40.252  21.739   1.196  0.00  0.00    -0.353 OA
ATOM     28  C   UNL     1     -40.562  22.547   0.070  0.00  0.00    +0.174 C 
ENDBRANCH  26  27
ENDBRANCH  25  26
ENDBRANCH  16  25
ENDBRANCH   1  16
TORSDOF 13
ENDMDL
MODEL 3
REMARK VINA RESULT:      -5.1      3.892      9.162
REMARK  Name = 195580
REMARK  13 active torsions:
REMARK  status: ('A' for Active; 'I' for Inactive)
REMARK    1  A    between atoms: C_1  and  C_4
REMARK    2  A    between atoms: C_1  and  N_16
REMARK    3  A    between atoms: C_9  and  S_10
REMARK    4  A    between atoms: S_10  and  N_13
REMARK    5  A    between atoms: N_16  and  C_18
REMARK    6  A    between atoms: N_16  and  C_25
REMARK    7  A    between atoms: C_18  and  C_19
REMARK    8  A    between atoms: C_19  and  O_20
REMARK    9  A    between atoms: O_20  and  C_21
REMARK   10  A    between atoms: C_21  and  C_22
REMARK   11  A    between atoms: C_22  and  O_23
REMARK   12  A    between atoms: C_25  and  C_26
REMARK   13  A    between atoms: C_26  and  O_27
REMARK                            x       y       z     vdW  Elec       q    Type
REMARK                         _______ _______ _______ _____ _____    ______ ____
ROOT
ATOM      1  C   UNL     1     -30.968  29.059   6.591  0.00  0.00    -0.043 C 
ENDROOT
BRANCH   1   4
ATOM      2  S   UNL     1     -32.429  28.367   4.333  0.00  0.00    -0.087 S 
ATOM      3  S   UNL     1     -34.605  26.414   3.389  0.00  0.00    -0.061 S 
ATOM      4  C   UNL     1     -32.023  28.164   6.000  0.00  0.00    -0.013 C 
ATOM      5  C   UNL     1     -33.603  26.601   5.694  0.00  0.00    +0.014 C 
ATOM      6  C   UNL     1     -32.731  27.170   6.629  0.00  0.00    +0.001 C 
ATOM      7  C   UNL     1     -33.546  27.131   4.465  0.00  0.00    +0.060 C 
ATOM      8  C   UNL     1     -34.525  25.561   5.851  0.00  0.00    +0.028 C 
ATOM      9  C   UNL     1     -35.166  25.342   4.640  0.00  0.00    +0.152 C 
BRANCH   9  10
ATOM     10  S   UNL     1     -36.412  24.213   4.122  0.00  0.00    +0.063 S 
ATOM     11  O   UNL     1     -36.151  23.950   2.712  0.00  0.00    -0.153 OA
ATOM     12  O   UNL     1     -36.372  23.133   5.099  0.00  0.00    -0.153 OA
BRANCH  10  13
ATOM     13  N   UNL     1     -37.938  24.992   4.237  0.00  0.00    -0.203 NA
ATOM     14  H   UNL     1     -37.858  25.810   4.841  0.00  0.00    +0.144 HD
ATOM     15  H   UNL     1     -38.622  24.345   4.629  0.00  0.00    +0.144 HD
ENDBRANCH  10  13
ENDBRANCH   9  10
ENDBRANCH   1   4
BRANCH   1  16
ATOM     16  N   UNL     1     -29.695  28.907   5.887  0.00  0.00    +0.393 N 
ATOM     17  H   UNL     1     -29.887  28.584   4.939  0.00  0.00    -0.079 HD
BRANCH  16  18
ATOM     18  C   UNL     1     -28.859  27.910   6.555  0.00  0.00    -0.044 C 
BRANCH  18  19
ATOM     19  C   UNL     1     -27.789  27.366   5.626  0.00  0.00    +0.120 C 
BRANCH  19  20
ATOM     20  O   UNL     1     -28.402  26.608   4.591  0.00  0.00    -0.353 OA
BRANCH  20  21
ATOM     21  C   UNL     1     -27.909  26.979   3.311  0.00  0.00    +0.174 C 
BRANCH  21  22
ATOM     22  C   UNL     1     -29.081  27.207   2.375  0.00  0.00    +0.174 C 
BRANCH  22  23
ATOM     23  O   UNL     1     -30.045  26.181   2.583  0.00  0.00    -0.348 OA
ATOM     24  C   UNL     1     -31.123  26.289   1.665  0.00  0.00    +0.174 C 
ENDBRANCH  22  23
ENDBRANCH  21  22
ENDBRANCH  20  21
ENDBRANCH  19  20
ENDBRANCH  18  19
ENDBRANCH  16  18
BRANCH  16  25
ATOM     25  C   UNL     1     -28.999  30.190   5.808  0.00  0.00    -0.044 C 
BRANCH  25  26
ATOM     26  C   UNL     1     -29.661  31.123   4.811  0.00  0.00    +0.120 C 
BRANCH  26  27
ATOM     27  O   UNL     1     -29.374  30.683   3.490  0.00  0.00    -0.353 OA
ATOM     28  C   UNL     1     -27.981  30.734   3.214  0.00  0.00    +0.174 C 
ENDBRANCH  26  27
ENDBRANCH  25  26
ENDBRANCH  16  25
ENDBRANCH   1  16
TORSDOF 13
ENDMDL
MODEL 4
REMARK VINA RESULT:      -5.0      1.931      2.419
REMARK  Name = 195580
REMARK  13 active torsions:
REMARK  status: ('A' for Active; 'I' for Inactive)
REMARK    1  A    between atoms: C_1  and  C_4
REMARK    2  A    between atoms: C_1  and  N_16
REMARK    3  A    between atoms: C_9  and  S_10
REMARK    4  A    between atoms: S_10  and  N_13
REMARK    5  A    between atoms: N_16  and  C_18
REMARK    6  A    between atoms: N_16  and  C_25
REMARK    7  A    between atoms: C_18  and  C_19
REMARK    8  A    between atoms: C_19  and  O_20
REMARK    9  A    between atoms: O_20  and  C_21
REMARK   10  A    between atoms: C_21  and  C_22
REMARK   11  A    between atoms: C_22  and  O_23
REMARK   12  A    between atoms: C_25  and  C_26
REMARK   13  A    between atoms: C_26  and  O_27
REMARK                            x       y       z     vdW  Elec       q    Type
REMARK                         _______ _______ _______ _____ _____    ______ ____
ROOT
ATOM      1  C   UNL     1     -36.171  22.830   4.243  0.00  0.00    -0.043 C 
ENDROOT
BRANCH   1   4
ATOM      2  S   UNL     1     -34.616  24.687   2.886  0.00  0.00    -0.087 S 
ATOM      3  S   UNL     1     -32.819  27.130   3.380  0.00  0.00    -0.061 S 
ATOM      4  C   UNL     1     -35.271  24.031   4.344  0.00  0.00    -0.013 C 
ATOM      5  C   UNL     1     -34.048  25.754   5.097  0.00  0.00    +0.014 C 
ATOM      6  C   UNL     1     -34.887  24.702   5.478  0.00  0.00    +0.001 C 
ATOM      7  C   UNL     1     -33.825  25.857   3.779  0.00  0.00    +0.060 C 
ATOM      8  C   UNL     1     -33.406  26.715   5.886  0.00  0.00    +0.028 C 
ATOM      9  C   UNL     1     -32.677  27.559   5.060  0.00  0.00    +0.152 C 
BRANCH   9  10
ATOM     10  S   UNL     1     -31.653  28.956   5.367  0.00  0.00    +0.063 S 
ATOM     11  O   UNL     1     -30.721  29.022   4.248  0.00  0.00    -0.153 OA
ATOM     12  O   UNL     1     -32.578  30.051   5.630  0.00  0.00    -0.153 OA
BRANCH  10  13
ATOM     13  N   UNL     1     -30.740  28.664   6.792  0.00  0.00    -0.203 NA
ATOM     14  H   UNL     1     -31.239  29.040   7.598  0.00  0.00    +0.144 HD
ATOM     15  H   UNL     1     -29.830  29.118   6.713  0.00  0.00    +0.144 HD
ENDBRANCH  10  13
ENDBRANCH   9  10
ENDBRANCH   1   4
BRANCH   1  16
ATOM     16  N   UNL     1     -36.180  22.292   2.883  0.00  0.00    +0.393 N 
ATOM     17  H   UNL     1     -35.707  22.956   2.270  0.00  0.00    -0.079 HD
BRANCH  16  18
ATOM     18  C   UNL     1     -37.553  22.124   2.411  0.00  0.00    -0.044 C 
BRANCH  18  19
ATOM     19  C   UNL     1     -38.208  23.459   2.108  0.00  0.00    +0.120 C 
BRANCH  19  20
ATOM     20  O   UNL     1     -39.239  23.705   3.056  0.00  0.00    -0.353 OA
BRANCH  20  21
ATOM     21  C   UNL     1     -39.534  25.092   3.156  0.00  0.00    +0.174 C 
BRANCH  21  22
ATOM     22  C   UNL     1     -38.253  25.884   2.980  0.00  0.00    +0.174 C 
BRANCH  22  23
ATOM     23  O   UNL     1     -38.478  26.926   2.038  0.00  0.00    -0.348 OA
ATOM     24  C   UNL     1     -37.364  27.094   1.171  0.00  0.00    +0.174 C 
ENDBRANCH  22  23
ENDBRANCH  21  22
ENDBRANCH  20  21
ENDBRANCH  19  20
ENDBRANCH  18  19
ENDBRANCH  16  18
BRANCH  16  25
ATOM     25  C   UNL     1     -35.461  21.020   2.832  0.00  0.00    -0.044 C 
BRANCH  25  26
ATOM     26  C   UNL     1     -36.039  20.096   1.775  0.00  0.00    +0.120 C 
BRANCH  26  27
ATOM     27  O   UNL     1     -35.048  19.827   0.791  0.00  0.00    -0.353 OA
ATOM     28  C   UNL     1     -33.854  19.327   1.376  0.00  0.00    +0.174 C 
ENDBRANCH  26  27
ENDBRANCH  25  26
ENDBRANCH  16  25
ENDBRANCH   1  16
TORSDOF 13
ENDMDL
MODEL 5
REMARK VINA RESULT:      -5.0      4.780      7.480
REMARK  Name = 195580
REMARK  13 active torsions:
REMARK  status: ('A' for Active; 'I' for Inactive)
REMARK    1  A    between atoms: C_1  and  C_4
REMARK    2  A    between atoms: C_1  and  N_16
REMARK    3  A    between atoms: C_9  and  S_10
REMARK    4  A    between atoms: S_10  and  N_13
REMARK    5  A    between atoms: N_16  and  C_18
REMARK    6  A    between atoms: N_16  and  C_25
REMARK    7  A    between atoms: C_18  and  C_19
REMARK    8  A    between atoms: C_19  and  O_20
REMARK    9  A    between atoms: O_20  and  C_21
REMARK   10  A    between atoms: C_21  and  C_22
REMARK   11  A    between atoms: C_22  and  O_23
REMARK   12  A    between atoms: C_25  and  C_26
REMARK   13  A    between atoms: C_26  and  O_27
REMARK                            x       y       z     vdW  Elec       q    Type
REMARK                         _______ _______ _______ _____ _____    ______ ____
ROOT
ATOM      1  C   UNL     1     -35.942  21.883   1.124  0.00  0.00    -0.043 C 
ENDROOT
BRANCH   1   4
ATOM      2  S   UNL     1     -33.429  21.645  -0.034  0.00  0.00    -0.087 S 
ATOM      3  S   UNL     1     -31.047  19.712  -0.222  0.00  0.00    -0.061 S 
ATOM      4  C   UNL     1     -34.713  21.033   0.947  0.00  0.00    -0.013 C 
ATOM      5  C   UNL     1     -33.197  19.383   1.051  0.00  0.00    +0.014 C 
ATOM      6  C   UNL     1     -34.464  19.793   1.481  0.00  0.00    +0.001 C 
ATOM      7  C   UNL     1     -32.554  20.252   0.259  0.00  0.00    +0.060 C 
ATOM      8  C   UNL     1     -32.501  18.200   1.325  0.00  0.00    +0.028 C 
ATOM      9  C   UNL     1     -31.274  18.241   0.677  0.00  0.00    +0.152 C 
BRANCH   9  10
ATOM     10  S   UNL     1     -29.923  17.119   0.585  0.00  0.00    +0.063 S 
ATOM     11  O   UNL     1     -29.117  17.366   1.774  0.00  0.00    -0.153 OA
ATOM     12  O   UNL     1     -30.530  15.814   0.356  0.00  0.00    -0.153 OA
BRANCH  10  13
ATOM     13  N   UNL     1     -28.971  17.520  -0.787  0.00  0.00    -0.203 NA
ATOM     14  H   UNL     1     -29.581  17.799  -1.555  0.00  0.00    +0.144 HD
ATOM     15  H   UNL     1     -28.419  16.709  -1.068  0.00  0.00    +0.144 HD
ENDBRANCH  10  13
ENDBRANCH   9  10
ENDBRANCH   1   4
BRANCH   1  16
ATOM     16  N   UNL     1     -36.405  21.856   2.511  0.00  0.00    +0.393 N 
ATOM     17  H   UNL     1     -36.349  20.896   2.851  0.00  0.00    -0.079 HD
BRANCH  16  18
ATOM     18  C   UNL     1     -37.797  22.296   2.592  0.00  0.00    -0.044 C 
BRANCH  18  19
ATOM     19  C   UNL     1     -37.913  23.805   2.489  0.00  0.00    +0.120 C 
BRANCH  19  20
ATOM     20  O   UNL     1     -38.669  24.297   3.589  0.00  0.00    -0.353 OA
BRANCH  20  21
ATOM     21  C   UNL     1     -39.767  25.087   3.153  0.00  0.00    +0.174 C 
BRANCH  21  22
ATOM     22  C   UNL     1     -39.307  26.000   2.033  0.00  0.00    +0.174 C 
BRANCH  22  23
ATOM     23  O   UNL     1     -40.297  26.998   1.812  0.00  0.00    -0.348 OA
ATOM     24  C   UNL     1     -41.578  26.421   1.602  0.00  0.00    +0.174 C 
ENDBRANCH  22  23
ENDBRANCH  21  22
ENDBRANCH  20  21
ENDBRANCH  19  20
ENDBRANCH  18  19
ENDBRANCH  16  18
BRANCH  16  25
ATOM     25  C   UNL     1     -35.552  22.696   3.350  0.00  0.00    -0.044 C 
BRANCH  25  26
ATOM     26  C   UNL     1     -35.426  22.134   4.755  0.00  0.00    +0.120 C 
BRANCH  26  27
ATOM     27  O   UNL     1     -36.061  23.014   5.674  0.00  0.00    -0.353 OA
ATOM     28  C   UNL     1     -35.663  24.361   5.466  0.00  0.00    +0.174 C 
ENDBRANCH  26  27
ENDBRANCH  25  26
ENDBRANCH  16  25
ENDBRANCH   1  16
TORSDOF 13
ENDMDL
MODEL 6
REMARK VINA RESULT:      -5.0      5.506      8.775
REMARK  Name = 195580
REMARK  13 active torsions:
REMARK  status: ('A' for Active; 'I' for Inactive)
REMARK    1  A    between atoms: C_1  and  C_4
REMARK    2  A    between atoms: C_1  and  N_16
REMARK    3  A    between atoms: C_9  and  S_10
REMARK    4  A    between atoms: S_10  and  N_13
REMARK    5  A    between atoms: N_16  and  C_18
REMARK    6  A    between atoms: N_16  and  C_25
REMARK    7  A    between atoms: C_18  and  C_19
REMARK    8  A    between atoms: C_19  and  O_20
REMARK    9  A    between atoms: O_20  and  C_21
REMARK   10  A    between atoms: C_21  and  C_22
REMARK   11  A    between atoms: C_22  and  O_23
REMARK   12  A    between atoms: C_25  and  C_26
REMARK   13  A    between atoms: C_26  and  O_27
REMARK                            x       y       z     vdW  Elec       q    Type
REMARK                         _______ _______ _______ _____ _____    ______ ____
ROOT
ATOM      1  C   UNL     1     -36.776  21.244   1.901  0.00  0.00    -0.043 C 
ENDROOT
BRANCH   1   4
ATOM      2  S   UNL     1     -36.228  19.192   0.113  0.00  0.00    -0.087 S 
ATOM      3  S   UNL     1     -34.000  17.227  -0.674  0.00  0.00    -0.061 S 
ATOM      4  C   UNL     1     -35.775  20.231   1.417  0.00  0.00    -0.013 C 
ATOM      5  C   UNL     1     -33.937  18.976   1.139  0.00  0.00    +0.014 C 
ATOM      6  C   UNL     1     -34.504  20.014   1.886  0.00  0.00    +0.001 C 
ATOM      7  C   UNL     1     -34.727  18.461   0.187  0.00  0.00    +0.060 C 
ATOM      8  C   UNL     1     -32.668  18.395   1.238  0.00  0.00    +0.028 C 
ATOM      9  C   UNL     1     -32.557  17.395   0.282  0.00  0.00    +0.152 C 
BRANCH   9  10
ATOM     10  S   UNL     1     -31.267  16.281  -0.152  0.00  0.00    +0.063 S 
ATOM     11  O   UNL     1     -31.123  16.380  -1.600  0.00  0.00    -0.153 OA
ATOM     12  O   UNL     1     -30.159  16.624   0.730  0.00  0.00    -0.153 OA
BRANCH  10  13
ATOM     13  N   UNL     1     -31.777  14.683   0.216  0.00  0.00    -0.203 NA
ATOM     14  H   UNL     1     -31.960  14.606   1.216  0.00  0.00    +0.144 HD
ATOM     15  H   UNL     1     -31.045  14.022  -0.047  0.00  0.00    +0.144 HD
ENDBRANCH  10  13
ENDBRANCH   9  10
ENDBRANCH   1   4
BRANCH   1  16
ATOM     16  N   UNL     1     -36.118  22.490   2.291  0.00  0.00    +0.393 N 
ATOM     17  H   UNL     1     -35.118  22.311   2.387  0.00  0.00    -0.079 HD
BRANCH  16  18
ATOM     18  C   UNL     1     -36.629  22.956   3.579  0.00  0.00    -0.044 C 
BRANCH  18  19
ATOM     19  C   UNL     1     -35.761  22.483   4.730  0.00  0.00    +0.120 C 
BRANCH  19  20
ATOM     20  O   UNL     1     -35.757  23.468   5.756  0.00  0.00    -0.353 OA
BRANCH  20  21
ATOM     21  C   UNL     1     -35.893  24.777   5.221  0.00  0.00    +0.174 C 
BRANCH  21  22
ATOM     22  C   UNL     1     -34.733  25.629   5.698  0.00  0.00    +0.174 C 
BRANCH  22  23
ATOM     23  O   UNL     1     -33.671  25.535   4.756  0.00  0.00    -0.348 OA
ATOM     24  C   UNL     1     -33.446  26.776   4.101  0.00  0.00    +0.174 C 
ENDBRANCH  22  23
ENDBRANCH  21  22
ENDBRANCH  20  21
ENDBRANCH  19  20
ENDBRANCH  18  19
ENDBRANCH  16  18
BRANCH  16  25
ATOM     25  C   UNL     1     -36.309  23.512   1.264  0.00  0.00    -0.044 C 
BRANCH  25  26
ATOM     26  C   UNL     1     -35.408  24.712   1.497  0.00  0.00    +0.120 C 
BRANCH  26  27
ATOM     27  O   UNL     1     -34.065  24.271   1.648  0.00  0.00    -0.353 OA
ATOM     28  C   UNL     1     -33.303  24.508   0.473  0.00  0.00    +0.174 C 
ENDBRANCH  26  27
ENDBRANCH  25  26
ENDBRANCH  16  25
ENDBRANCH   1  16
TORSDOF 13
ENDMDL
MODEL 7
REMARK VINA RESULT:      -4.9      4.809      8.422
REMARK  Name = 195580
REMARK  13 active torsions:
REMARK  status: ('A' for Active; 'I' for Inactive)
REMARK    1  A    between atoms: C_1  and  C_4
REMARK    2  A    between atoms: C_1  and  N_16
REMARK    3  A    between atoms: C_9  and  S_10
REMARK    4  A    between atoms: S_10  and  N_13
REMARK    5  A    between atoms: N_16  and  C_18
REMARK    6  A    between atoms: N_16  and  C_25
REMARK    7  A    between atoms: C_18  and  C_19
REMARK    8  A    between atoms: C_19  and  O_20
REMARK    9  A    between atoms: O_20  and  C_21
REMARK   10  A    between atoms: C_21  and  C_22
REMARK   11  A    between atoms: C_22  and  O_23
REMARK   12  A    between atoms: C_25  and  C_26
REMARK   13  A    between atoms: C_26  and  O_27
REMARK                            x       y       z     vdW  Elec       q    Type
REMARK                         _______ _______ _______ _____ _____    ______ ____
ROOT
ATOM      1  C   UNL     1     -37.570  22.790   2.580  0.00  0.00    -0.043 C 
ENDROOT
BRANCH   1   4
ATOM      2  S   UNL     1     -37.429  20.703   0.754  0.00  0.00    -0.087 S 
ATOM      3  S   UNL     1     -35.548  18.462  -0.187  0.00  0.00    -0.061 S 
ATOM      4  C   UNL     1     -36.752  21.656   2.026  0.00  0.00    -0.013 C 
ATOM      5  C   UNL     1     -35.125  20.166   1.621  0.00  0.00    +0.014 C 
ATOM      6  C   UNL     1     -35.493  21.263   2.407  0.00  0.00    +0.001 C 
ATOM      7  C   UNL     1     -36.040  19.774   0.724  0.00  0.00    +0.060 C 
ATOM      8  C   UNL     1     -33.943  19.417   1.632  0.00  0.00    +0.028 C 
ATOM      9  C   UNL     1     -34.034  18.421   0.668  0.00  0.00    +0.152 C 
BRANCH   9  10
ATOM     10  S   UNL     1     -32.940  17.147   0.145  0.00  0.00    +0.063 S 
ATOM     11  O   UNL     1     -31.830  17.161   1.091  0.00  0.00    -0.153 OA
ATOM     12  O   UNL     1     -33.780  15.964   0.002  0.00  0.00    -0.153 OA
BRANCH  10  13
ATOM     13  N   UNL     1     -32.318  17.560  -1.401  0.00  0.00    -0.203 NA
ATOM     14  H   UNL     1     -31.927  16.728  -1.844  0.00  0.00    +0.144 HD
ATOM     15  H   UNL     1     -31.586  18.264  -1.297  0.00  0.00    +0.144 HD
ENDBRANCH  10  13
ENDBRANCH   9  10
ENDBRANCH   1   4
BRANCH   1  16
ATOM     16  N   UNL     1     -37.690  23.876   1.608  0.00  0.00    +0.393 N 
ATOM     17  H   UNL     1     -37.539  23.492   0.675  0.00  0.00    -0.079 HD
BRANCH  16  18
ATOM     18  C   UNL     1     -36.675  24.898   1.858  0.00  0.00    -0.044 C 
BRANCH  18  19
ATOM     19  C   UNL     1     -36.267  24.935   3.318  0.00  0.00    +0.120 C 
BRANCH  19  20
ATOM     20  O   UNL     1     -34.867  24.709   3.424  0.00  0.00    -0.353 OA
BRANCH  20  21
ATOM     21  C   UNL     1     -34.533  24.068   4.647  0.00  0.00    +0.174 C 
BRANCH  21  22
ATOM     22  C   UNL     1     -35.753  24.058   5.549  0.00  0.00    +0.174 C 
BRANCH  22  23
ATOM     23  O   UNL     1     -36.094  22.710   5.851  0.00  0.00    -0.348 OA
ATOM     24  C   UNL     1     -34.935  21.915   6.060  0.00  0.00    +0.174 C 
ENDBRANCH  22  23
ENDBRANCH  21  22
ENDBRANCH  20  21
ENDBRANCH  19  20
ENDBRANCH  18  19
ENDBRANCH  16  18
BRANCH  16  25
ATOM     25  C   UNL     1     -39.029  24.461   1.657  0.00  0.00    -0.044 C 
BRANCH  25  26
ATOM     26  C   UNL     1     -39.036  25.883   1.127  0.00  0.00    +0.120 C 
BRANCH  26  27
ATOM     27  O   UNL     1     -39.735  26.722   2.038  0.00  0.00    -0.353 OA
ATOM     28  C   UNL     1     -40.336  25.971   3.083  0.00  0.00    +0.174 C 
ENDBRANCH  26  27
ENDBRANCH  25  26
ENDBRANCH  16  25
ENDBRANCH   1  16
TORSDOF 13
ENDMDL
MODEL 8
REMARK VINA RESULT:      -4.9      4.421      6.555
REMARK  Name = 195580
REMARK  13 active torsions:
REMARK  status: ('A' for Active; 'I' for Inactive)
REMARK    1  A    between atoms: C_1  and  C_4
REMARK    2  A    between atoms: C_1  and  N_16
REMARK    3  A    between atoms: C_9  and  S_10
REMARK    4  A    between atoms: S_10  and  N_13
REMARK    5  A    between atoms: N_16  and  C_18
REMARK    6  A    between atoms: N_16  and  C_25
REMARK    7  A    between atoms: C_18  and  C_19
REMARK    8  A    between atoms: C_19  and  O_20
REMARK    9  A    between atoms: O_20  and  C_21
REMARK   10  A    between atoms: C_21  and  C_22
REMARK   11  A    between atoms: C_22  and  O_23
REMARK   12  A    between atoms: C_25  and  C_26
REMARK   13  A    between atoms: C_26  and  O_27
REMARK                            x       y       z     vdW  Elec       q    Type
REMARK                         _______ _______ _______ _____ _____    ______ ____
ROOT
ATOM      1  C   UNL     1     -37.535  22.913   2.310  0.00  0.00    -0.043 C 
ENDROOT
BRANCH   1   4
ATOM      2  S   UNL     1     -35.267  22.948   0.709  0.00  0.00    -0.087 S 
ATOM      3  S   UNL     1     -32.881  21.191  -0.109  0.00  0.00    -0.061 S 
ATOM      4  C   UNL     1     -36.325  22.162   1.827  0.00  0.00    -0.013 C 
ATOM      5  C   UNL     1     -34.749  20.604   1.478  0.00  0.00    +0.014 C 
ATOM      6  C   UNL     1     -35.932  20.891   2.167  0.00  0.00    +0.001 C 
ATOM      7  C   UNL     1     -34.297  21.587   0.687  0.00  0.00    +0.060 C 
ATOM      8  C   UNL     1     -33.967  19.444   1.492  0.00  0.00    +0.028 C 
ATOM      9  C   UNL     1     -32.881  19.625   0.647  0.00  0.00    +0.152 C 
BRANCH   9  10
ATOM     10  S   UNL     1     -31.524  18.602   0.194  0.00  0.00    +0.063 S 
ATOM     11  O   UNL     1     -31.997  17.777  -0.912  0.00  0.00    -0.153 OA
ATOM     12  O   UNL     1     -30.405  19.518   0.012  0.00  0.00    -0.153 OA
BRANCH  10  13
ATOM     13  N   UNL     1     -31.161  17.559   1.509  0.00  0.00    -0.203 NA
ATOM     14  H   UNL     1     -31.869  17.668   2.235  0.00  0.00    +0.144 HD
ATOM     15  H   UNL     1     -30.245  17.795   1.889  0.00  0.00    +0.144 HD
ENDBRANCH  10  13
ENDBRANCH   9  10
ENDBRANCH   1   4
BRANCH   1  16
ATOM     16  N   UNL     1     -37.312  23.467   3.645  0.00  0.00    +0.393 N 
ATOM     17  H   UNL     1     -37.809  22.889   4.322  0.00  0.00    -0.079 HD
BRANCH  16  18
ATOM     18  C   UNL     1     -37.838  24.829   3.726  0.00  0.00    -0.044 C 
BRANCH  18  19
ATOM     19  C   UNL     1     -37.416  25.663   2.531  0.00  0.00    +0.120 C 
BRANCH  19  20
ATOM     20  O   UNL     1     -38.429  26.618   2.239  0.00  0.00    -0.353 OA
BRANCH  20  21
ATOM     21  C   UNL     1     -39.324  26.141   1.243  0.00  0.00    +0.174 C 
BRANCH  21  22
ATOM     22  C   UNL     1     -40.744  26.230   1.770  0.00  0.00    +0.174 C 
BRANCH  22  23
ATOM     23  O   UNL     1     -40.748  27.008   2.961  0.00  0.00    -0.348 OA
ATOM     24  C   UNL     1     -41.883  26.721   3.765  0.00  0.00    +0.174 C 
ENDBRANCH  22  23
ENDBRANCH  21  22
ENDBRANCH  20  21
ENDBRANCH  19  20
ENDBRANCH  18  19
ENDBRANCH  16  18
BRANCH  16  25
ATOM     25  C   UNL     1     -35.888  23.448   3.975  0.00  0.00    -0.044 C 
BRANCH  25  26
ATOM     26  C   UNL     1     -35.647  23.818   5.427  0.00  0.00    +0.120 C 
BRANCH  26  27
ATOM     27  O   UNL     1     -35.847  22.673   6.246  0.00  0.00    -0.353 OA
ATOM     28  C   UNL     1     -35.109  21.556   5.769  0.00  0.00    +0.174 C 
ENDBRANCH  26  27
ENDBRANCH  25  26
ENDBRANCH  16  25
ENDBRANCH   1  16
TORSDOF 13
ENDMDL
MODEL 9
REMARK VINA RESULT:      -4.9      4.629      7.677
REMARK  Name = 195580
REMARK  13 active torsions:
REMARK  status: ('A' for Active; 'I' for Inactive)
REMARK    1  A    between atoms: C_1  and  C_4
REMARK    2  A    between atoms: C_1  and  N_16
REMARK    3  A    between atoms: C_9  and  S_10
REMARK    4  A    between atoms: S_10  and  N_13
REMARK    5  A    between atoms: N_16  and  C_18
REMARK    6  A    between atoms: N_16  and  C_25
REMARK    7  A    between atoms: C_18  and  C_19
REMARK    8  A    between atoms: C_19  and  O_20
REMARK    9  A    between atoms: O_20  and  C_21
REMARK   10  A    between atoms: C_21  and  C_22
REMARK   11  A    between atoms: C_22  and  O_23
REMARK   12  A    between atoms: C_25  and  C_26
REMARK   13  A    between atoms: C_26  and  O_27
REMARK                            x       y       z     vdW  Elec       q    Type
REMARK                         _______ _______ _______ _____ _____    ______ ____
ROOT
ATOM      1  C   UNL     1     -38.031  22.152   2.179  0.00  0.00    -0.043 C 
ENDROOT
BRANCH   1   4
ATOM      2  S   UNL     1     -40.108  23.494   0.918  0.00  0.00    -0.087 S 
ATOM      3  S   UNL     1     -41.951  25.929   1.263  0.00  0.00    -0.061 S 
ATOM      4  C   UNL     1     -38.992  23.308   2.224  0.00  0.00    -0.013 C 
ATOM      5  C   UNL     1     -40.133  25.144   2.822  0.00  0.00    +0.014 C 
ATOM      6  C   UNL     1     -39.107  24.269   3.196  0.00  0.00    +0.001 C 
ATOM      7  C   UNL     1     -40.734  24.854   1.660  0.00  0.00    +0.060 C 
ATOM      8  C   UNL     1     -40.625  26.276   3.481  0.00  0.00    +0.028 C 
ATOM      9  C   UNL     1     -41.651  26.825   2.724  0.00  0.00    +0.152 C 
BRANCH   9  10
ATOM     10  S   UNL     1     -42.695  28.224   2.943  0.00  0.00    +0.063 S 
ATOM     11  O   UNL     1     -44.056  27.742   2.739  0.00  0.00    -0.153 OA
ATOM     12  O   UNL     1     -42.293  28.798   4.221  0.00  0.00    -0.153 OA
BRANCH  10  13
ATOM     13  N   UNL     1     -42.351  29.363   1.705  0.00  0.00    -0.203 NA
ATOM     14  H   UNL     1     -41.920  28.886   0.914  0.00  0.00    +0.144 HD
ATOM     15  H   UNL     1     -41.712  30.073   2.064  0.00  0.00    +0.144 HD
ENDBRANCH  10  13
ENDBRANCH   9  10
ENDBRANCH   1   4
BRANCH   1  16
ATOM     16  N   UNL     1     -36.714  22.542   2.682  0.00  0.00    +0.393 N 
ATOM     17  H   UNL     1     -36.834  22.981   3.594  0.00  0.00    -0.079 HD
BRANCH  16  18
ATOM     18  C   UNL     1     -36.091  23.511   1.781  0.00  0.00    -0.044 C 
BRANCH  18  19
ATOM     19  C   UNL     1     -34.707  23.907   2.257  0.00  0.00    +0.120 C 
BRANCH  19  20
ATOM     20  O   UNL     1     -34.817  24.946   3.222  0.00  0.00    -0.353 OA
BRANCH  20  21
ATOM     21  C   UNL     1     -34.327  24.533   4.490  0.00  0.00    +0.174 C 
BRANCH  21  22
ATOM     22  C   UNL     1     -35.458  24.586   5.500  0.00  0.00    +0.174 C 
BRANCH  22  23
ATOM     23  O   UNL     1     -36.113  23.324   5.528  0.00  0.00    -0.348 OA
ATOM     24  C   UNL     1     -35.402  22.386   6.323  0.00  0.00    +0.174 C 
ENDBRANCH  22  23
ENDBRANCH  21  22
ENDBRANCH  20  21
ENDBRANCH  19  20
ENDBRANCH  18  19
ENDBRANCH  16  18
BRANCH  16  25
ATOM     25  C   UNL     1     -35.859  21.368   2.841  0.00  0.00    -0.044 C 
BRANCH  25  26
ATOM     26  C   UNL     1     -36.187  20.296   1.818  0.00  0.00    +0.120 C 
BRANCH  26  27
ATOM     27  O   UNL     1     -34.987  19.654   1.405  0.00  0.00    -0.353 OA
ATOM     28  C   UNL     1     -34.261  20.450   0.480  0.00  0.00    +0.174 C 
ENDBRANCH  26  27
ENDBRANCH  25  26
ENDBRANCH  16  25
ENDBRANCH   1  16
TORSDOF 13
ENDMDL
