MODEL 1
REMARK VINA RESULT:      -6.7      0.000      0.000
REMARK  Name = 53360481
REMARK  14 active torsions:
REMARK  status: ('A' for Active; 'I' for Inactive)
REMARK    1  A    between atoms: C_1  and  C_3
REMARK    2  A    between atoms: C_1  and  C_16
REMARK    3  A    between atoms: C_1  and  O_32
REMARK    4  A    between atoms: C_5  and  O_9
REMARK    5  A    between atoms: C_6  and  O_11
REMARK    6  A    between atoms: C_7  and  C_13
REMARK    7  A    between atoms: C_13  and  O_14
REMARK    8  A    between atoms: C_17  and  C_19
REMARK    9  A    between atoms: C_19  and  C_20
REMARK   10  A    between atoms: C_20  and  C_21
REMARK   11  A    between atoms: C_20  and  O_30
REMARK   12  A    between atoms: C_22  and  C_24
REMARK   13  A    between atoms: C_24  and  C_25
REMARK   14  A    between atoms: C_25  and  C_26
REMARK                            x       y       z     vdW  Elec       q    Type
REMARK                         _______ _______ _______ _____ _____    ______ ____
ROOT
ATOM      1  C   UNL     1     -35.833  26.594   2.498  0.00  0.00    +0.162 C 
ENDROOT
BRANCH   1   3
ATOM      2  O   UNL     1     -34.378  24.678   2.860  0.00  0.00    -0.348 OA
ATOM      3  C   UNL     1     -35.464  25.450   3.399  0.00  0.00    +0.177 C 
ATOM      4  C   UNL     1     -35.667  24.046   2.908  0.00  0.00    +0.176 C 
ATOM      5  C   UNL     1     -35.350  25.722   4.867  0.00  0.00    +0.162 C 
ATOM      6  C   UNL     1     -35.758  22.909   3.884  0.00  0.00    +0.160 C 
ATOM      7  C   UNL     1     -35.503  23.249   5.337  0.00  0.00    +0.012 C 
ATOM      8  C   UNL     1     -35.325  24.515   5.761  0.00  0.00    +0.001 C 
BRANCH   5   9
ATOM      9  O   UNL     1     -36.455  26.521   5.298  0.00  0.00    -0.377 OA
ATOM     10  H   UNL     1     -37.249  26.269   4.802  0.00  0.00    +0.211 HD
ENDBRANCH   5   9
BRANCH   6  11
ATOM     11  O   UNL     1     -37.065  22.337   3.796  0.00  0.00    -0.378 OA
ATOM     12  H   UNL     1     -37.703  23.025   3.551  0.00  0.00    +0.211 HD
ENDBRANCH   6  11
BRANCH   7  13
ATOM     13  C   UNL     1     -35.445  22.092   6.295  0.00  0.00    +0.162 C 
BRANCH  13  14
ATOM     14  O   UNL     1     -35.235  20.893   5.576  0.00  0.00    -0.377 OA
ATOM     15  H   UNL     1     -34.448  20.443   5.921  0.00  0.00    +0.211 HD
ENDBRANCH  13  14
ENDBRANCH   7  13
ENDBRANCH   1   3
BRANCH   1  16
ATOM     16  C   UNL     1     -34.995  27.824   2.708  0.00  0.00    -0.003 C 
ATOM     17  C   UNL     1     -33.893  28.197   2.027  0.00  0.00    -0.043 C 
ATOM     18  C   UNL     1     -33.275  27.415   0.901  0.00  0.00    +0.026 C 
BRANCH  17  19
ATOM     19  C   UNL     1     -33.188  29.493   2.377  0.00  0.00    +0.056 C 
BRANCH  19  20
ATOM     20  C   UNL     1     -34.024  30.432   3.258  0.00  0.00    +0.136 C 
BRANCH  20  21
ATOM     21  C   UNL     1     -34.338  31.732   2.563  0.00  0.00    -0.006 C 
ATOM     22  C   UNL     1     -35.393  32.012   1.773  0.00  0.00    -0.046 C 
ATOM     23  C   UNL     1     -36.432  30.955   1.498  0.00  0.00    +0.026 C 
BRANCH  22  24
ATOM     24  C   UNL     1     -35.662  33.359   1.139  0.00  0.00    +0.026 C 
BRANCH  24  25
ATOM     25  C   UNL     1     -37.091  33.531   0.608  0.00  0.00    +0.030 C 
BRANCH  25  26
ATOM     26  C   UNL     1     -38.051  34.048   1.643  0.00  0.00    -0.034 C 
ATOM     27  C   UNL     1     -38.402  35.329   1.861  0.00  0.00    -0.048 C 
ATOM     28  C   UNL     1     -37.797  36.438   1.042  0.00  0.00    +0.026 C 
ATOM     29  C   UNL     1     -39.371  35.786   2.914  0.00  0.00    +0.026 C 
ENDBRANCH  25  26
ENDBRANCH  24  25
ENDBRANCH  22  24
ENDBRANCH  20  21
BRANCH  20  30
ATOM     30  O   UNL     1     -33.253  30.728   4.427  0.00  0.00    -0.380 OA
ATOM     31  H   UNL     1     -33.831  31.106   5.108  0.00  0.00    +0.211 HD
ENDBRANCH  20  30
ENDBRANCH  19  20
ENDBRANCH  17  19
ENDBRANCH   1  16
BRANCH   1  32
ATOM     32  O   UNL     1     -37.195  26.960   2.740  0.00  0.00    -0.377 OA
ATOM     33  H   UNL     1     -37.339  27.057   3.695  0.00  0.00    +0.211 HD
ENDBRANCH   1  32
TORSDOF 14
ENDMDL
MODEL 2
REMARK VINA RESULT:      -6.5      2.965      5.895
REMARK  Name = 53360481
REMARK  14 active torsions:
REMARK  status: ('A' for Active; 'I' for Inactive)
REMARK    1  A    between atoms: C_1  and  C_3
REMARK    2  A    between atoms: C_1  and  C_16
REMARK    3  A    between atoms: C_1  and  O_32
REMARK    4  A    between atoms: C_5  and  O_9
REMARK    5  A    between atoms: C_6  and  O_11
REMARK    6  A    between atoms: C_7  and  C_13
REMARK    7  A    between atoms: C_13  and  O_14
REMARK    8  A    between atoms: C_17  and  C_19
REMARK    9  A    between atoms: C_19  and  C_20
REMARK   10  A    between atoms: C_20  and  C_21
REMARK   11  A    between atoms: C_20  and  O_30
REMARK   12  A    between atoms: C_22  and  C_24
REMARK   13  A    between atoms: C_24  and  C_25
REMARK   14  A    between atoms: C_25  and  C_26
REMARK                            x       y       z     vdW  Elec       q    Type
REMARK                         _______ _______ _______ _____ _____    ______ ____
ROOT
ATOM      1  C   UNL     1     -35.950  26.676   2.575  0.00  0.00    +0.162 C 
ENDROOT
BRANCH   1   3
ATOM      2  O   UNL     1     -34.443  24.790   2.864  0.00  0.00    -0.348 OA
ATOM      3  C   UNL     1     -35.536  25.522   3.442  0.00  0.00    +0.177 C 
ATOM      4  C   UNL     1     -35.715  24.124   2.920  0.00  0.00    +0.176 C 
ATOM      5  C   UNL     1     -35.402  25.762   4.913  0.00  0.00    +0.162 C 
ATOM      6  C   UNL     1     -35.759  22.963   3.870  0.00  0.00    +0.160 C 
ATOM      7  C   UNL     1     -35.485  23.275   5.326  0.00  0.00    +0.012 C 
ATOM      8  C   UNL     1     -35.330  24.534   5.777  0.00  0.00    +0.001 C 
BRANCH   5   9
ATOM      9  O   UNL     1     -36.518  26.522   5.383  0.00  0.00    -0.377 OA
ATOM     10  H   UNL     1     -37.337  26.029   5.218  0.00  0.00    +0.211 HD
ENDBRANCH   5   9
BRANCH   6  11
ATOM     11  O   UNL     1     -37.053  22.361   3.792  0.00  0.00    -0.378 OA
ATOM     12  H   UNL     1     -37.337  22.088   4.678  0.00  0.00    +0.211 HD
ENDBRANCH   6  11
BRANCH   7  13
ATOM     13  C   UNL     1     -35.381  22.098   6.254  0.00  0.00    +0.162 C 
BRANCH  13  14
ATOM     14  O   UNL     1     -35.173  20.919   5.502  0.00  0.00    -0.377 OA
ATOM     15  H   UNL     1     -36.027  20.493   5.325  0.00  0.00    +0.211 HD
ENDBRANCH  13  14
ENDBRANCH   7  13
ENDBRANCH   1   3
BRANCH   1  16
ATOM     16  C   UNL     1     -35.199  27.947   2.862  0.00  0.00    -0.003 C 
ATOM     17  C   UNL     1     -35.312  29.132   2.229  0.00  0.00    -0.043 C 
ATOM     18  C   UNL     1     -36.236  29.403   1.074  0.00  0.00    +0.026 C 
BRANCH  17  19
ATOM     19  C   UNL     1     -34.474  30.313   2.677  0.00  0.00    +0.056 C 
BRANCH  19  20
ATOM     20  C   UNL     1     -32.968  30.017   2.731  0.00  0.00    +0.136 C 
BRANCH  20  21
ATOM     21  C   UNL     1     -32.373  30.342   4.076  0.00  0.00    -0.006 C 
ATOM     22  C   UNL     1     -32.048  29.486   5.065  0.00  0.00    -0.046 C 
ATOM     23  C   UNL     1     -32.273  28.007   4.886  0.00  0.00    +0.026 C 
BRANCH  22  24
ATOM     24  C   UNL     1     -31.414  29.887   6.380  0.00  0.00    +0.026 C 
BRANCH  24  25
ATOM     25  C   UNL     1     -29.887  30.023   6.327  0.00  0.00    +0.030 C 
BRANCH  25  26
ATOM     26  C   UNL     1     -29.166  28.877   6.981  0.00  0.00    -0.034 C 
ATOM     27  C   UNL     1     -28.523  27.865   6.371  0.00  0.00    -0.048 C 
ATOM     28  C   UNL     1     -28.492  27.774   4.869  0.00  0.00    +0.026 C 
ATOM     29  C   UNL     1     -27.818  26.745   7.081  0.00  0.00    +0.026 C 
ENDBRANCH  25  26
ENDBRANCH  24  25
ENDBRANCH  22  24
ENDBRANCH  20  21
BRANCH  20  30
ATOM     30  O   UNL     1     -32.330  30.842   1.751  0.00  0.00    -0.380 OA
ATOM     31  H   UNL     1     -32.494  30.479   0.867  0.00  0.00    +0.211 HD
ENDBRANCH  20  30
ENDBRANCH  19  20
ENDBRANCH  17  19
ENDBRANCH   1  16
BRANCH   1  32
ATOM     32  O   UNL     1     -37.339  26.946   2.787  0.00  0.00    -0.377 OA
ATOM     33  H   UNL     1     -37.844  26.120   2.718  0.00  0.00    +0.211 HD
ENDBRANCH   1  32
TORSDOF 14
ENDMDL
MODEL 3
REMARK VINA RESULT:      -6.4      3.605      5.296
REMARK  Name = 53360481
REMARK  14 active torsions:
REMARK  status: ('A' for Active; 'I' for Inactive)
REMARK    1  A    between atoms: C_1  and  C_3
REMARK    2  A    between atoms: C_1  and  C_16
REMARK    3  A    between atoms: C_1  and  O_32
REMARK    4  A    between atoms: C_5  and  O_9
REMARK    5  A    between atoms: C_6  and  O_11
REMARK    6  A    between atoms: C_7  and  C_13
REMARK    7  A    between atoms: C_13  and  O_14
REMARK    8  A    between atoms: C_17  and  C_19
REMARK    9  A    between atoms: C_19  and  C_20
REMARK   10  A    between atoms: C_20  and  C_21
REMARK   11  A    between atoms: C_20  and  O_30
REMARK   12  A    between atoms: C_22  and  C_24
REMARK   13  A    between atoms: C_24  and  C_25
REMARK   14  A    between atoms: C_25  and  C_26
REMARK                            x       y       z     vdW  Elec       q    Type
REMARK                         _______ _______ _______ _____ _____    ______ ____
ROOT
ATOM      1  C   UNL     1     -35.751  26.656   2.568  0.00  0.00    +0.162 C 
ENDROOT
BRANCH   1   3
ATOM      2  O   UNL     1     -34.305  24.737   2.943  0.00  0.00    -0.348 OA
ATOM      3  C   UNL     1     -35.402  25.504   3.465  0.00  0.00    +0.177 C 
ATOM      4  C   UNL     1     -35.594  24.104   2.956  0.00  0.00    +0.176 C 
ATOM      5  C   UNL     1     -35.322  25.761   4.938  0.00  0.00    +0.162 C 
ATOM      6  C   UNL     1     -35.707  22.958   3.918  0.00  0.00    +0.160 C 
ATOM      7  C   UNL     1     -35.486  23.283   5.380  0.00  0.00    +0.012 C 
ATOM      8  C   UNL     1     -35.318  24.544   5.820  0.00  0.00    +0.001 C 
BRANCH   5   9
ATOM      9  O   UNL     1     -36.437  26.555   5.352  0.00  0.00    -0.377 OA
ATOM     10  H   UNL     1     -36.828  26.171   6.152  0.00  0.00    +0.211 HD
ENDBRANCH   5   9
BRANCH   6  11
ATOM     11  O   UNL     1     -37.012  22.387   3.794  0.00  0.00    -0.378 OA
ATOM     12  H   UNL     1     -37.382  22.611   2.926  0.00  0.00    +0.211 HD
ENDBRANCH   6  11
BRANCH   7  13
ATOM     13  C   UNL     1     -35.450  22.116   6.326  0.00  0.00    +0.162 C 
BRANCH  13  14
ATOM     14  O   UNL     1     -35.231  20.923   5.599  0.00  0.00    -0.377 OA
ATOM     15  H   UNL     1     -35.910  20.271   5.836  0.00  0.00    +0.211 HD
ENDBRANCH  13  14
ENDBRANCH   7  13
ENDBRANCH   1   3
BRANCH   1  16
ATOM     16  C   UNL     1     -34.914  27.883   2.806  0.00  0.00    -0.003 C 
ATOM     17  C   UNL     1     -33.795  28.256   2.155  0.00  0.00    -0.043 C 
ATOM     18  C   UNL     1     -33.152  27.480   1.039  0.00  0.00    +0.026 C 
BRANCH  17  19
ATOM     19  C   UNL     1     -33.095  29.548   2.530  0.00  0.00    +0.056 C 
BRANCH  19  20
ATOM     20  C   UNL     1     -31.736  29.737   1.840  0.00  0.00    +0.136 C 
BRANCH  20  21
ATOM     21  C   UNL     1     -30.611  29.881   2.832  0.00  0.00    -0.006 C 
ATOM     22  C   UNL     1     -29.722  28.943   3.214  0.00  0.00    -0.046 C 
ATOM     23  C   UNL     1     -29.789  27.556   2.629  0.00  0.00    +0.026 C 
BRANCH  22  24
ATOM     24  C   UNL     1     -28.590  29.176   4.192  0.00  0.00    +0.026 C 
BRANCH  24  25
ATOM     25  C   UNL     1     -29.042  29.372   5.644  0.00  0.00    +0.030 C 
BRANCH  25  26
ATOM     26  C   UNL     1     -30.097  28.391   6.076  0.00  0.00    -0.034 C 
ATOM     27  C   UNL     1     -31.388  28.653   6.353  0.00  0.00    -0.048 C 
ATOM     28  C   UNL     1     -31.917  30.060   6.272  0.00  0.00    +0.026 C 
ATOM     29  C   UNL     1     -32.398  27.628   6.781  0.00  0.00    +0.026 C 
ENDBRANCH  25  26
ENDBRANCH  24  25
ENDBRANCH  22  24
ENDBRANCH  20  21
BRANCH  20  30
ATOM     30  O   UNL     1     -31.807  30.941   1.070  0.00  0.00    -0.380 OA
ATOM     31  H   UNL     1     -31.899  30.719   0.131  0.00  0.00    +0.211 HD
ENDBRANCH  20  30
ENDBRANCH  19  20
ENDBRANCH  17  19
ENDBRANCH   1  16
BRANCH   1  32
ATOM     32  O   UNL     1     -37.116  27.023   2.785  0.00  0.00    -0.377 OA
ATOM     33  H   UNL     1     -37.553  27.164   1.931  0.00  0.00    +0.211 HD
ENDBRANCH   1  32
TORSDOF 14
ENDMDL
MODEL 4
REMARK VINA RESULT:      -6.3      4.755      7.330
REMARK  Name = 53360481
REMARK  14 active torsions:
REMARK  status: ('A' for Active; 'I' for Inactive)
REMARK    1  A    between atoms: C_1  and  C_3
REMARK    2  A    between atoms: C_1  and  C_16
REMARK    3  A    between atoms: C_1  and  O_32
REMARK    4  A    between atoms: C_5  and  O_9
REMARK    5  A    between atoms: C_6  and  O_11
REMARK    6  A    between atoms: C_7  and  C_13
REMARK    7  A    between atoms: C_13  and  O_14
REMARK    8  A    between atoms: C_17  and  C_19
REMARK    9  A    between atoms: C_19  and  C_20
REMARK   10  A    between atoms: C_20  and  C_21
REMARK   11  A    between atoms: C_20  and  O_30
REMARK   12  A    between atoms: C_22  and  C_24
REMARK   13  A    between atoms: C_24  and  C_25
REMARK   14  A    between atoms: C_25  and  C_26
REMARK                            x       y       z     vdW  Elec       q    Type
REMARK                         _______ _______ _______ _____ _____    ______ ____
ROOT
ATOM      1  C   UNL     1     -36.153  23.197   5.184  0.00  0.00    +0.162 C 
ENDROOT
BRANCH   1   3
ATOM      2  O   UNL     1     -36.194  23.451   2.765  0.00  0.00    -0.348 OA
ATOM      3  C   UNL     1     -36.132  22.509   3.849  0.00  0.00    +0.177 C 
ATOM      4  C   UNL     1     -37.341  22.608   2.963  0.00  0.00    +0.176 C 
ATOM      5  C   UNL     1     -35.141  21.406   3.644  0.00  0.00    +0.162 C 
ATOM      6  C   UNL     1     -37.561  21.603   1.870  0.00  0.00    +0.160 C 
ATOM      7  C   UNL     1     -36.450  20.600   1.645  0.00  0.00    +0.012 C 
ATOM      8  C   UNL     1     -35.374  20.523   2.450  0.00  0.00    +0.001 C 
BRANCH   5   9
ATOM      9  O   UNL     1     -35.130  20.546   4.786  0.00  0.00    -0.377 OA
ATOM     10  H   UNL     1     -35.620  20.965   5.511  0.00  0.00    +0.211 HD
ENDBRANCH   5   9
BRANCH   6  11
ATOM     11  O   UNL     1     -38.754  20.870   2.161  0.00  0.00    -0.378 OA
ATOM     12  H   UNL     1     -38.553  19.922   2.183  0.00  0.00    +0.211 HD
ENDBRANCH   6  11
BRANCH   7  13
ATOM     13  C   UNL     1     -36.600  19.691   0.458  0.00  0.00    +0.162 C 
BRANCH  13  14
ATOM     14  O   UNL     1     -37.186  18.470   0.868  0.00  0.00    -0.377 OA
ATOM     15  H   UNL     1     -36.898  17.758   0.274  0.00  0.00    +0.211 HD
ENDBRANCH  13  14
ENDBRANCH   7  13
ENDBRANCH   1   3
BRANCH   1  16
ATOM     16  C   UNL     1     -34.999  24.138   5.397  0.00  0.00    -0.003 C 
ATOM     17  C   UNL     1     -35.025  25.486   5.403  0.00  0.00    -0.043 C 
ATOM     18  C   UNL     1     -36.255  26.321   5.177  0.00  0.00    +0.026 C 
BRANCH  17  19
ATOM     19  C   UNL     1     -33.751  26.267   5.654  0.00  0.00    +0.056 C 
BRANCH  19  20
ATOM     20  C   UNL     1     -33.328  27.156   4.475  0.00  0.00    +0.136 C 
BRANCH  20  21
ATOM     21  C   UNL     1     -32.769  26.352   3.330  0.00  0.00    -0.006 C 
ATOM     22  C   UNL     1     -33.344  26.103   2.138  0.00  0.00    -0.046 C 
ATOM     23  C   UNL     1     -34.711  26.657   1.828  0.00  0.00    +0.026 C 
BRANCH  22  24
ATOM     24  C   UNL     1     -32.700  25.315   1.017  0.00  0.00    +0.026 C 
BRANCH  24  25
ATOM     25  C   UNL     1     -33.690  24.521   0.156  0.00  0.00    +0.030 C 
BRANCH  25  26
ATOM     26  C   UNL     1     -33.587  23.033   0.350  0.00  0.00    -0.034 C 
ATOM     27  C   UNL     1     -32.722  22.192  -0.247  0.00  0.00    -0.048 C 
ATOM     28  C   UNL     1     -31.727  22.705  -1.252  0.00  0.00    +0.026 C 
ATOM     29  C   UNL     1     -32.667  20.710  -0.011  0.00  0.00    +0.026 C 
ENDBRANCH  25  26
ENDBRANCH  24  25
ENDBRANCH  22  24
ENDBRANCH  20  21
BRANCH  20  30
ATOM     30  O   UNL     1     -32.301  28.035   4.944  0.00  0.00    -0.380 OA
ATOM     31  H   UNL     1     -31.517  27.945   4.381  0.00  0.00    +0.211 HD
ENDBRANCH  20  30
ENDBRANCH  19  20
ENDBRANCH  17  19
ENDBRANCH   1  16
BRANCH   1  32
ATOM     32  O   UNL     1     -36.096  22.212   6.220  0.00  0.00    -0.377 OA
ATOM     33  H   UNL     1     -36.994  22.018   6.531  0.00  0.00    +0.211 HD
ENDBRANCH   1  32
TORSDOF 14
ENDMDL
MODEL 5
REMARK VINA RESULT:      -6.3      1.498      2.157
REMARK  Name = 53360481
REMARK  14 active torsions:
REMARK  status: ('A' for Active; 'I' for Inactive)
REMARK    1  A    between atoms: C_1  and  C_3
REMARK    2  A    between atoms: C_1  and  C_16
REMARK    3  A    between atoms: C_1  and  O_32
REMARK    4  A    between atoms: C_5  and  O_9
REMARK    5  A    between atoms: C_6  and  O_11
REMARK    6  A    between atoms: C_7  and  C_13
REMARK    7  A    between atoms: C_13  and  O_14
REMARK    8  A    between atoms: C_17  and  C_19
REMARK    9  A    between atoms: C_19  and  C_20
REMARK   10  A    between atoms: C_20  and  C_21
REMARK   11  A    between atoms: C_20  and  O_30
REMARK   12  A    between atoms: C_22  and  C_24
REMARK   13  A    between atoms: C_24  and  C_25
REMARK   14  A    between atoms: C_25  and  C_26
REMARK                            x       y       z     vdW  Elec       q    Type
REMARK                         _______ _______ _______ _____ _____    ______ ____
ROOT
ATOM      1  C   UNL     1     -35.846  26.563   2.517  0.00  0.00    +0.162 C 
ENDROOT
BRANCH   1   3
ATOM      2  O   UNL     1     -34.373  24.662   2.878  0.00  0.00    -0.348 OA
ATOM      3  C   UNL     1     -35.468  25.422   3.417  0.00  0.00    +0.177 C 
ATOM      4  C   UNL     1     -35.656  24.016   2.923  0.00  0.00    +0.176 C 
ATOM      5  C   UNL     1     -35.361  25.692   4.885  0.00  0.00    +0.162 C 
ATOM      6  C   UNL     1     -35.737  22.877   3.896  0.00  0.00    +0.160 C 
ATOM      7  C   UNL     1     -35.490  23.217   5.350  0.00  0.00    +0.012 C 
ATOM      8  C   UNL     1     -35.326  24.483   5.777  0.00  0.00    +0.001 C 
BRANCH   5   9
ATOM      9  O   UNL     1     -36.475  26.478   5.315  0.00  0.00    -0.377 OA
ATOM     10  H   UNL     1     -37.285  26.146   4.898  0.00  0.00    +0.211 HD
ENDBRANCH   5   9
BRANCH   6  11
ATOM     11  O   UNL     1     -37.039  22.292   3.803  0.00  0.00    -0.378 OA
ATOM     12  H   UNL     1     -37.029  21.587   3.137  0.00  0.00    +0.211 HD
ENDBRANCH   6  11
BRANCH   7  13
ATOM     13  C   UNL     1     -35.423  22.058   6.306  0.00  0.00    +0.162 C 
BRANCH  13  14
ATOM     14  O   UNL     1     -35.253  20.856   5.581  0.00  0.00    -0.377 OA
ATOM     15  H   UNL     1     -34.318  20.596   5.601  0.00  0.00    +0.211 HD
ENDBRANCH  13  14
ENDBRANCH   7  13
ENDBRANCH   1   3
BRANCH   1  16
ATOM     16  C   UNL     1     -35.023  27.803   2.734  0.00  0.00    -0.003 C 
ATOM     17  C   UNL     1     -33.912  28.181   2.072  0.00  0.00    -0.043 C 
ATOM     18  C   UNL     1     -33.265  27.397   0.964  0.00  0.00    +0.026 C 
BRANCH  17  19
ATOM     19  C   UNL     1     -33.226  29.486   2.427  0.00  0.00    +0.056 C 
BRANCH  19  20
ATOM     20  C   UNL     1     -34.189  30.574   2.925  0.00  0.00    +0.136 C 
BRANCH  20  21
ATOM     21  C   UNL     1     -34.266  31.741   1.975  0.00  0.00    -0.006 C 
ATOM     22  C   UNL     1     -35.372  32.322   1.470  0.00  0.00    -0.046 C 
ATOM     23  C   UNL     1     -36.736  31.807   1.850  0.00  0.00    +0.026 C 
BRANCH  22  24
ATOM     24  C   UNL     1     -35.371  33.522   0.548  0.00  0.00    +0.026 C 
BRANCH  24  25
ATOM     25  C   UNL     1     -35.616  34.861   1.255  0.00  0.00    +0.030 C 
BRANCH  25  26
ATOM     26  C   UNL     1     -34.576  35.900   0.938  0.00  0.00    -0.034 C 
ATOM     27  C   UNL     1     -33.376  36.057   1.526  0.00  0.00    -0.048 C 
ATOM     28  C   UNL     1     -32.952  35.153   2.652  0.00  0.00    +0.026 C 
ATOM     29  C   UNL     1     -32.376  37.118   1.164  0.00  0.00    +0.026 C 
ENDBRANCH  25  26
ENDBRANCH  24  25
ENDBRANCH  22  24
ENDBRANCH  20  21
BRANCH  20  30
ATOM     30  O   UNL     1     -33.687  31.053   4.177  0.00  0.00    -0.380 OA
ATOM     31  H   UNL     1     -33.838  30.383   4.863  0.00  0.00    +0.211 HD
ENDBRANCH  20  30
ENDBRANCH  19  20
ENDBRANCH  17  19
ENDBRANCH   1  16
BRANCH   1  32
ATOM     32  O   UNL     1     -37.213  26.912   2.753  0.00  0.00    -0.377 OA
ATOM     33  H   UNL     1     -37.441  27.699   2.233  0.00  0.00    +0.211 HD
ENDBRANCH   1  32
TORSDOF 14
ENDMDL
MODEL 6
REMARK VINA RESULT:      -6.2      4.283      8.676
REMARK  Name = 53360481
REMARK  14 active torsions:
REMARK  status: ('A' for Active; 'I' for Inactive)
REMARK    1  A    between atoms: C_1  and  C_3
REMARK    2  A    between atoms: C_1  and  C_16
REMARK    3  A    between atoms: C_1  and  O_32
REMARK    4  A    between atoms: C_5  and  O_9
REMARK    5  A    between atoms: C_6  and  O_11
REMARK    6  A    between atoms: C_7  and  C_13
REMARK    7  A    between atoms: C_13  and  O_14
REMARK    8  A    between atoms: C_17  and  C_19
REMARK    9  A    between atoms: C_19  and  C_20
REMARK   10  A    between atoms: C_20  and  C_21
REMARK   11  A    between atoms: C_20  and  O_30
REMARK   12  A    between atoms: C_22  and  C_24
REMARK   13  A    between atoms: C_24  and  C_25
REMARK   14  A    between atoms: C_25  and  C_26
REMARK                            x       y       z     vdW  Elec       q    Type
REMARK                         _______ _______ _______ _____ _____    ______ ____
ROOT
ATOM      1  C   UNL     1     -35.617  25.475   5.114  0.00  0.00    +0.162 C 
ENDROOT
BRANCH   1   3
ATOM      2  O   UNL     1     -33.235  25.493   4.625  0.00  0.00    -0.348 OA
ATOM      3  C   UNL     1     -34.457  26.247   4.555  0.00  0.00    +0.177 C 
ATOM      4  C   UNL     1     -33.340  26.645   5.478  0.00  0.00    +0.176 C 
ATOM      5  C   UNL     1     -34.654  26.972   3.261  0.00  0.00    +0.162 C 
ATOM      6  C   UNL     1     -32.418  27.769   5.107  0.00  0.00    +0.160 C 
ATOM      7  C   UNL     1     -32.603  28.363   3.727  0.00  0.00    +0.012 C 
ATOM      8  C   UNL     1     -33.611  27.997   2.914  0.00  0.00    +0.001 C 
BRANCH   5   9
ATOM      9  O   UNL     1     -35.907  27.661   3.278  0.00  0.00    -0.377 OA
ATOM     10  H   UNL     1     -36.202  27.771   4.196  0.00  0.00    +0.211 HD
ENDBRANCH   5   9
BRANCH   6  11
ATOM     11  O   UNL     1     -32.582  28.824   6.058  0.00  0.00    -0.378 OA
ATOM     12  H   UNL     1     -31.730  29.261   6.207  0.00  0.00    +0.211 HD
ENDBRANCH   6  11
BRANCH   7  13
ATOM     13  C   UNL     1     -31.588  29.385   3.297  0.00  0.00    +0.162 C 
BRANCH  13  14
ATOM     14  O   UNL     1     -31.889  30.631   3.893  0.00  0.00    -0.377 OA
ATOM     15  H   UNL     1     -31.762  30.569   4.853  0.00  0.00    +0.211 HD
ENDBRANCH  13  14
ENDBRANCH   7  13
ENDBRANCH   1   3
BRANCH   1  16
ATOM     16  C   UNL     1     -36.168  24.442   4.169  0.00  0.00    -0.003 C 
ATOM     17  C   UNL     1     -36.004  23.106   4.224  0.00  0.00    -0.043 C 
ATOM     18  C   UNL     1     -35.204  22.381   5.271  0.00  0.00    +0.026 C 
BRANCH  17  19
ATOM     19  C   UNL     1     -36.657  22.220   3.181  0.00  0.00    +0.056 C 
BRANCH  19  20
ATOM     20  C   UNL     1     -35.802  21.009   2.777  0.00  0.00    +0.136 C 
BRANCH  20  21
ATOM     21  C   UNL     1     -35.099  21.225   1.462  0.00  0.00    -0.006 C 
ATOM     22  C   UNL     1     -34.124  20.473   0.914  0.00  0.00    -0.046 C 
ATOM     23  C   UNL     1     -33.617  19.251   1.636  0.00  0.00    +0.026 C 
BRANCH  22  24
ATOM     24  C   UNL     1     -33.491  20.733  -0.436  0.00  0.00    +0.026 C 
BRANCH  24  25
ATOM     25  C   UNL     1     -33.735  22.144  -0.985  0.00  0.00    +0.030 C 
BRANCH  25  26
ATOM     26  C   UNL     1     -32.833  23.183  -0.378  0.00  0.00    -0.034 C 
ATOM     27  C   UNL     1     -33.200  24.316   0.246  0.00  0.00    -0.048 C 
ATOM     28  C   UNL     1     -34.655  24.680   0.377  0.00  0.00    +0.026 C 
ATOM     29  C   UNL     1     -32.249  25.319   0.834  0.00  0.00    +0.026 C 
ENDBRANCH  25  26
ENDBRANCH  24  25
ENDBRANCH  22  24
ENDBRANCH  20  21
BRANCH  20  30
ATOM     30  O   UNL     1     -36.682  19.889   2.632  0.00  0.00    -0.380 OA
ATOM     31  H   UNL     1     -36.250  19.093   2.978  0.00  0.00    +0.211 HD
ENDBRANCH  20  30
ENDBRANCH  19  20
ENDBRANCH  17  19
ENDBRANCH   1  16
BRANCH   1  32
ATOM     32  O   UNL     1     -36.680  26.383   5.418  0.00  0.00    -0.377 OA
ATOM     33  H   UNL     1     -36.508  26.807   6.274  0.00  0.00    +0.211 HD
ENDBRANCH   1  32
TORSDOF 14
ENDMDL
MODEL 7
REMARK VINA RESULT:      -6.2      4.645      6.967
REMARK  Name = 53360481
REMARK  14 active torsions:
REMARK  status: ('A' for Active; 'I' for Inactive)
REMARK    1  A    between atoms: C_1  and  C_3
REMARK    2  A    between atoms: C_1  and  C_16
REMARK    3  A    between atoms: C_1  and  O_32
REMARK    4  A    between atoms: C_5  and  O_9
REMARK    5  A    between atoms: C_6  and  O_11
REMARK    6  A    between atoms: C_7  and  C_13
REMARK    7  A    between atoms: C_13  and  O_14
REMARK    8  A    between atoms: C_17  and  C_19
REMARK    9  A    between atoms: C_19  and  C_20
REMARK   10  A    between atoms: C_20  and  C_21
REMARK   11  A    between atoms: C_20  and  O_30
REMARK   12  A    between atoms: C_22  and  C_24
REMARK   13  A    between atoms: C_24  and  C_25
REMARK   14  A    between atoms: C_25  and  C_26
REMARK                            x       y       z     vdW  Elec       q    Type
REMARK                         _______ _______ _______ _____ _____    ______ ____
ROOT
ATOM      1  C   UNL     1     -36.099  21.312   3.362  0.00  0.00    +0.162 C 
ENDROOT
BRANCH   1   3
ATOM      2  O   UNL     1     -37.186  22.729   1.711  0.00  0.00    -0.348 OA
ATOM      3  C   UNL     1     -36.972  21.374   2.142  0.00  0.00    +0.177 C 
ATOM      4  C   UNL     1     -38.320  22.029   2.248  0.00  0.00    +0.176 C 
ATOM      5  C   UNL     1     -36.691  20.415   1.028  0.00  0.00    +0.162 C 
ATOM      6  C   UNL     1     -39.389  21.726   1.240  0.00  0.00    +0.160 C 
ATOM      7  C   UNL     1     -38.985  20.850   0.074  0.00  0.00    +0.012 C 
ATOM      8  C   UNL     1     -37.773  20.268  -0.005  0.00  0.00    +0.001 C 
BRANCH   5   9
ATOM      9  O   UNL     1     -36.461  19.108   1.560  0.00  0.00    -0.377 OA
ATOM     10  H   UNL     1     -37.214  18.848   2.113  0.00  0.00    +0.211 HD
ENDBRANCH   5   9
BRANCH   6  11
ATOM     11  O   UNL     1     -40.476  21.081   1.910  0.00  0.00    -0.378 OA
ATOM     12  H   UNL     1     -40.799  20.345   1.367  0.00  0.00    +0.211 HD
ENDBRANCH   6  11
BRANCH   7  13
ATOM     13  C   UNL     1     -40.008  20.668  -1.012  0.00  0.00    +0.162 C 
BRANCH  13  14
ATOM     14  O   UNL     1     -41.149  20.020  -0.484  0.00  0.00    -0.377 OA
ATOM     15  H   UNL     1     -41.074  19.063  -0.630  0.00  0.00    +0.211 HD
ENDBRANCH  13  14
ENDBRANCH   7  13
ENDBRANCH   1   3
BRANCH   1  16
ATOM     16  C   UNL     1     -35.694  22.662   3.885  0.00  0.00    -0.003 C 
ATOM     17  C   UNL     1     -35.388  22.996   5.155  0.00  0.00    -0.043 C 
ATOM     18  C   UNL     1     -35.408  22.046   6.320  0.00  0.00    +0.026 C 
BRANCH  17  19
ATOM     19  C   UNL     1     -34.983  24.419   5.488  0.00  0.00    +0.056 C 
BRANCH  19  20
ATOM     20  C   UNL     1     -35.637  25.475   4.583  0.00  0.00    +0.136 C 
BRANCH  20  21
ATOM     21  C   UNL     1     -34.641  26.488   4.082  0.00  0.00    -0.006 C 
ATOM     22  C   UNL     1     -33.955  26.468   2.923  0.00  0.00    -0.046 C 
ATOM     23  C   UNL     1     -34.147  25.332   1.951  0.00  0.00    +0.026 C 
BRANCH  22  24
ATOM     24  C   UNL     1     -32.996  27.548   2.469  0.00  0.00    +0.026 C 
BRANCH  24  25
ATOM     25  C   UNL     1     -31.755  27.701   3.357  0.00  0.00    +0.030 C 
BRANCH  25  26
ATOM     26  C   UNL     1     -31.731  28.992   4.128  0.00  0.00    -0.034 C 
ATOM     27  C   UNL     1     -31.902  29.152   5.453  0.00  0.00    -0.048 C 
ATOM     28  C   UNL     1     -32.177  27.966   6.338  0.00  0.00    +0.026 C 
ATOM     29  C   UNL     1     -31.867  30.472   6.168  0.00  0.00    +0.026 C 
ENDBRANCH  25  26
ENDBRANCH  24  25
ENDBRANCH  22  24
ENDBRANCH  20  21
BRANCH  20  30
ATOM     30  O   UNL     1     -36.618  26.164   5.365  0.00  0.00    -0.380 OA
ATOM     31  H   UNL     1     -36.412  27.112   5.378  0.00  0.00    +0.211 HD
ENDBRANCH  20  30
ENDBRANCH  19  20
ENDBRANCH  17  19
ENDBRANCH   1  16
BRANCH   1  32
ATOM     32  O   UNL     1     -34.898  20.602   3.042  0.00  0.00    -0.377 OA
ATOM     33  H   UNL     1     -35.103  19.663   2.912  0.00  0.00    +0.211 HD
ENDBRANCH   1  32
TORSDOF 14
ENDMDL
MODEL 8
REMARK VINA RESULT:      -6.0      4.462      9.842
REMARK  Name = 53360481
REMARK  14 active torsions:
REMARK  status: ('A' for Active; 'I' for Inactive)
REMARK    1  A    between atoms: C_1  and  C_3
REMARK    2  A    between atoms: C_1  and  C_16
REMARK    3  A    between atoms: C_1  and  O_32
REMARK    4  A    between atoms: C_5  and  O_9
REMARK    5  A    between atoms: C_6  and  O_11
REMARK    6  A    between atoms: C_7  and  C_13
REMARK    7  A    between atoms: C_13  and  O_14
REMARK    8  A    between atoms: C_17  and  C_19
REMARK    9  A    between atoms: C_19  and  C_20
REMARK   10  A    between atoms: C_20  and  C_21
REMARK   11  A    between atoms: C_20  and  O_30
REMARK   12  A    between atoms: C_22  and  C_24
REMARK   13  A    between atoms: C_24  and  C_25
REMARK   14  A    between atoms: C_25  and  C_26
REMARK                            x       y       z     vdW  Elec       q    Type
REMARK                         _______ _______ _______ _____ _____    ______ ____
ROOT
ATOM      1  C   UNL     1     -35.646  25.635   5.352  0.00  0.00    +0.162 C 
ENDROOT
BRANCH   1   3
ATOM      2  O   UNL     1     -33.241  25.472   5.034  0.00  0.00    -0.348 OA
ATOM      3  C   UNL     1     -34.391  26.322   4.896  0.00  0.00    +0.177 C 
ATOM      4  C   UNL     1     -33.317  26.612   5.905  0.00  0.00    +0.176 C 
ATOM      5  C   UNL     1     -34.437  27.086   3.610  0.00  0.00    +0.162 C 
ATOM      6  C   UNL     1     -32.286  27.667   5.629  0.00  0.00    +0.160 C 
ATOM      7  C   UNL     1     -32.323  28.300   4.255  0.00  0.00    +0.012 C 
ATOM      8  C   UNL     1     -33.295  28.031   3.363  0.00  0.00    +0.001 C 
BRANCH   5   9
ATOM      9  O   UNL     1     -35.630  27.872   3.555  0.00  0.00    -0.377 OA
ATOM     10  H   UNL     1     -35.751  28.335   4.399  0.00  0.00    +0.211 HD
ENDBRANCH   5   9
BRANCH   6  11
ATOM     11  O   UNL     1     -32.436  28.713   6.592  0.00  0.00    -0.378 OA
ATOM     12  H   UNL     1     -32.548  28.326   7.475  0.00  0.00    +0.211 HD
ENDBRANCH   6  11
BRANCH   7  13
ATOM     13  C   UNL     1     -31.203  29.246   3.924  0.00  0.00    +0.162 C 
BRANCH  13  14
ATOM     14  O   UNL     1     -30.062  28.916   4.691  0.00  0.00    -0.377 OA
ATOM     15  H   UNL     1     -29.927  27.955   4.673  0.00  0.00    +0.211 HD
ENDBRANCH  13  14
ENDBRANCH   7  13
ENDBRANCH   1   3
BRANCH   1  16
ATOM     16  C   UNL     1     -36.136  24.578   4.400  0.00  0.00    -0.003 C 
ATOM     17  C   UNL     1     -35.956  23.245   4.485  0.00  0.00    -0.043 C 
ATOM     18  C   UNL     1     -35.196  22.550   5.580  0.00  0.00    +0.026 C 
BRANCH  17  19
ATOM     19  C   UNL     1     -36.546  22.333   3.427  0.00  0.00    +0.056 C 
BRANCH  19  20
ATOM     20  C   UNL     1     -35.776  21.015   3.250  0.00  0.00    +0.136 C 
BRANCH  20  21
ATOM     21  C   UNL     1     -34.671  21.137   2.234  0.00  0.00    -0.006 C 
ATOM     22  C   UNL     1     -34.727  21.712   1.017  0.00  0.00    -0.046 C 
ATOM     23  C   UNL     1     -36.014  22.332   0.534  0.00  0.00    +0.026 C 
BRANCH  22  24
ATOM     24  C   UNL     1     -33.558  21.832   0.064  0.00  0.00    +0.026 C 
BRANCH  24  25
ATOM     25  C   UNL     1     -33.208  20.531  -0.671  0.00  0.00    +0.030 C 
BRANCH  25  26
ATOM     26  C   UNL     1     -31.999  19.837  -0.108  0.00  0.00    -0.034 C 
ATOM     27  C   UNL     1     -31.970  18.682   0.582  0.00  0.00    -0.048 C 
ATOM     28  C   UNL     1     -33.245  17.946   0.894  0.00  0.00    +0.026 C 
ATOM     29  C   UNL     1     -30.725  18.036   1.120  0.00  0.00    +0.026 C 
ENDBRANCH  25  26
ENDBRANCH  24  25
ENDBRANCH  22  24
ENDBRANCH  20  21
BRANCH  20  30
ATOM     30  O   UNL     1     -36.705  20.033   2.780  0.00  0.00    -0.380 OA
ATOM     31  H   UNL     1     -36.221  19.308   2.356  0.00  0.00    +0.211 HD
ENDBRANCH  20  30
ENDBRANCH  19  20
ENDBRANCH  17  19
ENDBRANCH   1  16
BRANCH   1  32
ATOM     32  O   UNL     1     -36.690  26.605   5.485  0.00  0.00    -0.377 OA
ATOM     33  H   UNL     1     -36.633  27.243   4.757  0.00  0.00    +0.211 HD
ENDBRANCH   1  32
TORSDOF 14
ENDMDL
MODEL 9
REMARK VINA RESULT:      -5.9      4.469      8.426
REMARK  Name = 53360481
REMARK  14 active torsions:
REMARK  status: ('A' for Active; 'I' for Inactive)
REMARK    1  A    between atoms: C_1  and  C_3
REMARK    2  A    between atoms: C_1  and  C_16
REMARK    3  A    between atoms: C_1  and  O_32
REMARK    4  A    between atoms: C_5  and  O_9
REMARK    5  A    between atoms: C_6  and  O_11
REMARK    6  A    between atoms: C_7  and  C_13
REMARK    7  A    between atoms: C_13  and  O_14
REMARK    8  A    between atoms: C_17  and  C_19
REMARK    9  A    between atoms: C_19  and  C_20
REMARK   10  A    between atoms: C_20  and  C_21
REMARK   11  A    between atoms: C_20  and  O_30
REMARK   12  A    between atoms: C_22  and  C_24
REMARK   13  A    between atoms: C_24  and  C_25
REMARK   14  A    between atoms: C_25  and  C_26
REMARK                            x       y       z     vdW  Elec       q    Type
REMARK                         _______ _______ _______ _____ _____    ______ ____
ROOT
ATOM      1  C   UNL     1     -35.716  26.744   2.796  0.00  0.00    +0.162 C 
ENDROOT
BRANCH   1   3
ATOM      2  O   UNL     1     -34.267  24.808   3.055  0.00  0.00    -0.348 OA
ATOM      3  C   UNL     1     -35.371  25.535   3.618  0.00  0.00    +0.177 C 
ATOM      4  C   UNL     1     -35.555  24.172   3.014  0.00  0.00    +0.176 C 
ATOM      5  C   UNL     1     -35.306  25.693   5.105  0.00  0.00    +0.162 C 
ATOM      6  C   UNL     1     -35.672  22.964   3.896  0.00  0.00    +0.160 C 
ATOM      7  C   UNL     1     -35.464  23.191   5.379  0.00  0.00    +0.012 C 
ATOM      8  C   UNL     1     -35.304  24.420   5.904  0.00  0.00    +0.001 C 
BRANCH   5   9
ATOM      9  O   UNL     1     -36.426  26.455   5.561  0.00  0.00    -0.377 OA
ATOM     10  H   UNL     1     -36.761  26.073   6.387  0.00  0.00    +0.211 HD
ENDBRANCH   5   9
BRANCH   6  11
ATOM     11  O   UNL     1     -36.974  22.399   3.723  0.00  0.00    -0.378 OA
ATOM     12  H   UNL     1     -37.101  21.678   4.359  0.00  0.00    +0.211 HD
ENDBRANCH   6  11
BRANCH   7  13
ATOM     13  C   UNL     1     -35.433  21.964   6.246  0.00  0.00    +0.162 C 
BRANCH  13  14
ATOM     14  O   UNL     1     -35.171  20.827   5.447  0.00  0.00    -0.377 OA
ATOM     15  H   UNL     1     -35.420  21.013   4.528  0.00  0.00    +0.211 HD
ENDBRANCH  13  14
ENDBRANCH   7  13
ENDBRANCH   1   3
BRANCH   1  16
ATOM     16  C   UNL     1     -34.980  26.813   1.486  0.00  0.00    -0.003 C 
ATOM     17  C   UNL     1     -35.471  26.582   0.252  0.00  0.00    -0.043 C 
ATOM     18  C   UNL     1     -36.890  26.186  -0.047  0.00  0.00    +0.026 C 
BRANCH  17  19
ATOM     19  C   UNL     1     -34.570  26.720  -0.960  0.00  0.00    +0.056 C 
BRANCH  19  20
ATOM     20  C   UNL     1     -34.488  25.447  -1.816  0.00  0.00    +0.136 C 
BRANCH  20  21
ATOM     21  C   UNL     1     -33.612  24.395  -1.187  0.00  0.00    -0.006 C 
ATOM     22  C   UNL     1     -33.989  23.211  -0.665  0.00  0.00    -0.046 C 
ATOM     23  C   UNL     1     -35.442  22.811  -0.672  0.00  0.00    +0.026 C 
BRANCH  22  24
ATOM     24  C   UNL     1     -33.041  22.184  -0.083  0.00  0.00    +0.026 C 
BRANCH  24  25
ATOM     25  C   UNL     1     -33.064  20.828  -0.800  0.00  0.00    +0.030 C 
BRANCH  25  26
ATOM     26  C   UNL     1     -32.003  19.881  -0.314  0.00  0.00    -0.034 C 
ATOM     27  C   UNL     1     -32.108  18.983   0.684  0.00  0.00    -0.048 C 
ATOM     28  C   UNL     1     -33.384  18.862   1.472  0.00  0.00    +0.026 C 
ATOM     29  C   UNL     1     -31.008  18.060   1.125  0.00  0.00    +0.026 C 
ENDBRANCH  25  26
ENDBRANCH  24  25
ENDBRANCH  22  24
ENDBRANCH  20  21
BRANCH  20  30
ATOM     30  O   UNL     1     -33.911  25.811  -3.075  0.00  0.00    -0.380 OA
ATOM     31  H   UNL     1     -33.166  25.221  -3.271  0.00  0.00    +0.211 HD
ENDBRANCH  20  30
ENDBRANCH  19  20
ENDBRANCH  17  19
ENDBRANCH   1  16
BRANCH   1  32
ATOM     32  O   UNL     1     -35.382  27.923   3.535  0.00  0.00    -0.377 OA
ATOM     33  H   UNL     1     -34.522  27.801   3.967  0.00  0.00    +0.211 HD
ENDBRANCH   1  32
TORSDOF 14
ENDMDL
