MODEL 1
REMARK VINA RESULT:      -6.5      0.000      0.000
REMARK  Name = 5280417
REMARK  6 active torsions:
REMARK  status: ('A' for Active; 'I' for Inactive)
REMARK    1  A    between atoms: C_5  and  C_12
REMARK    2  A    between atoms: C_6  and  O_22
REMARK    3  A    between atoms: C_8  and  O_26
REMARK    4  A    between atoms: C_10  and  O_24
REMARK    5  A    between atoms: C_15  and  O_18
REMARK    6  A    between atoms: C_17  and  O_20
REMARK                            x       y       z     vdW  Elec       q    Type
REMARK                         _______ _______ _______ _____ _____    ______ ____
ROOT
ATOM      1  O   UNL     1     -34.943  26.309   3.507  0.00  0.00    -0.450 OA
ATOM      2  O   UNL     1     -38.148  27.288   1.189  0.00  0.00    -0.283 OA
ATOM      3  C   UNL     1     -36.079  27.940   2.115  0.00  0.00    +0.110 A 
ATOM      4  C   UNL     1     -35.013  27.545   2.920  0.00  0.00    +0.155 A 
ATOM      5  C   UNL     1     -35.974  25.410   3.281  0.00  0.00    +0.182 A 
ATOM      6  C   UNL     1     -37.062  25.669   2.533  0.00  0.00    +0.212 A 
ATOM      7  C   UNL     1     -37.182  26.995   1.882  0.00  0.00    +0.238 A 
ATOM      8  C   UNL     1     -36.097  29.214   1.542  0.00  0.00    +0.143 C 
ATOM      9  C   UNL     1     -33.956  28.423   3.157  0.00  0.00    +0.075 C 
ATOM     10  C   UNL     1     -33.969  29.697   2.587  0.00  0.00    +0.145 C 
ATOM     11  C   UNL     1     -35.038  30.091   1.781  0.00  0.00    +0.074 C 
ENDROOT
BRANCH   5  12
ATOM     12  C   UNL     1     -35.775  24.122   3.970  0.00  0.00    +0.041 C 
ATOM     13  C   UNL     1     -35.816  22.930   3.247  0.00  0.00    +0.043 C 
ATOM     14  C   UNL     1     -35.546  24.096   5.346  0.00  0.00    +0.006 C 
ATOM     15  C   UNL     1     -35.627  21.711   3.900  0.00  0.00    +0.168 C 
ATOM     16  C   UNL     1     -35.357  22.877   5.999  0.00  0.00    +0.040 C 
ATOM     17  C   UNL     1     -35.398  21.684   5.275  0.00  0.00    +0.167 C 
BRANCH  15  18
ATOM     18  O   UNL     1     -35.669  20.553   3.183  0.00  0.00    -0.503 OA
ATOM     19  H   UNL     1     -35.055  19.869   3.363  0.00  0.00    +0.292 HD
ENDBRANCH  15  18
BRANCH  17  20
ATOM     20  O   UNL     1     -35.211  20.501   5.923  0.00  0.00    -0.503 OA
ATOM     21  H   UNL     1     -35.357  19.692   5.473  0.00  0.00    +0.292 HD
ENDBRANCH  17  20
ENDBRANCH   5  12
BRANCH   6  22
ATOM     22  O   UNL     1     -38.085  24.764   2.356  0.00  0.00    -0.465 OA
ATOM     23  C   UNL     1     -39.104  24.962   3.318  0.00  0.00    +0.253 C 
ENDBRANCH   6  22
BRANCH  10  24
ATOM     24  O   UNL     1     -32.938  30.555   2.818  0.00  0.00    -0.471 OA
ATOM     25  C   UNL     1     -32.527  30.726   4.174  0.00  0.00    +0.252 C 
ENDBRANCH  10  24
BRANCH   8  26
ATOM     26  O   UNL     1     -37.115  29.649   0.749  0.00  0.00    -0.505 OA
ATOM     27  H   UNL     1     -37.336  30.560   0.726  0.00  0.00    +0.292 HD
ENDBRANCH   8  26
TORSDOF 6
ENDMDL
MODEL 2
REMARK VINA RESULT:      -6.3      3.100      6.936
REMARK  Name = 5280417
REMARK  6 active torsions:
REMARK  status: ('A' for Active; 'I' for Inactive)
REMARK    1  A    between atoms: C_5  and  C_12
REMARK    2  A    between atoms: C_6  and  O_22
REMARK    3  A    between atoms: C_8  and  O_26
REMARK    4  A    between atoms: C_10  and  O_24
REMARK    5  A    between atoms: C_15  and  O_18
REMARK    6  A    between atoms: C_17  and  O_20
REMARK                            x       y       z     vdW  Elec       q    Type
REMARK                         _______ _______ _______ _____ _____    ______ ____
ROOT
ATOM      1  O   UNL     1     -35.130  22.191   2.651  0.00  0.00    -0.450 OA
ATOM      2  O   UNL     1     -39.131  22.071   1.887  0.00  0.00    -0.283 OA
ATOM      3  C   UNL     1     -37.008  21.091   1.578  0.00  0.00    +0.110 A 
ATOM      4  C   UNL     1     -35.650  21.190   1.874  0.00  0.00    +0.155 A 
ATOM      5  C   UNL     1     -35.995  23.141   3.174  0.00  0.00    +0.182 A 
ATOM      6  C   UNL     1     -37.322  23.164   2.957  0.00  0.00    +0.212 A 
ATOM      7  C   UNL     1     -37.929  22.103   2.118  0.00  0.00    +0.238 A 
ATOM      8  C   UNL     1     -37.482  20.048   0.779  0.00  0.00    +0.143 C 
ATOM      9  C   UNL     1     -34.757  20.244   1.372  0.00  0.00    +0.075 C 
ATOM     10  C   UNL     1     -35.226  19.200   0.573  0.00  0.00    +0.145 C 
ATOM     11  C   UNL     1     -36.586  19.102   0.278  0.00  0.00    +0.074 C 
ENDROOT
BRANCH   5  12
ATOM     12  C   UNL     1     -35.307  24.159   3.987  0.00  0.00    +0.041 C 
ATOM     13  C   UNL     1     -34.288  24.929   3.426  0.00  0.00    +0.043 C 
ATOM     14  C   UNL     1     -35.675  24.353   5.318  0.00  0.00    +0.006 C 
ATOM     15  C   UNL     1     -33.638  25.894   4.197  0.00  0.00    +0.168 C 
ATOM     16  C   UNL     1     -35.025  25.318   6.089  0.00  0.00    +0.040 C 
ATOM     17  C   UNL     1     -34.006  26.088   5.528  0.00  0.00    +0.167 C 
BRANCH  15  18
ATOM     18  O   UNL     1     -32.643  26.639   3.638  0.00  0.00    -0.503 OA
ATOM     19  H   UNL     1     -32.205  26.333   2.869  0.00  0.00    +0.292 HD
ENDBRANCH  15  18
BRANCH  17  20
ATOM     20  O   UNL     1     -33.379  27.028   6.289  0.00  0.00    -0.503 OA
ATOM     21  H   UNL     1     -33.810  27.386   7.040  0.00  0.00    +0.292 HD
ENDBRANCH  17  20
ENDBRANCH   5  12
BRANCH   6  22
ATOM     22  O   UNL     1     -38.150  24.142   3.464  0.00  0.00    -0.465 OA
ATOM     23  C   UNL     1     -38.270  25.220   2.555  0.00  0.00    +0.253 C 
ENDBRANCH   6  22
BRANCH  10  24
ATOM     24  O   UNL     1     -34.356  18.276   0.082  0.00  0.00    -0.471 OA
ATOM     25  C   UNL     1     -33.225  17.954   0.892  0.00  0.00    +0.252 C 
ENDBRANCH  10  24
BRANCH   8  26
ATOM     26  O   UNL     1     -38.799  19.907   0.459  0.00  0.00    -0.505 OA
ATOM     27  H   UNL     1     -39.087  19.157  -0.023  0.00  0.00    +0.292 HD
ENDBRANCH   8  26
TORSDOF 6
ENDMDL
MODEL 3
REMARK VINA RESULT:      -6.3      2.888      6.964
REMARK  Name = 5280417
REMARK  6 active torsions:
REMARK  status: ('A' for Active; 'I' for Inactive)
REMARK    1  A    between atoms: C_5  and  C_12
REMARK    2  A    between atoms: C_6  and  O_22
REMARK    3  A    between atoms: C_8  and  O_26
REMARK    4  A    between atoms: C_10  and  O_24
REMARK    5  A    between atoms: C_15  and  O_18
REMARK    6  A    between atoms: C_17  and  O_20
REMARK                            x       y       z     vdW  Elec       q    Type
REMARK                         _______ _______ _______ _____ _____    ______ ____
ROOT
ATOM      1  O   UNL     1     -33.022  26.574   5.019  0.00  0.00    -0.450 OA
ATOM      2  O   UNL     1     -35.489  28.465   2.385  0.00  0.00    -0.283 OA
ATOM      3  C   UNL     1     -35.145  26.646   3.846  0.00  0.00    +0.110 A 
ATOM      4  C   UNL     1     -34.255  26.047   4.734  0.00  0.00    +0.155 A 
ATOM      5  C   UNL     1     -32.651  27.759   4.404  0.00  0.00    +0.182 A 
ATOM      6  C   UNL     1     -33.412  28.432   3.522  0.00  0.00    +0.212 A 
ATOM      7  C   UNL     1     -34.751  27.897   3.179  0.00  0.00    +0.238 A 
ATOM      8  C   UNL     1     -36.389  26.062   3.593  0.00  0.00    +0.143 C 
ATOM      9  C   UNL     1     -34.604  24.860   5.377  0.00  0.00    +0.075 C 
ATOM     10  C   UNL     1     -35.845  24.274   5.128  0.00  0.00    +0.145 C 
ATOM     11  C   UNL     1     -36.736  24.875   4.237  0.00  0.00    +0.074 C 
ENDROOT
BRANCH   5  12
ATOM     12  C   UNL     1     -31.305  28.214   4.797  0.00  0.00    +0.041 C 
ATOM     13  C   UNL     1     -31.052  28.589   6.116  0.00  0.00    +0.043 C 
ATOM     14  C   UNL     1     -30.283  28.268   3.849  0.00  0.00    +0.006 C 
ATOM     15  C   UNL     1     -29.778  29.018   6.488  0.00  0.00    +0.168 C 
ATOM     16  C   UNL     1     -29.008  28.697   4.220  0.00  0.00    +0.040 C 
ATOM     17  C   UNL     1     -28.756  29.072   5.540  0.00  0.00    +0.167 C 
BRANCH  15  18
ATOM     18  O   UNL     1     -29.543  29.384   7.779  0.00  0.00    -0.503 OA
ATOM     19  H   UNL     1     -29.682  28.769   8.472  0.00  0.00    +0.292 HD
ENDBRANCH  15  18
BRANCH  17  20
ATOM     20  O   UNL     1     -27.507  29.489   5.891  0.00  0.00    -0.503 OA
ATOM     21  H   UNL     1     -26.774  29.284   5.345  0.00  0.00    +0.292 HD
ENDBRANCH  17  20
ENDBRANCH   5  12
BRANCH   6  22
ATOM     22  O   UNL     1     -32.998  29.591   2.902  0.00  0.00    -0.465 OA
ATOM     23  C   UNL     1     -33.403  30.728   3.642  0.00  0.00    +0.253 C 
ENDBRANCH   6  22
BRANCH  10  24
ATOM     24  O   UNL     1     -36.188  23.115   5.754  0.00  0.00    -0.471 OA
ATOM     25  C   UNL     1     -35.123  22.252   6.151  0.00  0.00    +0.252 C 
ENDBRANCH  10  24
BRANCH   8  26
ATOM     26  O   UNL     1     -37.294  26.607   2.732  0.00  0.00    -0.505 OA
ATOM     27  H   UNL     1     -37.595  26.114   1.994  0.00  0.00    +0.292 HD
ENDBRANCH   8  26
TORSDOF 6
ENDMDL
MODEL 4
REMARK VINA RESULT:      -6.1      2.139      3.685
REMARK  Name = 5280417
REMARK  6 active torsions:
REMARK  status: ('A' for Active; 'I' for Inactive)
REMARK    1  A    between atoms: C_5  and  C_12
REMARK    2  A    between atoms: C_6  and  O_22
REMARK    3  A    between atoms: C_8  and  O_26
REMARK    4  A    between atoms: C_10  and  O_24
REMARK    5  A    between atoms: C_15  and  O_18
REMARK    6  A    between atoms: C_17  and  O_20
REMARK                            x       y       z     vdW  Elec       q    Type
REMARK                         _______ _______ _______ _____ _____    ______ ____
ROOT
ATOM      1  O   UNL     1     -35.911  25.649   2.201  0.00  0.00    -0.450 OA
ATOM      2  O   UNL     1     -34.447  26.218   5.961  0.00  0.00    -0.283 OA
ATOM      3  C   UNL     1     -34.437  26.869   3.694  0.00  0.00    +0.110 A 
ATOM      4  C   UNL     1     -34.975  26.623   2.433  0.00  0.00    +0.155 A 
ATOM      5  C   UNL     1     -36.349  24.884   3.270  0.00  0.00    +0.182 A 
ATOM      6  C   UNL     1     -35.904  25.014   4.534  0.00  0.00    +0.212 A 
ATOM      7  C   UNL     1     -34.888  26.051   4.831  0.00  0.00    +0.238 A 
ATOM      8  C   UNL     1     -33.485  27.876   3.871  0.00  0.00    +0.143 C 
ATOM      9  C   UNL     1     -34.562  27.383   1.338  0.00  0.00    +0.075 C 
ATOM     10  C   UNL     1     -33.611  28.389   1.511  0.00  0.00    +0.145 C 
ATOM     11  C   UNL     1     -33.074  28.635   2.775  0.00  0.00    +0.074 C 
ENDROOT
BRANCH   5  12
ATOM     12  C   UNL     1     -37.352  23.876   2.884  0.00  0.00    +0.041 C 
ATOM     13  C   UNL     1     -36.959  22.560   2.636  0.00  0.00    +0.043 C 
ATOM     14  C   UNL     1     -38.694  24.236   2.766  0.00  0.00    +0.006 C 
ATOM     15  C   UNL     1     -37.908  21.605   2.271  0.00  0.00    +0.168 C 
ATOM     16  C   UNL     1     -39.643  23.281   2.401  0.00  0.00    +0.040 C 
ATOM     17  C   UNL     1     -39.251  21.965   2.153  0.00  0.00    +0.167 C 
BRANCH  15  18
ATOM     18  O   UNL     1     -37.513  20.324   2.031  0.00  0.00    -0.503 OA
ATOM     19  H   UNL     1     -38.135  19.625   2.077  0.00  0.00    +0.292 HD
ENDBRANCH  15  18
BRANCH  17  20
ATOM     20  O   UNL     1     -40.187  21.042   1.798  0.00  0.00    -0.503 OA
ATOM     21  H   UNL     1     -40.995  21.318   1.413  0.00  0.00    +0.292 HD
ENDBRANCH  17  20
ENDBRANCH   5  12
BRANCH   6  22
ATOM     22  O   UNL     1     -36.337  24.214   5.569  0.00  0.00    -0.465 OA
ATOM     23  C   UNL     1     -35.424  23.157   5.802  0.00  0.00    +0.253 C 
ENDBRANCH   6  22
BRANCH  10  24
ATOM     24  O   UNL     1     -33.207  29.132   0.444  0.00  0.00    -0.471 OA
ATOM     25  C   UNL     1     -32.777  30.467   0.709  0.00  0.00    +0.252 C 
ENDBRANCH  10  24
BRANCH   8  26
ATOM     26  O   UNL     1     -32.928  28.155   5.083  0.00  0.00    -0.505 OA
ATOM     27  H   UNL     1     -32.041  27.909   5.259  0.00  0.00    +0.292 HD
ENDBRANCH   8  26
TORSDOF 6
ENDMDL
MODEL 5
REMARK VINA RESULT:      -6.1      3.533      7.686
REMARK  Name = 5280417
REMARK  6 active torsions:
REMARK  status: ('A' for Active; 'I' for Inactive)
REMARK    1  A    between atoms: C_5  and  C_12
REMARK    2  A    between atoms: C_6  and  O_22
REMARK    3  A    between atoms: C_8  and  O_26
REMARK    4  A    between atoms: C_10  and  O_24
REMARK    5  A    between atoms: C_15  and  O_18
REMARK    6  A    between atoms: C_17  and  O_20
REMARK                            x       y       z     vdW  Elec       q    Type
REMARK                         _______ _______ _______ _____ _____    ______ ____
ROOT
ATOM      1  O   UNL     1     -35.045  21.136   2.287  0.00  0.00    -0.450 OA
ATOM      2  O   UNL     1     -38.010  19.918  -0.228  0.00  0.00    -0.283 OA
ATOM      3  C   UNL     1     -35.859  19.531   0.658  0.00  0.00    +0.110 A 
ATOM      4  C   UNL     1     -34.883  20.002   1.534  0.00  0.00    +0.155 A 
ATOM      5  C   UNL     1     -36.235  21.838   2.179  0.00  0.00    +0.182 A 
ATOM      6  C   UNL     1     -37.251  21.496   1.366  0.00  0.00    +0.212 A 
ATOM      7  C   UNL     1     -37.119  20.280   0.529  0.00  0.00    +0.238 A 
ATOM      8  C   UNL     1     -35.639  18.369  -0.085  0.00  0.00    +0.143 C 
ATOM      9  C   UNL     1     -33.679  19.311   1.673  0.00  0.00    +0.075 C 
ATOM     10  C   UNL     1     -33.455  18.150   0.932  0.00  0.00    +0.145 C 
ATOM     11  C   UNL     1     -34.434  17.680   0.056  0.00  0.00    +0.074 C 
ENDROOT
BRANCH   5  12
ATOM     12  C   UNL     1     -36.277  23.034   3.039  0.00  0.00    +0.041 C 
ATOM     13  C   UNL     1     -36.699  24.256   2.514  0.00  0.00    +0.043 C 
ATOM     14  C   UNL     1     -35.897  22.944   4.377  0.00  0.00    +0.006 C 
ATOM     15  C   UNL     1     -36.739  25.388   3.329  0.00  0.00    +0.168 C 
ATOM     16  C   UNL     1     -35.937  24.076   5.192  0.00  0.00    +0.040 C 
ATOM     17  C   UNL     1     -36.359  25.299   4.668  0.00  0.00    +0.167 C 
BRANCH  15  18
ATOM     18  O   UNL     1     -37.151  26.576   2.805  0.00  0.00    -0.503 OA
ATOM     19  H   UNL     1     -37.809  26.591   2.138  0.00  0.00    +0.292 HD
ENDBRANCH  15  18
BRANCH  17  20
ATOM     20  O   UNL     1     -36.395  26.397   5.473  0.00  0.00    -0.503 OA
ATOM     21  H   UNL     1     -36.542  26.298   6.393  0.00  0.00    +0.292 HD
ENDBRANCH  17  20
ENDBRANCH   5  12
BRANCH   6  22
ATOM     22  O   UNL     1     -38.409  22.235   1.258  0.00  0.00    -0.465 OA
ATOM     23  C   UNL     1     -39.428  21.697   2.079  0.00  0.00    +0.253 C 
ENDBRANCH   6  22
BRANCH  10  24
ATOM     24  O   UNL     1     -32.281  17.475   1.066  0.00  0.00    -0.471 OA
ATOM     25  C   UNL     1     -31.083  18.191   0.769  0.00  0.00    +0.252 C 
ENDBRANCH  10  24
BRANCH   8  26
ATOM     26  O   UNL     1     -36.560  17.868  -0.955  0.00  0.00    -0.505 OA
ATOM     27  H   UNL     1     -37.432  17.689  -0.664  0.00  0.00    +0.292 HD
ENDBRANCH   8  26
TORSDOF 6
ENDMDL
MODEL 6
REMARK VINA RESULT:      -6.0      4.668      7.545
REMARK  Name = 5280417
REMARK  6 active torsions:
REMARK  status: ('A' for Active; 'I' for Inactive)
REMARK    1  A    between atoms: C_5  and  C_12
REMARK    2  A    between atoms: C_6  and  O_22
REMARK    3  A    between atoms: C_8  and  O_26
REMARK    4  A    between atoms: C_10  and  O_24
REMARK    5  A    between atoms: C_15  and  O_18
REMARK    6  A    between atoms: C_17  and  O_20
REMARK                            x       y       z     vdW  Elec       q    Type
REMARK                         _______ _______ _______ _____ _____    ______ ____
ROOT
ATOM      1  O   UNL     1     -34.514  20.832   1.721  0.00  0.00    -0.450 OA
ATOM      2  O   UNL     1     -37.711  19.009  -0.029  0.00  0.00    -0.283 OA
ATOM      3  C   UNL     1     -36.915  20.724   1.381  0.00  0.00    +0.110 A 
ATOM      4  C   UNL     1     -35.781  21.300   1.950  0.00  0.00    +0.155 A 
ATOM      5  C   UNL     1     -34.353  19.744   0.877  0.00  0.00    +0.182 A 
ATOM      6  C   UNL     1     -35.363  19.092   0.273  0.00  0.00    +0.212 A 
ATOM      7  C   UNL     1     -36.752  19.560   0.495  0.00  0.00    +0.238 A 
ATOM      8  C   UNL     1     -38.183  21.245   1.651  0.00  0.00    +0.143 C 
ATOM      9  C   UNL     1     -35.910  22.403   2.795  0.00  0.00    +0.075 C 
ATOM     10  C   UNL     1     -37.174  22.926   3.067  0.00  0.00    +0.145 C 
ATOM     11  C   UNL     1     -38.308  22.348   2.496  0.00  0.00    +0.074 C 
ENDROOT
BRANCH   5  12
ATOM     12  C   UNL     1     -32.944  19.342   0.719  0.00  0.00    +0.041 C 
ATOM     13  C   UNL     1     -32.075  20.131  -0.035  0.00  0.00    +0.043 C 
ATOM     14  C   UNL     1     -32.480  18.174   1.323  0.00  0.00    +0.006 C 
ATOM     15  C   UNL     1     -30.740  19.751  -0.184  0.00  0.00    +0.168 C 
ATOM     16  C   UNL     1     -31.145  17.794   1.173  0.00  0.00    +0.040 C 
ATOM     17  C   UNL     1     -30.276  18.583   0.420  0.00  0.00    +0.167 C 
BRANCH  15  18
ATOM     18  O   UNL     1     -29.900  20.528  -0.923  0.00  0.00    -0.503 OA
ATOM     19  H   UNL     1     -30.159  20.816  -1.776  0.00  0.00    +0.292 HD
ENDBRANCH  15  18
BRANCH  17  20
ATOM     20  O   UNL     1     -28.975  18.202   0.282  0.00  0.00    -0.503 OA
ATOM     21  H   UNL     1     -28.372  18.332   0.987  0.00  0.00    +0.292 HD
ENDBRANCH  17  20
ENDBRANCH   5  12
BRANCH   6  22
ATOM     22  O   UNL     1     -35.171  17.991  -0.534  0.00  0.00    -0.465 OA
ATOM     23  C   UNL     1     -35.025  18.380  -1.888  0.00  0.00    +0.253 C 
ENDBRANCH   6  22
BRANCH  10  24
ATOM     24  O   UNL     1     -37.301  24.002   3.891  0.00  0.00    -0.471 OA
ATOM     25  C   UNL     1     -36.183  24.321   4.719  0.00  0.00    +0.252 C 
ENDBRANCH  10  24
BRANCH   8  26
ATOM     26  O   UNL     1     -39.321  20.717   1.120  0.00  0.00    -0.505 OA
ATOM     27  H   UNL     1     -39.419  19.788   1.049  0.00  0.00    +0.292 HD
ENDBRANCH   8  26
TORSDOF 6
ENDMDL
MODEL 7
REMARK VINA RESULT:      -6.0      3.042      4.071
REMARK  Name = 5280417
REMARK  6 active torsions:
REMARK  status: ('A' for Active; 'I' for Inactive)
REMARK    1  A    between atoms: C_5  and  C_12
REMARK    2  A    between atoms: C_6  and  O_22
REMARK    3  A    between atoms: C_8  and  O_26
REMARK    4  A    between atoms: C_10  and  O_24
REMARK    5  A    between atoms: C_15  and  O_18
REMARK    6  A    between atoms: C_17  and  O_20
REMARK                            x       y       z     vdW  Elec       q    Type
REMARK                         _______ _______ _______ _____ _____    ______ ____
ROOT
ATOM      1  O   UNL     1     -34.384  24.114   2.146  0.00  0.00    -0.450 OA
ATOM      2  O   UNL     1     -34.852  25.287   6.019  0.00  0.00    -0.283 OA
ATOM      3  C   UNL     1     -33.940  25.739   3.892  0.00  0.00    +0.110 A 
ATOM      4  C   UNL     1     -33.815  25.282   2.582  0.00  0.00    +0.155 A 
ATOM      5  C   UNL     1     -35.124  23.362   3.044  0.00  0.00    +0.182 A 
ATOM      6  C   UNL     1     -35.314  23.687   4.336  0.00  0.00    +0.212 A 
ATOM      7  C   UNL     1     -34.713  24.938   4.855  0.00  0.00    +0.238 A 
ATOM      8  C   UNL     1     -33.337  26.938   4.282  0.00  0.00    +0.143 C 
ATOM      9  C   UNL     1     -33.085  26.022   1.652  0.00  0.00    +0.075 C 
ATOM     10  C   UNL     1     -32.481  27.219   2.037  0.00  0.00    +0.145 C 
ATOM     11  C   UNL     1     -32.608  27.676   3.349  0.00  0.00    +0.074 C 
ENDROOT
BRANCH   5  12
ATOM     12  C   UNL     1     -35.678  22.134   2.447  0.00  0.00    +0.041 C 
ATOM     13  C   UNL     1     -37.042  22.047   2.167  0.00  0.00    +0.043 C 
ATOM     14  C   UNL     1     -34.838  21.057   2.162  0.00  0.00    +0.006 C 
ATOM     15  C   UNL     1     -37.566  20.884   1.601  0.00  0.00    +0.168 C 
ATOM     16  C   UNL     1     -35.362  19.894   1.596  0.00  0.00    +0.040 C 
ATOM     17  C   UNL     1     -36.726  19.808   1.315  0.00  0.00    +0.167 C 
BRANCH  15  18
ATOM     18  O   UNL     1     -38.899  20.811   1.333  0.00  0.00    -0.503 OA
ATOM     19  H   UNL     1     -39.522  21.099   1.971  0.00  0.00    +0.292 HD
ENDBRANCH  15  18
BRANCH  17  20
ATOM     20  O   UNL     1     -37.226  18.668   0.762  0.00  0.00    -0.503 OA
ATOM     21  H   UNL     1     -36.658  18.085   0.298  0.00  0.00    +0.292 HD
ENDBRANCH  17  20
ENDBRANCH   5  12
BRANCH   6  22
ATOM     22  O   UNL     1     -36.028  22.899   5.212  0.00  0.00    -0.465 OA
ATOM     23  C   UNL     1     -35.168  22.023   5.917  0.00  0.00    +0.253 C 
ENDBRANCH   6  22
BRANCH  10  24
ATOM     24  O   UNL     1     -31.769  27.943   1.130  0.00  0.00    -0.471 OA
ATOM     25  C   UNL     1     -31.161  29.148   1.595  0.00  0.00    +0.252 C 
ENDBRANCH  10  24
BRANCH   8  26
ATOM     26  O   UNL     1     -33.428  27.428   5.550  0.00  0.00    -0.505 OA
ATOM     27  H   UNL     1     -34.178  27.233   6.075  0.00  0.00    +0.292 HD
ENDBRANCH   8  26
TORSDOF 6
ENDMDL
MODEL 8
REMARK VINA RESULT:      -6.0      4.412      8.578
REMARK  Name = 5280417
REMARK  6 active torsions:
REMARK  status: ('A' for Active; 'I' for Inactive)
REMARK    1  A    between atoms: C_5  and  C_12
REMARK    2  A    between atoms: C_6  and  O_22
REMARK    3  A    between atoms: C_8  and  O_26
REMARK    4  A    between atoms: C_10  and  O_24
REMARK    5  A    between atoms: C_15  and  O_18
REMARK    6  A    between atoms: C_17  and  O_20
REMARK                            x       y       z     vdW  Elec       q    Type
REMARK                         _______ _______ _______ _____ _____    ______ ____
ROOT
ATOM      1  O   UNL     1     -33.951  19.839   1.911  0.00  0.00    -0.450 OA
ATOM      2  O   UNL     1     -36.860  18.429  -0.568  0.00  0.00    -0.283 OA
ATOM      3  C   UNL     1     -34.654  18.227   0.239  0.00  0.00    +0.110 A 
ATOM      4  C   UNL     1     -33.702  18.759   1.106  0.00  0.00    +0.155 A 
ATOM      5  C   UNL     1     -35.209  20.421   1.868  0.00  0.00    +0.182 A 
ATOM      6  C   UNL     1     -36.212  20.010   1.070  0.00  0.00    +0.212 A 
ATOM      7  C   UNL     1     -35.986  18.849   0.178  0.00  0.00    +0.238 A 
ATOM      8  C   UNL     1     -34.343  17.124  -0.560  0.00  0.00    +0.143 C 
ATOM      9  C   UNL     1     -32.431  18.189   1.180  0.00  0.00    +0.075 C 
ATOM     10  C   UNL     1     -32.116  17.087   0.384  0.00  0.00    +0.145 C 
ATOM     11  C   UNL     1     -33.071  16.556  -0.484  0.00  0.00    +0.074 C 
ENDROOT
BRANCH   5  12
ATOM     12  C   UNL     1     -35.342  21.570   2.780  0.00  0.00    +0.041 C 
ATOM     13  C   UNL     1     -35.647  21.362   4.126  0.00  0.00    +0.043 C 
ATOM     14  C   UNL     1     -35.163  22.867   2.299  0.00  0.00    +0.006 C 
ATOM     15  C   UNL     1     -35.772  22.451   4.989  0.00  0.00    +0.168 C 
ATOM     16  C   UNL     1     -35.289  23.956   3.162  0.00  0.00    +0.040 C 
ATOM     17  C   UNL     1     -35.593  23.748   4.508  0.00  0.00    +0.167 C 
BRANCH  15  18
ATOM     18  O   UNL     1     -36.071  22.236   6.301  0.00  0.00    -0.503 OA
ATOM     19  H   UNL     1     -36.521  22.895   6.792  0.00  0.00    +0.292 HD
ENDBRANCH  15  18
BRANCH  17  20
ATOM     20  O   UNL     1     -35.713  24.819   5.341  0.00  0.00    -0.503 OA
ATOM     21  H   UNL     1     -36.559  25.173   5.530  0.00  0.00    +0.292 HD
ENDBRANCH  17  20
ENDBRANCH   5  12
BRANCH   6  22
ATOM     22  O   UNL     1     -37.440  20.633   1.027  0.00  0.00    -0.465 OA
ATOM     23  C   UNL     1     -37.525  21.503  -0.086  0.00  0.00    +0.253 C 
ENDBRANCH   6  22
BRANCH  10  24
ATOM     24  O   UNL     1     -30.876  16.530   0.455  0.00  0.00    -0.471 OA
ATOM     25  C   UNL     1     -29.800  17.387   0.831  0.00  0.00    +0.252 C 
ENDBRANCH  10  24
BRANCH   8  26
ATOM     26  O   UNL     1     -35.237  16.568  -1.425  0.00  0.00    -0.505 OA
ATOM     27  H   UNL     1     -35.274  16.860  -2.314  0.00  0.00    +0.292 HD
ENDBRANCH   8  26
TORSDOF 6
ENDMDL
MODEL 9
REMARK VINA RESULT:      -5.9      1.532      3.479
REMARK  Name = 5280417
REMARK  6 active torsions:
REMARK  status: ('A' for Active; 'I' for Inactive)
REMARK    1  A    between atoms: C_5  and  C_12
REMARK    2  A    between atoms: C_6  and  O_22
REMARK    3  A    between atoms: C_8  and  O_26
REMARK    4  A    between atoms: C_10  and  O_24
REMARK    5  A    between atoms: C_15  and  O_18
REMARK    6  A    between atoms: C_17  and  O_20
REMARK                            x       y       z     vdW  Elec       q    Type
REMARK                         _______ _______ _______ _____ _____    ______ ____
ROOT
ATOM      1  O   UNL     1     -36.275  25.781   2.738  0.00  0.00    -0.450 OA
ATOM      2  O   UNL     1     -33.338  28.546   3.312  0.00  0.00    -0.283 OA
ATOM      3  C   UNL     1     -35.358  27.972   2.238  0.00  0.00    +0.110 A 
ATOM      4  C   UNL     1     -36.328  26.984   2.083  0.00  0.00    +0.155 A 
ATOM      5  C   UNL     1     -35.216  25.542   3.599  0.00  0.00    +0.182 A 
ATOM      6  C   UNL     1     -34.211  26.407   3.830  0.00  0.00    +0.212 A 
ATOM      7  C   UNL     1     -34.223  27.719   3.141  0.00  0.00    +0.238 A 
ATOM      8  C   UNL     1     -35.463  29.180   1.544  0.00  0.00    +0.143 C 
ATOM      9  C   UNL     1     -37.411  27.199   1.231  0.00  0.00    +0.075 C 
ATOM     10  C   UNL     1     -37.520  28.404   0.536  0.00  0.00    +0.145 C 
ATOM     11  C   UNL     1     -36.548  29.392   0.693  0.00  0.00    +0.074 C 
ENDROOT
BRANCH   5  12
ATOM     12  C   UNL     1     -35.280  24.215   4.235  0.00  0.00    +0.041 C 
ATOM     13  C   UNL     1     -35.404  23.069   3.448  0.00  0.00    +0.043 C 
ATOM     14  C   UNL     1     -35.217  24.102   5.624  0.00  0.00    +0.006 C 
ATOM     15  C   UNL     1     -35.464  21.812   4.051  0.00  0.00    +0.168 C 
ATOM     16  C   UNL     1     -35.277  22.845   6.226  0.00  0.00    +0.040 C 
ATOM     17  C   UNL     1     -35.400  21.700   5.439  0.00  0.00    +0.167 C 
BRANCH  15  18
ATOM     18  O   UNL     1     -35.585  20.701   3.272  0.00  0.00    -0.503 OA
ATOM     19  H   UNL     1     -36.009  20.758   2.438  0.00  0.00    +0.292 HD
ENDBRANCH  15  18
BRANCH  17  20
ATOM     20  O   UNL     1     -35.457  20.478   6.039  0.00  0.00    -0.503 OA
ATOM     21  H   UNL     1     -34.670  19.991   6.184  0.00  0.00    +0.292 HD
ENDBRANCH  17  20
ENDBRANCH   5  12
BRANCH   6  22
ATOM     22  O   UNL     1     -33.154  26.124   4.668  0.00  0.00    -0.465 OA
ATOM     23  C   UNL     1     -33.286  26.818   5.895  0.00  0.00    +0.253 C 
ENDBRANCH   6  22
BRANCH  10  24
ATOM     24  O   UNL     1     -38.577  28.615  -0.295  0.00  0.00    -0.471 OA
ATOM     25  C   UNL     1     -38.816  29.960  -0.712  0.00  0.00    +0.252 C 
ENDBRANCH  10  24
BRANCH   8  26
ATOM     26  O   UNL     1     -34.541  30.176   1.659  0.00  0.00    -0.505 OA
ATOM     27  H   UNL     1     -34.145  30.355   2.490  0.00  0.00    +0.292 HD
ENDBRANCH   8  26
TORSDOF 6
ENDMDL
