MODEL 1
REMARK VINA RESULT:      -6.1      0.000      0.000
REMARK  Name = 5284433
REMARK  5 active torsions:
REMARK  status: ('A' for Active; 'I' for Inactive)
REMARK    1  A    between atoms: C_6  and  C_24
REMARK    2  A    between atoms: C_8  and  O_18
REMARK    3  A    between atoms: C_10  and  O_20
REMARK    4  A    between atoms: C_13  and  O_22
REMARK    5  A    between atoms: C_24  and  O_25
REMARK                            x       y       z     vdW  Elec       q    Type
REMARK                         _______ _______ _______ _____ _____    ______ ____
ROOT
ATOM      1  O   UNL     1     -34.021  25.950   0.165  0.00  0.00    -0.351 OA
ATOM      2  O   UNL     1     -34.206  25.565   3.785  0.00  0.00    -0.349 OA
ATOM      3  O   UNL     1     -35.664  20.820   3.894  0.00  0.00    -0.289 OA
ATOM      4  C   UNL     1     -35.979  25.241   1.564  0.00  0.00    +0.062 C 
ATOM      5  C   UNL     1     -34.484  25.473   1.439  0.00  0.00    +0.150 C 
ATOM      6  C   UNL     1     -36.155  24.275   2.842  0.00  0.00    +0.092 C 
ATOM      7  C   UNL     1     -34.127  26.348   2.590  0.00  0.00    +0.172 C 
ATOM      8  C   UNL     1     -36.456  26.713   1.933  0.00  0.00    +0.142 C 
ATOM      9  C   UNL     1     -33.492  24.694   0.611  0.00  0.00    +0.172 C 
ATOM     10  C   UNL     1     -35.205  27.437   2.492  0.00  0.00    +0.167 C 
ATOM     11  C   UNL     1     -35.483  24.970   4.080  0.00  0.00    +0.142 C 
ATOM     12  C   UNL     1     -36.642  24.730   0.278  0.00  0.00    +0.005 C 
ATOM     13  C   UNL     1     -35.471  22.885   2.658  0.00  0.00    +0.176 C 
ATOM     14  C   UNL     1     -35.248  24.062   5.255  0.00  0.00    +0.002 C 
ATOM     15  C   UNL     1     -35.502  22.040   3.928  0.00  0.00    +0.196 C 
ATOM     16  C   UNL     1     -35.271  22.723   5.232  0.00  0.00    +0.013 C 
ATOM     17  C   UNL     1     -35.076  21.872   6.445  0.00  0.00    +0.034 C 
ENDROOT
BRANCH   8  18
ATOM     18  O   UNL     1     -36.914  27.435   0.790  0.00  0.00    -0.382 OA
ATOM     19  H   UNL     1     -37.760  27.065   0.492  0.00  0.00    +0.210 HD
ENDBRANCH   8  18
BRANCH  10  20
ATOM     20  O   UNL     1     -35.447  28.060   3.739  0.00  0.00    -0.379 OA
ATOM     21  H   UNL     1     -35.216  29.001   3.680  0.00  0.00    +0.211 HD
ENDBRANCH  10  20
BRANCH  13  22
ATOM     22  O   UNL     1     -36.099  22.117   1.644  0.00  0.00    -0.377 OA
ATOM     23  H   UNL     1     -35.805  21.195   1.709  0.00  0.00    +0.211 HD
ENDBRANCH  13  22
BRANCH   6  24
ATOM     24  C   UNL     1     -37.665  24.041   3.134  0.00  0.00    +0.143 C 
BRANCH  24  25
ATOM     25  O   UNL     1     -38.021  24.880   4.206  0.00  0.00    -0.382 OA
ATOM     26  H   UNL     1     -37.659  24.521   5.031  0.00  0.00    +0.210 HD
ENDBRANCH  24  25
ENDBRANCH   6  24
TORSDOF 5
ENDMDL
MODEL 2
REMARK VINA RESULT:      -5.8      1.938      3.632
REMARK  Name = 5284433
REMARK  5 active torsions:
REMARK  status: ('A' for Active; 'I' for Inactive)
REMARK    1  A    between atoms: C_6  and  C_24
REMARK    2  A    between atoms: C_8  and  O_18
REMARK    3  A    between atoms: C_10  and  O_20
REMARK    4  A    between atoms: C_13  and  O_22
REMARK    5  A    between atoms: C_24  and  O_25
REMARK                            x       y       z     vdW  Elec       q    Type
REMARK                         _______ _______ _______ _____ _____    ______ ____
ROOT
ATOM      1  O   UNL     1     -38.265  25.390   0.104  0.00  0.00    -0.351 OA
ATOM      2  O   UNL     1     -37.642  26.209   3.601  0.00  0.00    -0.349 OA
ATOM      3  O   UNL     1     -32.757  25.325   3.651  0.00  0.00    -0.289 OA
ATOM      4  C   UNL     1     -37.239  23.955   1.887  0.00  0.00    +0.062 C 
ATOM      5  C   UNL     1     -37.659  25.332   1.405  0.00  0.00    +0.150 C 
ATOM      6  C   UNL     1     -36.183  24.222   3.075  0.00  0.00    +0.092 C 
ATOM      7  C   UNL     1     -38.499  25.889   2.501  0.00  0.00    +0.172 C 
ATOM      8  C   UNL     1     -38.617  23.445   2.497  0.00  0.00    +0.142 C 
ATOM      9  C   UNL     1     -37.058  26.144   0.284  0.00  0.00    +0.172 C 
ATOM     10  C   UNL     1     -39.453  24.718   2.780  0.00  0.00    +0.167 C 
ATOM     11  C   UNL     1     -36.879  25.124   4.158  0.00  0.00    +0.142 C 
ATOM     12  C   UNL     1     -36.729  23.031   0.774  0.00  0.00    +0.005 C 
ATOM     13  C   UNL     1     -34.901  24.972   2.598  0.00  0.00    +0.176 C 
ATOM     14  C   UNL     1     -35.938  25.752   5.147  0.00  0.00    +0.002 C 
ATOM     15  C   UNL     1     -33.983  25.364   3.753  0.00  0.00    +0.196 C 
ATOM     16  C   UNL     1     -34.610  25.860   5.010  0.00  0.00    +0.013 C 
ATOM     17  C   UNL     1     -33.717  26.456   6.051  0.00  0.00    +0.034 C 
ENDROOT
BRANCH   8  18
ATOM     18  O   UNL     1     -39.345  22.630   1.579  0.00  0.00    -0.382 OA
ATOM     19  H   UNL     1     -40.039  23.160   1.156  0.00  0.00    +0.210 HD
ENDBRANCH   8  18
BRANCH  10  20
ATOM     20  O   UNL     1     -39.966  24.753   4.099  0.00  0.00    -0.379 OA
ATOM     21  H   UNL     1     -39.354  25.242   4.672  0.00  0.00    +0.211 HD
ENDBRANCH  10  20
BRANCH  13  22
ATOM     22  O   UNL     1     -34.124  24.180   1.714  0.00  0.00    -0.377 OA
ATOM     23  H   UNL     1     -34.664  23.446   1.380  0.00  0.00    +0.211 HD
ENDBRANCH  13  22
BRANCH   6  24
ATOM     24  C   UNL     1     -35.750  22.875   3.722  0.00  0.00    +0.143 C 
BRANCH  24  25
ATOM     25  O   UNL     1     -36.567  22.666   4.847  0.00  0.00    -0.382 OA
ATOM     26  H   UNL     1     -37.251  23.353   4.882  0.00  0.00    +0.210 HD
ENDBRANCH  24  25
ENDBRANCH   6  24
TORSDOF 5
ENDMDL
MODEL 3
REMARK VINA RESULT:      -5.3      1.959      4.306
REMARK  Name = 5284433
REMARK  5 active torsions:
REMARK  status: ('A' for Active; 'I' for Inactive)
REMARK    1  A    between atoms: C_6  and  C_24
REMARK    2  A    between atoms: C_8  and  O_18
REMARK    3  A    between atoms: C_10  and  O_20
REMARK    4  A    between atoms: C_13  and  O_22
REMARK    5  A    between atoms: C_24  and  O_25
REMARK                            x       y       z     vdW  Elec       q    Type
REMARK                         _______ _______ _______ _____ _____    ______ ____
ROOT
ATOM      1  O   UNL     1     -40.346  25.326   1.881  0.00  0.00    -0.351 OA
ATOM      2  O   UNL     1     -38.241  22.525   2.883  0.00  0.00    -0.349 OA
ATOM      3  O   UNL     1     -35.288  24.980   6.029  0.00  0.00    -0.289 OA
ATOM      4  C   UNL     1     -37.852  25.113   1.730  0.00  0.00    +0.062 C 
ATOM      5  C   UNL     1     -39.168  24.621   2.304  0.00  0.00    +0.150 C 
ATOM      6  C   UNL     1     -36.714  24.522   2.706  0.00  0.00    +0.092 C 
ATOM      7  C   UNL     1     -39.193  23.158   2.024  0.00  0.00    +0.172 C 
ATOM      8  C   UNL     1     -37.840  24.323   0.350  0.00  0.00    +0.142 C 
ATOM      9  C   UNL     1     -40.070  25.324   3.289  0.00  0.00    +0.172 C 
ATOM     10  C   UNL     1     -38.804  23.125   0.539  0.00  0.00    +0.167 C 
ATOM     11  C   UNL     1     -36.875  22.960   2.760  0.00  0.00    +0.142 C 
ATOM     12  C   UNL     1     -37.790  26.632   1.520  0.00  0.00    +0.005 C 
ATOM     13  C   UNL     1     -36.825  25.053   4.169  0.00  0.00    +0.176 C 
ATOM     14  C   UNL     1     -36.131  22.293   3.883  0.00  0.00    +0.002 C 
ATOM     15  C   UNL     1     -35.849  24.367   5.121  0.00  0.00    +0.196 C 
ATOM     16  C   UNL     1     -35.628  22.902   4.964  0.00  0.00    +0.013 C 
ATOM     17  C   UNL     1     -34.855  22.192   6.029  0.00  0.00    +0.034 C 
ENDROOT
BRANCH   8  18
ATOM     18  O   UNL     1     -38.324  25.118  -0.732  0.00  0.00    -0.382 OA
ATOM     19  H   UNL     1     -37.576  25.546  -1.179  0.00  0.00    +0.210 HD
ENDBRANCH   8  18
BRANCH  10  20
ATOM     20  O   UNL     1     -38.221  21.890   0.169  0.00  0.00    -0.379 OA
ATOM     21  H   UNL     1     -38.484  21.205   0.804  0.00  0.00    +0.211 HD
ENDBRANCH  10  20
BRANCH  13  22
ATOM     22  O   UNL     1     -36.559  26.444   4.248  0.00  0.00    -0.377 OA
ATOM     23  H   UNL     1     -36.582  26.725   5.176  0.00  0.00    +0.211 HD
ENDBRANCH  13  22
BRANCH   6  24
ATOM     24  C   UNL     1     -35.301  24.881   2.163  0.00  0.00    +0.143 C 
BRANCH  24  25
ATOM     25  O   UNL     1     -34.827  23.762   1.454  0.00  0.00    -0.382 OA
ATOM     26  H   UNL     1     -34.280  23.215   2.040  0.00  0.00    +0.210 HD
ENDBRANCH  24  25
ENDBRANCH   6  24
TORSDOF 5
ENDMDL
MODEL 4
REMARK VINA RESULT:      -5.3      1.622      3.443
REMARK  Name = 5284433
REMARK  5 active torsions:
REMARK  status: ('A' for Active; 'I' for Inactive)
REMARK    1  A    between atoms: C_6  and  C_24
REMARK    2  A    between atoms: C_8  and  O_18
REMARK    3  A    between atoms: C_10  and  O_20
REMARK    4  A    between atoms: C_13  and  O_22
REMARK    5  A    between atoms: C_24  and  O_25
REMARK                            x       y       z     vdW  Elec       q    Type
REMARK                         _______ _______ _______ _____ _____    ______ ____
ROOT
ATOM      1  O   UNL     1     -38.322  26.569   2.638  0.00  0.00    -0.351 OA
ATOM      2  O   UNL     1     -35.862  24.749   0.658  0.00  0.00    -0.349 OA
ATOM      3  O   UNL     1     -35.698  20.615   3.403  0.00  0.00    -0.289 OA
ATOM      4  C   UNL     1     -36.127  25.604   3.375  0.00  0.00    +0.062 C 
ATOM      5  C   UNL     1     -37.239  25.672   2.344  0.00  0.00    +0.150 C 
ATOM      6  C   UNL     1     -35.346  24.228   3.070  0.00  0.00    +0.092 C 
ATOM      7  C   UNL     1     -36.554  25.938   1.048  0.00  0.00    +0.172 C 
ATOM      8  C   UNL     1     -35.242  26.840   2.907  0.00  0.00    +0.142 C 
ATOM      9  C   UNL     1     -38.661  25.183   2.481  0.00  0.00    +0.172 C 
ATOM     10  C   UNL     1     -35.624  27.100   1.428  0.00  0.00    +0.167 C 
ATOM     11  C   UNL     1     -34.867  24.255   1.574  0.00  0.00    +0.142 C 
ATOM     12  C   UNL     1     -36.607  25.760   4.823  0.00  0.00    +0.005 C 
ATOM     13  C   UNL     1     -36.241  22.962   3.250  0.00  0.00    +0.176 C 
ATOM     14  C   UNL     1     -34.438  22.921   1.030  0.00  0.00    +0.002 C 
ATOM     15  C   UNL     1     -35.545  21.679   2.804  0.00  0.00    +0.196 C 
ATOM     16  C   UNL     1     -34.707  21.727   1.573  0.00  0.00    +0.013 C 
ATOM     17  C   UNL     1     -34.213  20.433   1.011  0.00  0.00    +0.034 C 
ENDROOT
BRANCH   8  18
ATOM     18  O   UNL     1     -35.527  28.022   3.654  0.00  0.00    -0.382 OA
ATOM     19  H   UNL     1     -35.935  28.682   3.072  0.00  0.00    +0.210 HD
ENDBRANCH   8  18
BRANCH  10  20
ATOM     20  O   UNL     1     -34.496  27.178   0.577  0.00  0.00    -0.379 OA
ATOM     21  H   UNL     1     -34.355  26.319   0.147  0.00  0.00    +0.211 HD
ENDBRANCH  10  20
BRANCH  13  22
ATOM     22  O   UNL     1     -36.618  22.770   4.604  0.00  0.00    -0.377 OA
ATOM     23  H   UNL     1     -36.553  23.613   5.079  0.00  0.00    +0.211 HD
ENDBRANCH  13  22
BRANCH   6  24
ATOM     24  C   UNL     1     -34.113  24.091   4.008  0.00  0.00    +0.143 C 
BRANCH  24  25
ATOM     25  O   UNL     1     -33.174  25.061   3.613  0.00  0.00    -0.382 OA
ATOM     26  H   UNL     1     -32.453  24.634   3.125  0.00  0.00    +0.210 HD
ENDBRANCH  24  25
ENDBRANCH   6  24
TORSDOF 5
ENDMDL
MODEL 5
REMARK VINA RESULT:      -5.2      2.167      4.287
REMARK  Name = 5284433
REMARK  5 active torsions:
REMARK  status: ('A' for Active; 'I' for Inactive)
REMARK    1  A    between atoms: C_6  and  C_24
REMARK    2  A    between atoms: C_8  and  O_18
REMARK    3  A    between atoms: C_10  and  O_20
REMARK    4  A    between atoms: C_13  and  O_22
REMARK    5  A    between atoms: C_24  and  O_25
REMARK                            x       y       z     vdW  Elec       q    Type
REMARK                         _______ _______ _______ _____ _____    ______ ____
ROOT
ATOM      1  O   UNL     1     -34.805  23.105   3.747  0.00  0.00    -0.351 OA
ATOM      2  O   UNL     1     -38.035  24.736   4.178  0.00  0.00    -0.349 OA
ATOM      3  O   UNL     1     -39.766  24.049  -0.424  0.00  0.00    -0.289 OA
ATOM      4  C   UNL     1     -35.777  25.015   2.444  0.00  0.00    +0.062 C 
ATOM      5  C   UNL     1     -35.979  23.859   3.408  0.00  0.00    +0.150 C 
ATOM      6  C   UNL     1     -37.244  25.347   1.864  0.00  0.00    +0.092 C 
ATOM      7  C   UNL     1     -36.693  24.446   4.576  0.00  0.00    +0.172 C 
ATOM      8  C   UNL     1     -35.333  26.150   3.465  0.00  0.00    +0.142 C 
ATOM      9  C   UNL     1     -35.872  22.382   3.118  0.00  0.00    +0.172 C 
ATOM     10  C   UNL     1     -35.846  25.696   4.855  0.00  0.00    +0.167 C 
ATOM     11  C   UNL     1     -38.196  25.649   3.077  0.00  0.00    +0.142 C 
ATOM     12  C   UNL     1     -34.709  24.757   1.374  0.00  0.00    +0.005 C 
ATOM     13  C   UNL     1     -37.869  24.162   1.064  0.00  0.00    +0.176 C 
ATOM     14  C   UNL     1     -39.661  25.631   2.741  0.00  0.00    +0.002 C 
ATOM     15  C   UNL     1     -39.317  24.424   0.658  0.00  0.00    +0.196 C 
ATOM     16  C   UNL     1     -40.209  25.103   1.639  0.00  0.00    +0.013 C 
ATOM     17  C   UNL     1     -41.672  25.156   1.337  0.00  0.00    +0.034 C 
ENDROOT
BRANCH   8  18
ATOM     18  O   UNL     1     -33.914  26.287   3.537  0.00  0.00    -0.382 OA
ATOM     19  H   UNL     1     -33.682  27.228   3.593  0.00  0.00    +0.210 HD
ENDBRANCH   8  18
BRANCH  10  20
ATOM     20  O   UNL     1     -36.586  26.702   5.520  0.00  0.00    -0.379 OA
ATOM     21  H   UNL     1     -37.534  26.508   5.448  0.00  0.00    +0.211 HD
ENDBRANCH  10  20
BRANCH  13  22
ATOM     22  O   UNL     1     -37.154  23.897  -0.132  0.00  0.00    -0.377 OA
ATOM     23  H   UNL     1     -37.262  22.963  -0.372  0.00  0.00    +0.211 HD
ENDBRANCH  13  22
BRANCH   6  24
ATOM     24  C   UNL     1     -37.183  26.589   0.929  0.00  0.00    +0.143 C 
BRANCH  24  25
ATOM     25  O   UNL     1     -37.382  27.728   1.730  0.00  0.00    -0.382 OA
ATOM     26  H   UNL     1     -37.995  28.334   1.284  0.00  0.00    +0.210 HD
ENDBRANCH  24  25
ENDBRANCH   6  24
TORSDOF 5
ENDMDL
MODEL 6
REMARK VINA RESULT:      -5.2      1.611      4.708
REMARK  Name = 5284433
REMARK  5 active torsions:
REMARK  status: ('A' for Active; 'I' for Inactive)
REMARK    1  A    between atoms: C_6  and  C_24
REMARK    2  A    between atoms: C_8  and  O_18
REMARK    3  A    between atoms: C_10  and  O_20
REMARK    4  A    between atoms: C_13  and  O_22
REMARK    5  A    between atoms: C_24  and  O_25
REMARK                            x       y       z     vdW  Elec       q    Type
REMARK                         _______ _______ _______ _____ _____    ______ ____
ROOT
ATOM      1  O   UNL     1     -36.591  22.657   4.517  0.00  0.00    -0.351 OA
ATOM      2  O   UNL     1     -35.455  23.956   1.307  0.00  0.00    -0.349 OA
ATOM      3  O   UNL     1     -31.480  26.441   2.943  0.00  0.00    -0.289 OA
ATOM      4  C   UNL     1     -36.203  25.042   3.846  0.00  0.00    +0.062 C 
ATOM      5  C   UNL     1     -35.995  23.563   3.575  0.00  0.00    +0.150 C 
ATOM      6  C   UNL     1     -35.067  25.796   2.986  0.00  0.00    +0.092 C 
ATOM      7  C   UNL     1     -36.431  23.359   2.165  0.00  0.00    +0.172 C 
ATOM      8  C   UNL     1     -37.623  25.250   3.161  0.00  0.00    +0.142 C 
ATOM      9  C   UNL     1     -35.166  22.583   4.369  0.00  0.00    +0.172 C 
ATOM     10  C   UNL     1     -37.786  24.081   2.158  0.00  0.00    +0.167 C 
ATOM     11  C   UNL     1     -35.221  25.366   1.483  0.00  0.00    +0.142 C 
ATOM     12  C   UNL     1     -36.227  25.408   5.335  0.00  0.00    +0.005 C 
ATOM     13  C   UNL     1     -33.617  25.429   3.430  0.00  0.00    +0.176 C 
ATOM     14  C   UNL     1     -34.040  25.695   0.614  0.00  0.00    +0.002 C 
ATOM     15  C   UNL     1     -32.551  26.018   2.510  0.00  0.00    +0.196 C 
ATOM     16  C   UNL     1     -32.813  26.019   1.043  0.00  0.00    +0.013 C 
ATOM     17  C   UNL     1     -31.687  26.383   0.130  0.00  0.00    +0.034 C 
ENDROOT
BRANCH   8  18
ATOM     18  O   UNL     1     -38.693  25.181   4.103  0.00  0.00    -0.382 OA
ATOM     19  H   UNL     1     -38.981  26.080   4.331  0.00  0.00    +0.210 HD
ENDBRANCH   8  18
BRANCH  10  20
ATOM     20  O   UNL     1     -38.148  24.519   0.862  0.00  0.00    -0.379 OA
ATOM     21  H   UNL     1     -38.739  23.867   0.453  0.00  0.00    +0.211 HD
ENDBRANCH  10  20
BRANCH  13  22
ATOM     22  O   UNL     1     -33.330  25.900   4.737  0.00  0.00    -0.377 OA
ATOM     23  H   UNL     1     -34.159  26.112   5.193  0.00  0.00    +0.211 HD
ENDBRANCH  13  22
BRANCH   6  24
ATOM     24  C   UNL     1     -35.238  27.338   3.105  0.00  0.00    +0.143 C 
BRANCH  24  25
ATOM     25  O   UNL     1     -36.260  27.717   2.215  0.00  0.00    -0.382 OA
ATOM     26  H   UNL     1     -37.039  28.001   2.718  0.00  0.00    +0.210 HD
ENDBRANCH  24  25
ENDBRANCH   6  24
TORSDOF 5
ENDMDL
MODEL 7
REMARK VINA RESULT:      -5.1      1.653      4.956
REMARK  Name = 5284433
REMARK  5 active torsions:
REMARK  status: ('A' for Active; 'I' for Inactive)
REMARK    1  A    between atoms: C_6  and  C_24
REMARK    2  A    between atoms: C_8  and  O_18
REMARK    3  A    between atoms: C_10  and  O_20
REMARK    4  A    between atoms: C_13  and  O_22
REMARK    5  A    between atoms: C_24  and  O_25
REMARK                            x       y       z     vdW  Elec       q    Type
REMARK                         _______ _______ _______ _____ _____    ______ ____
ROOT
ATOM      1  O   UNL     1     -33.653  24.570   4.098  0.00  0.00    -0.351 OA
ATOM      2  O   UNL     1     -35.774  23.181   1.480  0.00  0.00    -0.349 OA
ATOM      3  O   UNL     1     -38.186  27.348   0.271  0.00  0.00    -0.289 OA
ATOM      4  C   UNL     1     -36.156  24.602   3.933  0.00  0.00    +0.062 C 
ATOM      5  C   UNL     1     -34.809  24.397   3.263  0.00  0.00    +0.150 C 
ATOM      6  C   UNL     1     -37.199  24.844   2.728  0.00  0.00    +0.092 C 
ATOM      7  C   UNL     1     -34.899  23.064   2.605  0.00  0.00    +0.172 C 
ATOM      8  C   UNL     1     -36.377  23.154   4.553  0.00  0.00    +0.142 C 
ATOM      9  C   UNL     1     -33.758  25.437   2.960  0.00  0.00    +0.172 C 
ATOM     10  C   UNL     1     -35.465  22.200   3.742  0.00  0.00    +0.167 C 
ATOM     11  C   UNL     1     -37.119  23.614   1.754  0.00  0.00    +0.142 C 
ATOM     12  C   UNL     1     -36.158  25.693   5.011  0.00  0.00    +0.005 C 
ATOM     13  C   UNL     1     -36.883  26.123   1.892  0.00  0.00    +0.176 C 
ATOM     14  C   UNL     1     -37.757  23.837   0.412  0.00  0.00    +0.002 C 
ATOM     15  C   UNL     1     -37.773  26.256   0.659  0.00  0.00    +0.196 C 
ATOM     16  C   UNL     1     -38.092  25.023  -0.113  0.00  0.00    +0.013 C 
ATOM     17  C   UNL     1     -38.769  25.180  -1.437  0.00  0.00    +0.034 C 
ENDROOT
BRANCH   8  18
ATOM     18  O   UNL     1     -35.984  23.088   5.924  0.00  0.00    -0.382 OA
ATOM     19  H   UNL     1     -35.455  23.871   6.147  0.00  0.00    +0.210 HD
ENDBRANCH   8  18
BRANCH  10  20
ATOM     20  O   UNL     1     -36.156  21.066   3.254  0.00  0.00    -0.379 OA
ATOM     21  H   UNL     1     -36.813  21.345   2.597  0.00  0.00    +0.211 HD
ENDBRANCH  10  20
BRANCH  13  22
ATOM     22  O   UNL     1     -37.060  27.308   2.651  0.00  0.00    -0.377 OA
ATOM     23  H   UNL     1     -37.102  27.083   3.593  0.00  0.00    +0.211 HD
ENDBRANCH  13  22
BRANCH   6  24
ATOM     24  C   UNL     1     -38.645  24.971   3.287  0.00  0.00    +0.143 C 
BRANCH  24  25
ATOM     25  O   UNL     1     -39.260  23.713   3.152  0.00  0.00    -0.382 OA
ATOM     26  H   UNL     1     -40.078  23.695   3.672  0.00  0.00    +0.210 HD
ENDBRANCH  24  25
ENDBRANCH   6  24
TORSDOF 5
ENDMDL
MODEL 8
REMARK VINA RESULT:      -5.1      1.725      4.280
REMARK  Name = 5284433
REMARK  5 active torsions:
REMARK  status: ('A' for Active; 'I' for Inactive)
REMARK    1  A    between atoms: C_6  and  C_24
REMARK    2  A    between atoms: C_8  and  O_18
REMARK    3  A    between atoms: C_10  and  O_20
REMARK    4  A    between atoms: C_13  and  O_22
REMARK    5  A    between atoms: C_24  and  O_25
REMARK                            x       y       z     vdW  Elec       q    Type
REMARK                         _______ _______ _______ _____ _____    ______ ____
ROOT
ATOM      1  O   UNL     1     -36.059  23.335   0.943  0.00  0.00    -0.351 OA
ATOM      2  O   UNL     1     -36.038  26.938   1.489  0.00  0.00    -0.349 OA
ATOM      3  O   UNL     1     -31.860  27.201   4.159  0.00  0.00    -0.289 OA
ATOM      4  C   UNL     1     -36.001  24.586   3.116  0.00  0.00    +0.062 C 
ATOM      5  C   UNL     1     -35.825  24.587   1.608  0.00  0.00    +0.150 C 
ATOM      6  C   UNL     1     -35.224  25.898   3.636  0.00  0.00    +0.092 C 
ATOM      7  C   UNL     1     -36.671  25.711   1.118  0.00  0.00    +0.172 C 
ATOM      8  C   UNL     1     -37.572  24.818   3.210  0.00  0.00    +0.142 C 
ATOM      9  C   UNL     1     -34.749  23.904   0.801  0.00  0.00    +0.172 C 
ATOM     10  C   UNL     1     -37.990  25.446   1.857  0.00  0.00    +0.167 C 
ATOM     11  C   UNL     1     -35.821  27.149   2.897  0.00  0.00    +0.142 C 
ATOM     12  C   UNL     1     -35.574  23.278   3.795  0.00  0.00    +0.005 C 
ATOM     13  C   UNL     1     -33.693  25.864   3.334  0.00  0.00    +0.176 C 
ATOM     14  C   UNL     1     -34.985  28.394   2.999  0.00  0.00    +0.002 C 
ATOM     15  C   UNL     1     -32.994  27.175   3.682  0.00  0.00    +0.196 C 
ATOM     16  C   UNL     1     -33.701  28.451   3.375  0.00  0.00    +0.013 C 
ATOM     17  C   UNL     1     -32.932  29.727   3.503  0.00  0.00    +0.034 C 
ENDROOT
BRANCH   8  18
ATOM     18  O   UNL     1     -38.290  23.596   3.375  0.00  0.00    -0.382 OA
ATOM     19  H   UNL     1     -38.349  23.380   4.319  0.00  0.00    +0.210 HD
ENDBRANCH   8  18
BRANCH  10  20
ATOM     20  O   UNL     1     -38.757  26.625   2.015  0.00  0.00    -0.379 OA
ATOM     21  H   UNL     1     -38.321  27.359   1.554  0.00  0.00    +0.211 HD
ENDBRANCH  10  20
BRANCH  13  22
ATOM     22  O   UNL     1     -33.033  24.845   4.068  0.00  0.00    -0.377 OA
ATOM     23  H   UNL     1     -33.221  24.954   5.013  0.00  0.00    +0.211 HD
ENDBRANCH  13  22
BRANCH   6  24
ATOM     24  C   UNL     1     -35.415  26.062   5.172  0.00  0.00    +0.143 C 
BRANCH  24  25
ATOM     25  O   UNL     1     -36.688  26.625   5.379  0.00  0.00    -0.382 OA
ATOM     26  H   UNL     1     -37.015  27.000   4.547  0.00  0.00    +0.210 HD
ENDBRANCH  24  25
ENDBRANCH   6  24
TORSDOF 5
ENDMDL
MODEL 9
REMARK VINA RESULT:      -5.1      1.891      3.411
REMARK  Name = 5284433
REMARK  5 active torsions:
REMARK  status: ('A' for Active; 'I' for Inactive)
REMARK    1  A    between atoms: C_6  and  C_24
REMARK    2  A    between atoms: C_8  and  O_18
REMARK    3  A    between atoms: C_10  and  O_20
REMARK    4  A    between atoms: C_13  and  O_22
REMARK    5  A    between atoms: C_24  and  O_25
REMARK                            x       y       z     vdW  Elec       q    Type
REMARK                         _______ _______ _______ _____ _____    ______ ____
ROOT
ATOM      1  O   UNL     1     -36.069  27.680   2.273  0.00  0.00    -0.351 OA
ATOM      2  O   UNL     1     -34.194  24.564   2.031  0.00  0.00    -0.349 OA
ATOM      3  O   UNL     1     -37.461  22.012  -0.700  0.00  0.00    -0.289 OA
ATOM      4  C   UNL     1     -36.780  25.372   2.949  0.00  0.00    +0.062 C 
ATOM      5  C   UNL     1     -35.827  26.268   2.178  0.00  0.00    +0.150 C 
ATOM      6  C   UNL     1     -36.613  23.909   2.295  0.00  0.00    +0.092 C 
ATOM      7  C   UNL     1     -34.464  25.846   2.605  0.00  0.00    +0.172 C 
ATOM      8  C   UNL     1     -36.088  25.403   4.381  0.00  0.00    +0.142 C 
ATOM      9  C   UNL     1     -36.126  27.107   0.960  0.00  0.00    +0.172 C 
ATOM     10  C   UNL     1     -34.617  25.821   4.133  0.00  0.00    +0.167 C 
ATOM     11  C   UNL     1     -35.099  23.501   2.380  0.00  0.00    +0.142 C 
ATOM     12  C   UNL     1     -38.223  25.891   3.000  0.00  0.00    +0.005 C 
ATOM     13  C   UNL     1     -37.025  23.860   0.790  0.00  0.00    +0.176 C 
ATOM     14  C   UNL     1     -34.714  22.336   1.511  0.00  0.00    +0.002 C 
ATOM     15  C   UNL     1     -36.713  22.517   0.137  0.00  0.00    +0.196 C 
ATOM     16  C   UNL     1     -35.433  21.843   0.494  0.00  0.00    +0.013 C 
ATOM     17  C   UNL     1     -35.021  20.650  -0.308  0.00  0.00    +0.034 C 
ENDROOT
BRANCH   8  18
ATOM     18  O   UNL     1     -36.684  26.366   5.249  0.00  0.00    -0.382 OA
ATOM     19  H   UNL     1     -36.543  27.256   4.890  0.00  0.00    +0.210 HD
ENDBRANCH   8  18
BRANCH  10  20
ATOM     20  O   UNL     1     -33.689  24.946   4.745  0.00  0.00    -0.379 OA
ATOM     21  H   UNL     1     -33.683  24.098   4.274  0.00  0.00    +0.211 HD
ENDBRANCH  10  20
BRANCH  13  22
ATOM     22  O   UNL     1     -38.415  24.083   0.616  0.00  0.00    -0.377 OA
ATOM     23  H   UNL     1     -38.909  23.319   0.952  0.00  0.00    +0.211 HD
ENDBRANCH  13  22
BRANCH   6  24
ATOM     24  C   UNL     1     -37.476  22.872   3.071  0.00  0.00    +0.143 C 
BRANCH  24  25
ATOM     25  O   UNL     1     -36.688  22.376   4.125  0.00  0.00    -0.382 OA
ATOM     26  H   UNL     1     -35.881  21.974   3.765  0.00  0.00    +0.210 HD
ENDBRANCH  24  25
ENDBRANCH   6  24
TORSDOF 5
ENDMDL
