MODEL 1
REMARK VINA RESULT:      -5.6      0.000      0.000
REMARK  Name = 50905018
REMARK  9 active torsions:
REMARK  status: ('A' for Active; 'I' for Inactive)
REMARK    1  A    between atoms: N_1  and  C_3
REMARK    2  A    between atoms: N_1  and  C_11
REMARK    3  A    between atoms: N_1  and  C_19
REMARK    4  A    between atoms: C_3  and  C_5
REMARK    5  A    between atoms: C_5  and  O_6
REMARK    6  A    between atoms: O_6  and  C_7
REMARK    7  A    between atoms: C_11  and  C_13
REMARK    8  A    between atoms: C_19  and  C_21
REMARK    9  A    between atoms: C_24  and  N_27
REMARK                            x       y       z     vdW  Elec       q    Type
REMARK                         _______ _______ _______ _____ _____    ______ ____
ROOT
ATOM      1  N   UNL     1     -35.357  22.528   1.183  0.00  0.00    +0.400 N 
ATOM      2  H   UNL     1     -34.522  22.481   1.768  0.00  0.00    -0.078 HD
ENDROOT
BRANCH   1   3
ATOM      3  C   UNL     1     -36.523  22.420   2.048  0.00  0.00    +0.036 C 
BRANCH   3   5
ATOM      4  O   UNL     1     -35.406  21.063   3.734  0.00  0.00    -0.252 OA
ATOM      5  C   UNL     1     -36.070  22.048   3.438  0.00  0.00    +0.295 C 
BRANCH   5   6
ATOM      6  O   UNL     1     -36.525  22.994   4.317  0.00  0.00    -0.457 OA
BRANCH   6   7
ATOM      7  C   UNL     1     -35.565  23.477   5.257  0.00  0.00    +0.136 C 
ATOM      8  C   UNL     1     -34.211  23.591   4.556  0.00  0.00    +0.044 C 
ATOM      9  C   UNL     1     -36.039  24.848   5.736  0.00  0.00    +0.044 C 
ATOM     10  C   UNL     1     -35.492  22.495   6.425  0.00  0.00    +0.044 C 
ENDBRANCH   6   7
ENDBRANCH   5   6
ENDBRANCH   3   5
ENDBRANCH   1   3
BRANCH   1  11
ATOM     11  C   UNL     1     -35.319  21.420   0.226  0.00  0.00    -0.049 C 
BRANCH  11  13
ATOM     12 CL   UNL     1     -30.493  17.920   1.038  0.00  0.00    -0.082 Cl
ATOM     13  C   UNL     1     -34.110  20.544   0.430  0.00  0.00    -0.043 C 
ATOM     14  C   UNL     1     -34.231  19.339   1.121  0.00  0.00    -0.005 C 
ATOM     15  C   UNL     1     -32.871  20.939  -0.073  0.00  0.00    -0.005 C 
ATOM     16  C   UNL     1     -33.112  18.528   1.311  0.00  0.00    +0.011 C 
ATOM     17  C   UNL     1     -31.751  20.128   0.116  0.00  0.00    +0.011 C 
ATOM     18  C   UNL     1     -31.872  18.923   0.808  0.00  0.00    +0.058 C 
ENDBRANCH  11  13
ENDBRANCH   1  11
BRANCH   1  19
ATOM     19  C   UNL     1     -35.356  23.809   0.473  0.00  0.00    -0.042 C 
BRANCH  19  21
ATOM     20  S   UNL     1     -35.471  26.023   2.154  0.00  0.00    -0.070 S 
ATOM     21  C   UNL     1     -34.603  24.870   1.232  0.00  0.00    -0.012 C 
ATOM     22  C   UNL     1     -33.242  25.070   1.303  0.00  0.00    +0.002 C 
ATOM     23  C   UNL     1     -32.907  26.185   2.124  0.00  0.00    +0.031 C 
ATOM     24  C   UNL     1     -34.025  26.794   2.650  0.00  0.00    +0.172 C 
BRANCH  24  27
ATOM     25  O   UNL     1     -33.443  27.922   4.576  0.00  0.00    -0.126 OA
ATOM     26  O   UNL     1     -34.823  28.893   3.172  0.00  0.00    -0.126 OA
ATOM     27  N   UNL     1     -34.100  27.909   3.496  0.00  0.00    +0.064 N 
ENDBRANCH  24  27
ENDBRANCH  19  21
ENDBRANCH   1  19
TORSDOF 9
ENDMDL
MODEL 2
REMARK VINA RESULT:      -5.5      2.465      4.336
REMARK  Name = 50905018
REMARK  9 active torsions:
REMARK  status: ('A' for Active; 'I' for Inactive)
REMARK    1  A    between atoms: N_1  and  C_3
REMARK    2  A    between atoms: N_1  and  C_11
REMARK    3  A    between atoms: N_1  and  C_19
REMARK    4  A    between atoms: C_3  and  C_5
REMARK    5  A    between atoms: C_5  and  O_6
REMARK    6  A    between atoms: O_6  and  C_7
REMARK    7  A    between atoms: C_11  and  C_13
REMARK    8  A    between atoms: C_19  and  C_21
REMARK    9  A    between atoms: C_24  and  N_27
REMARK                            x       y       z     vdW  Elec       q    Type
REMARK                         _______ _______ _______ _____ _____    ______ ____
ROOT
ATOM      1  N   UNL     1     -37.367  23.215   2.282  0.00  0.00    +0.400 N 
ATOM      2  H   UNL     1     -37.274  22.350   2.815  0.00  0.00    -0.078 HD
ENDROOT
BRANCH   1   3
ATOM      3  C   UNL     1     -38.465  23.050   1.341  0.00  0.00    +0.036 C 
BRANCH   3   5
ATOM      4  O   UNL     1     -40.151  21.500   2.169  0.00  0.00    -0.252 OA
ATOM      5  C   UNL     1     -39.106  21.703   1.565  0.00  0.00    +0.295 C 
BRANCH   5   6
ATOM      6  O   UNL     1     -38.324  20.742   0.982  0.00  0.00    -0.457 OA
BRANCH   6   7
ATOM      7  C   UNL     1     -38.605  20.465  -0.390  0.00  0.00    +0.136 C 
ATOM      8  C   UNL     1     -37.649  21.284  -1.257  0.00  0.00    +0.044 C 
ATOM      9  C   UNL     1     -38.386  18.971  -0.613  0.00  0.00    +0.044 C 
ATOM     10  C   UNL     1     -40.058  20.844  -0.675  0.00  0.00    +0.044 C 
ENDBRANCH   6   7
ENDBRANCH   5   6
ENDBRANCH   3   5
ENDBRANCH   1   3
BRANCH   1  11
ATOM     11  C   UNL     1     -36.110  23.464   1.573  0.00  0.00    -0.049 C 
BRANCH  11  13
ATOM     12 CL   UNL     1     -32.757  18.488   1.140  0.00  0.00    -0.082 Cl
ATOM     13  C   UNL     1     -35.271  22.218   1.465  0.00  0.00    -0.043 C 
ATOM     14  C   UNL     1     -34.342  22.091   0.433  0.00  0.00    -0.005 C 
ATOM     15  C   UNL     1     -35.424  21.191   2.396  0.00  0.00    -0.005 C 
ATOM     16  C   UNL     1     -33.566  20.936   0.332  0.00  0.00    +0.011 C 
ATOM     17  C   UNL     1     -34.647  20.037   2.295  0.00  0.00    +0.011 C 
ATOM     18  C   UNL     1     -33.718  19.910   1.263  0.00  0.00    +0.058 C 
ENDBRANCH  11  13
ENDBRANCH   1  11
BRANCH   1  19
ATOM     19  C   UNL     1     -37.647  24.309   3.216  0.00  0.00    -0.042 C 
BRANCH  19  21
ATOM     20  S   UNL     1     -35.716  26.166   3.967  0.00  0.00    -0.070 S 
ATOM     21  C   UNL     1     -36.456  24.626   4.081  0.00  0.00    -0.012 C 
ATOM     22  C   UNL     1     -35.829  23.819   5.006  0.00  0.00    +0.002 C 
ATOM     23  C   UNL     1     -34.728  24.473   5.628  0.00  0.00    +0.031 C 
ATOM     24  C   UNL     1     -34.554  25.756   5.155  0.00  0.00    +0.172 C 
BRANCH  24  27
ATOM     25  O   UNL     1     -33.336  27.673   4.752  0.00  0.00    -0.126 OA
ATOM     26  O   UNL     1     -32.977  26.579   6.621  0.00  0.00    -0.126 OA
ATOM     27  N   UNL     1     -33.587  26.703   5.522  0.00  0.00    +0.064 N 
ENDBRANCH  24  27
ENDBRANCH  19  21
ENDBRANCH   1  19
TORSDOF 9
ENDMDL
MODEL 3
REMARK VINA RESULT:      -5.5      2.504      4.644
REMARK  Name = 50905018
REMARK  9 active torsions:
REMARK  status: ('A' for Active; 'I' for Inactive)
REMARK    1  A    between atoms: N_1  and  C_3
REMARK    2  A    between atoms: N_1  and  C_11
REMARK    3  A    between atoms: N_1  and  C_19
REMARK    4  A    between atoms: C_3  and  C_5
REMARK    5  A    between atoms: C_5  and  O_6
REMARK    6  A    between atoms: O_6  and  C_7
REMARK    7  A    between atoms: C_11  and  C_13
REMARK    8  A    between atoms: C_19  and  C_21
REMARK    9  A    between atoms: C_24  and  N_27
REMARK                            x       y       z     vdW  Elec       q    Type
REMARK                         _______ _______ _______ _____ _____    ______ ____
ROOT
ATOM      1  N   UNL     1     -36.295  21.323   0.989  0.00  0.00    +0.400 N 
ATOM      2  H   UNL     1     -36.197  20.468   1.537  0.00  0.00    -0.078 HD
ENDROOT
BRANCH   1   3
ATOM      3  C   UNL     1     -36.948  20.982  -0.267  0.00  0.00    +0.036 C 
BRANCH   3   5
ATOM      4  O   UNL     1     -39.104  19.863  -0.097  0.00  0.00    -0.252 OA
ATOM      5  C   UNL     1     -37.883  19.821  -0.034  0.00  0.00    +0.295 C 
BRANCH   5   6
ATOM      6  O   UNL     1     -37.139  18.710   0.262  0.00  0.00    -0.457 OA
BRANCH   6   7
ATOM      7  C   UNL     1     -37.061  17.726  -0.769  0.00  0.00    +0.136 C 
ATOM      8  C   UNL     1     -37.460  18.376  -2.094  0.00  0.00    +0.044 C 
ATOM      9  C   UNL     1     -35.618  17.231  -0.826  0.00  0.00    +0.044 C 
ATOM     10  C   UNL     1     -38.009  16.579  -0.419  0.00  0.00    +0.044 C 
ENDBRANCH   6   7
ENDBRANCH   5   6
ENDBRANCH   3   5
ENDBRANCH   1   3
BRANCH   1  11
ATOM     11  C   UNL     1     -34.962  21.877   0.745  0.00  0.00    -0.049 C 
BRANCH  11  13
ATOM     12 CL   UNL     1     -30.718  17.614   0.789  0.00  0.00    -0.082 Cl
ATOM     13  C   UNL     1     -33.900  20.810   0.755  0.00  0.00    -0.043 C 
ATOM     14  C   UNL     1     -32.735  20.978   0.008  0.00  0.00    -0.005 C 
ATOM     15  C   UNL     1     -34.082  19.653   1.513  0.00  0.00    -0.005 C 
ATOM     16  C   UNL     1     -31.752  19.988   0.017  0.00  0.00    +0.011 C 
ATOM     17  C   UNL     1     -33.098  18.664   1.523  0.00  0.00    +0.011 C 
ATOM     18  C   UNL     1     -31.933  18.832   0.775  0.00  0.00    +0.058 C 
ENDBRANCH  11  13
ENDBRANCH   1  11
BRANCH   1  19
ATOM     19  C   UNL     1     -37.107  22.275   1.751  0.00  0.00    -0.042 C 
BRANCH  19  21
ATOM     20  S   UNL     1     -36.201  24.572   3.032  0.00  0.00    -0.070 S 
ATOM     21  C   UNL     1     -36.339  22.870   2.902  0.00  0.00    -0.012 C 
ATOM     22  C   UNL     1     -35.690  22.219   3.928  0.00  0.00    +0.002 C 
ATOM     23  C   UNL     1     -35.070  23.129   4.832  0.00  0.00    +0.031 C 
ATOM     24  C   UNL     1     -35.270  24.441   4.463  0.00  0.00    +0.172 C 
BRANCH  24  27
ATOM     25  O   UNL     1     -33.596  25.736   5.380  0.00  0.00    -0.126 OA
ATOM     26  O   UNL     1     -35.644  26.526   5.375  0.00  0.00    -0.126 OA
ATOM     27  N   UNL     1     -34.820  25.609   5.096  0.00  0.00    +0.064 N 
ENDBRANCH  24  27
ENDBRANCH  19  21
ENDBRANCH   1  19
TORSDOF 9
ENDMDL
MODEL 4
REMARK VINA RESULT:      -5.5      3.901      6.435
REMARK  Name = 50905018
REMARK  9 active torsions:
REMARK  status: ('A' for Active; 'I' for Inactive)
REMARK    1  A    between atoms: N_1  and  C_3
REMARK    2  A    between atoms: N_1  and  C_11
REMARK    3  A    between atoms: N_1  and  C_19
REMARK    4  A    between atoms: C_3  and  C_5
REMARK    5  A    between atoms: C_5  and  O_6
REMARK    6  A    between atoms: O_6  and  C_7
REMARK    7  A    between atoms: C_11  and  C_13
REMARK    8  A    between atoms: C_19  and  C_21
REMARK    9  A    between atoms: C_24  and  N_27
REMARK                            x       y       z     vdW  Elec       q    Type
REMARK                         _______ _______ _______ _____ _____    ______ ____
ROOT
ATOM      1  N   UNL     1     -36.291  21.270   1.660  0.00  0.00    +0.400 N 
ATOM      2  H   UNL     1     -35.881  22.142   1.323  0.00  0.00    -0.078 HD
ENDROOT
BRANCH   1   3
ATOM      3  C   UNL     1     -37.738  21.429   1.679  0.00  0.00    +0.036 C 
BRANCH   3   5
ATOM      4  O   UNL     1     -38.671  22.496  -0.302  0.00  0.00    -0.252 OA
ATOM      5  C   UNL     1     -38.117  22.585   0.786  0.00  0.00    +0.295 C 
BRANCH   5   6
ATOM      6  O   UNL     1     -37.738  23.752   1.394  0.00  0.00    -0.457 OA
BRANCH   6   7
ATOM      7  C   UNL     1     -38.784  24.487   2.027  0.00  0.00    +0.136 C 
ATOM      8  C   UNL     1     -39.986  23.561   2.215  0.00  0.00    +0.044 C 
ATOM      9  C   UNL     1     -38.259  24.965   3.379  0.00  0.00    +0.044 C 
ATOM     10  C   UNL     1     -39.148  25.677   1.140  0.00  0.00    +0.044 C 
ENDBRANCH   6   7
ENDBRANCH   5   6
ENDBRANCH   3   5
ENDBRANCH   1   3
BRANCH   1  11
ATOM     11  C   UNL     1     -35.782  21.003   3.006  0.00  0.00    -0.049 C 
BRANCH  11  13
ATOM     12 CL   UNL     1     -34.268  26.068   5.877  0.00  0.00    -0.082 Cl
ATOM     13  C   UNL     1     -35.403  22.271   3.724  0.00  0.00    -0.043 C 
ATOM     14  C   UNL     1     -35.544  22.356   5.109  0.00  0.00    -0.005 C 
ATOM     15  C   UNL     1     -34.912  23.360   3.004  0.00  0.00    -0.005 C 
ATOM     16  C   UNL     1     -35.194  23.531   5.774  0.00  0.00    +0.011 C 
ATOM     17  C   UNL     1     -34.562  24.535   3.670  0.00  0.00    +0.011 C 
ATOM     18  C   UNL     1     -34.703  24.620   5.055  0.00  0.00    +0.058 C 
ENDBRANCH  11  13
ENDBRANCH   1  11
BRANCH   1  19
ATOM     19  C   UNL     1     -35.903  20.191   0.748  0.00  0.00    -0.042 C 
BRANCH  19  21
ATOM     20  S   UNL     1     -33.570  18.700   1.021  0.00  0.00    -0.070 S 
ATOM     21  C   UNL     1     -34.409  20.121   0.565  0.00  0.00    -0.012 C 
ATOM     22  C   UNL     1     -33.562  21.083   0.060  0.00  0.00    +0.002 C 
ATOM     23  C   UNL     1     -32.206  20.647   0.047  0.00  0.00    +0.031 C 
ATOM     24  C   UNL     1     -32.068  19.369   0.543  0.00  0.00    +0.172 C 
BRANCH  24  27
ATOM     25  O   UNL     1     -29.835  18.975   0.119  0.00  0.00    -0.126 OA
ATOM     26  O   UNL     1     -30.925  17.555   1.389  0.00  0.00    -0.126 OA
ATOM     27  N   UNL     1     -30.901  18.605   0.688  0.00  0.00    +0.064 N 
ENDBRANCH  24  27
ENDBRANCH  19  21
ENDBRANCH   1  19
TORSDOF 9
ENDMDL
MODEL 5
REMARK VINA RESULT:      -5.5      3.899      6.485
REMARK  Name = 50905018
REMARK  9 active torsions:
REMARK  status: ('A' for Active; 'I' for Inactive)
REMARK    1  A    between atoms: N_1  and  C_3
REMARK    2  A    between atoms: N_1  and  C_11
REMARK    3  A    between atoms: N_1  and  C_19
REMARK    4  A    between atoms: C_3  and  C_5
REMARK    5  A    between atoms: C_5  and  O_6
REMARK    6  A    between atoms: O_6  and  C_7
REMARK    7  A    between atoms: C_11  and  C_13
REMARK    8  A    between atoms: C_19  and  C_21
REMARK    9  A    between atoms: C_24  and  N_27
REMARK                            x       y       z     vdW  Elec       q    Type
REMARK                         _______ _______ _______ _____ _____    ______ ____
ROOT
ATOM      1  N   UNL     1     -36.328  21.284   1.761  0.00  0.00    +0.400 N 
ATOM      2  H   UNL     1     -35.940  22.162   1.415  0.00  0.00    -0.078 HD
ENDROOT
BRANCH   1   3
ATOM      3  C   UNL     1     -37.777  21.423   1.822  0.00  0.00    +0.036 C 
BRANCH   3   5
ATOM      4  O   UNL     1     -38.835  22.316  -0.181  0.00  0.00    -0.252 OA
ATOM      5  C   UNL     1     -38.208  22.497   0.854  0.00  0.00    +0.295 C 
BRANCH   5   6
ATOM      6  O   UNL     1     -37.780  23.710   1.324  0.00  0.00    -0.457 OA
BRANCH   6   7
ATOM      7  C   UNL     1     -38.770  24.505   1.975  0.00  0.00    +0.136 C 
ATOM      8  C   UNL     1     -40.048  23.677   2.110  0.00  0.00    +0.044 C 
ATOM      9  C   UNL     1     -38.227  24.882   3.352  0.00  0.00    +0.044 C 
ATOM     10  C   UNL     1     -39.019  25.756   1.134  0.00  0.00    +0.044 C 
ENDBRANCH   6   7
ENDBRANCH   5   6
ENDBRANCH   3   5
ENDBRANCH   1   3
BRANCH   1  11
ATOM     11  C   UNL     1     -35.777  21.023   3.092  0.00  0.00    -0.049 C 
BRANCH  11  13
ATOM     12 CL   UNL     1     -34.267  26.109   5.927  0.00  0.00    -0.082 Cl
ATOM     13  C   UNL     1     -35.399  22.296   3.802  0.00  0.00    -0.043 C 
ATOM     14  C   UNL     1     -34.878  23.368   3.080  0.00  0.00    -0.005 C 
ATOM     15  C   UNL     1     -35.570  22.402   5.183  0.00  0.00    -0.005 C 
ATOM     16  C   UNL     1     -34.527  24.547   3.738  0.00  0.00    +0.011 C 
ATOM     17  C   UNL     1     -35.218  23.581   5.840  0.00  0.00    +0.011 C 
ATOM     18  C   UNL     1     -34.697  24.653   5.118  0.00  0.00    +0.058 C 
ENDBRANCH  11  13
ENDBRANCH   1  11
BRANCH   1  19
ATOM     19  C   UNL     1     -35.951  20.212   0.837  0.00  0.00    -0.042 C 
BRANCH  19  21
ATOM     20  S   UNL     1     -33.602  18.736   1.042  0.00  0.00    -0.070 S 
ATOM     21  C   UNL     1     -34.461  20.156   0.622  0.00  0.00    -0.012 C 
ATOM     22  C   UNL     1     -33.632  21.130   0.110  0.00  0.00    +0.002 C 
ATOM     23  C   UNL     1     -32.274  20.705   0.063  0.00  0.00    +0.031 C 
ATOM     24  C   UNL     1     -32.116  19.422   0.540  0.00  0.00    +0.172 C 
BRANCH  24  27
ATOM     25  O   UNL     1     -30.937  17.612   1.349  0.00  0.00    -0.126 OA
ATOM     26  O   UNL     1     -29.896  19.042   0.050  0.00  0.00    -0.126 OA
ATOM     27  N   UNL     1     -30.941  18.666   0.651  0.00  0.00    +0.064 N 
ENDBRANCH  24  27
ENDBRANCH  19  21
ENDBRANCH   1  19
TORSDOF 9
ENDMDL
MODEL 6
REMARK VINA RESULT:      -5.4      2.016      2.548
REMARK  Name = 50905018
REMARK  9 active torsions:
REMARK  status: ('A' for Active; 'I' for Inactive)
REMARK    1  A    between atoms: N_1  and  C_3
REMARK    2  A    between atoms: N_1  and  C_11
REMARK    3  A    between atoms: N_1  and  C_19
REMARK    4  A    between atoms: C_3  and  C_5
REMARK    5  A    between atoms: C_5  and  O_6
REMARK    6  A    between atoms: O_6  and  C_7
REMARK    7  A    between atoms: C_11  and  C_13
REMARK    8  A    between atoms: C_19  and  C_21
REMARK    9  A    between atoms: C_24  and  N_27
REMARK                            x       y       z     vdW  Elec       q    Type
REMARK                         _______ _______ _______ _____ _____    ______ ____
ROOT
ATOM      1  N   UNL     1     -35.655  21.428   1.328  0.00  0.00    +0.400 N 
ATOM      2  H   UNL     1     -34.747  21.868   1.482  0.00  0.00    -0.078 HD
ENDROOT
BRANCH   1   3
ATOM      3  C   UNL     1     -36.391  21.459   2.583  0.00  0.00    +0.036 C 
BRANCH   3   5
ATOM      4  O   UNL     1     -35.127  20.762   4.545  0.00  0.00    -0.252 OA
ATOM      5  C   UNL     1     -35.414  21.621   3.721  0.00  0.00    +0.295 C 
BRANCH   5   6
ATOM      6  O   UNL     1     -34.900  22.889   3.682  0.00  0.00    -0.457 OA
BRANCH   6   7
ATOM      7  C   UNL     1     -35.278  23.743   4.761  0.00  0.00    +0.136 C 
ATOM      8  C   UNL     1     -35.395  22.900   6.031  0.00  0.00    +0.044 C 
ATOM      9  C   UNL     1     -34.186  24.799   4.918  0.00  0.00    +0.044 C 
ATOM     10  C   UNL     1     -36.615  24.398   4.418  0.00  0.00    +0.044 C 
ENDBRANCH   6   7
ENDBRANCH   5   6
ENDBRANCH   3   5
ENDBRANCH   1   3
BRANCH   1  11
ATOM     11  C   UNL     1     -35.436  20.048   0.890  0.00  0.00    -0.049 C 
BRANCH  11  13
ATOM     12 CL   UNL     1     -29.585  18.802   0.258  0.00  0.00    -0.082 Cl
ATOM     13  C   UNL     1     -33.971  19.735   0.731  0.00  0.00    -0.043 C 
ATOM     14  C   UNL     1     -33.137  20.628   0.059  0.00  0.00    -0.005 C 
ATOM     15  C   UNL     1     -33.450  18.553   1.256  0.00  0.00    -0.005 C 
ATOM     16  C   UNL     1     -31.780  20.339  -0.088  0.00  0.00    +0.011 C 
ATOM     17  C   UNL     1     -32.093  18.264   1.109  0.00  0.00    +0.011 C 
ATOM     18  C   UNL     1     -31.259  19.156   0.437  0.00  0.00    +0.058 C 
ENDBRANCH  11  13
ENDBRANCH   1  11
BRANCH   1  19
ATOM     19  C   UNL     1     -36.368  22.181   0.292  0.00  0.00    -0.042 C 
BRANCH  19  21
ATOM     20  S   UNL     1     -37.854  24.483   0.769  0.00  0.00    -0.070 S 
ATOM     21  C   UNL     1     -36.365  23.660   0.573  0.00  0.00    -0.012 C 
ATOM     22  C   UNL     1     -35.286  24.506   0.704  0.00  0.00    +0.002 C 
ATOM     23  C   UNL     1     -35.686  25.848   0.967  0.00  0.00    +0.031 C 
ATOM     24  C   UNL     1     -37.056  25.976   1.028  0.00  0.00    +0.172 C 
BRANCH  24  27
ATOM     25  O   UNL     1     -37.285  28.267   1.161  0.00  0.00    -0.126 OA
ATOM     26  O   UNL     1     -39.038  27.016   1.581  0.00  0.00    -0.126 OA
ATOM     27  N   UNL     1     -37.820  27.127   1.266  0.00  0.00    +0.064 N 
ENDBRANCH  24  27
ENDBRANCH  19  21
ENDBRANCH   1  19
TORSDOF 9
ENDMDL
MODEL 7
REMARK VINA RESULT:      -5.4      1.789      2.748
REMARK  Name = 50905018
REMARK  9 active torsions:
REMARK  status: ('A' for Active; 'I' for Inactive)
REMARK    1  A    between atoms: N_1  and  C_3
REMARK    2  A    between atoms: N_1  and  C_11
REMARK    3  A    between atoms: N_1  and  C_19
REMARK    4  A    between atoms: C_3  and  C_5
REMARK    5  A    between atoms: C_5  and  O_6
REMARK    6  A    between atoms: O_6  and  C_7
REMARK    7  A    between atoms: C_11  and  C_13
REMARK    8  A    between atoms: C_19  and  C_21
REMARK    9  A    between atoms: C_24  and  N_27
REMARK                            x       y       z     vdW  Elec       q    Type
REMARK                         _______ _______ _______ _____ _____    ______ ____
ROOT
ATOM      1  N   UNL     1     -36.319  24.568   1.964  0.00  0.00    +0.400 N 
ATOM      2  H   UNL     1     -35.540  24.101   2.431  0.00  0.00    -0.078 HD
ENDROOT
BRANCH   1   3
ATOM      3  C   UNL     1     -37.397  24.722   2.930  0.00  0.00    +0.036 C 
BRANCH   3   5
ATOM      4  O   UNL     1     -36.565  25.295   5.146  0.00  0.00    -0.252 OA
ATOM      5  C   UNL     1     -36.861  24.448   4.313  0.00  0.00    +0.295 C 
BRANCH   5   6
ATOM      6  O   UNL     1     -36.757  23.093   4.484  0.00  0.00    -0.457 OA
BRANCH   6   7
ATOM      7  C   UNL     1     -35.500  22.626   4.971  0.00  0.00    +0.136 C 
ATOM      8  C   UNL     1     -35.640  22.321   6.463  0.00  0.00    +0.044 C 
ATOM      9  C   UNL     1     -35.147  21.359   4.195  0.00  0.00    +0.044 C 
ATOM     10  C   UNL     1     -34.452  23.712   4.734  0.00  0.00    +0.044 C 
ENDBRANCH   6   7
ENDBRANCH   5   6
ENDBRANCH   3   5
ENDBRANCH   1   3
BRANCH   1  11
ATOM     11  C   UNL     1     -36.750  23.742   0.835  0.00  0.00    -0.049 C 
BRANCH  11  13
ATOM     12 CL   UNL     1     -33.899  18.446   0.719  0.00  0.00    -0.082 Cl
ATOM     13  C   UNL     1     -36.036  22.416   0.805  0.00  0.00    -0.043 C 
ATOM     14  C   UNL     1     -34.645  22.375   0.730  0.00  0.00    -0.005 C 
ATOM     15  C   UNL     1     -36.768  21.229   0.852  0.00  0.00    -0.005 C 
ATOM     16  C   UNL     1     -33.984  21.146   0.702  0.00  0.00    +0.011 C 
ATOM     17  C   UNL     1     -36.107  20.001   0.824  0.00  0.00    +0.011 C 
ATOM     18  C   UNL     1     -34.715  19.960   0.750  0.00  0.00    +0.058 C 
ENDBRANCH  11  13
ENDBRANCH   1  11
BRANCH   1  19
ATOM     19  C   UNL     1     -35.860  25.875   1.489  0.00  0.00    -0.042 C 
BRANCH  19  21
ATOM     20  S   UNL     1     -34.424  27.375   3.342  0.00  0.00    -0.070 S 
ATOM     21  C   UNL     1     -34.515  26.240   2.063  0.00  0.00    -0.012 C 
ATOM     22  C   UNL     1     -33.272  25.774   1.695  0.00  0.00    +0.002 C 
ATOM     23  C   UNL     1     -32.231  26.358   2.472  0.00  0.00    +0.031 C 
ATOM     24  C   UNL     1     -32.718  27.247   3.405  0.00  0.00    +0.172 C 
BRANCH  24  27
ATOM     25  O   UNL     1     -30.759  27.864   4.455  0.00  0.00    -0.126 OA
ATOM     26  O   UNL     1     -32.627  28.839   5.070  0.00  0.00    -0.126 OA
ATOM     27  N   UNL     1     -32.009  28.010   4.344  0.00  0.00    +0.064 N 
ENDBRANCH  24  27
ENDBRANCH  19  21
ENDBRANCH   1  19
TORSDOF 9
ENDMDL
MODEL 8
REMARK VINA RESULT:      -5.4      4.979      8.295
REMARK  Name = 50905018
REMARK  9 active torsions:
REMARK  status: ('A' for Active; 'I' for Inactive)
REMARK    1  A    between atoms: N_1  and  C_3
REMARK    2  A    between atoms: N_1  and  C_11
REMARK    3  A    between atoms: N_1  and  C_19
REMARK    4  A    between atoms: C_3  and  C_5
REMARK    5  A    between atoms: C_5  and  O_6
REMARK    6  A    between atoms: O_6  and  C_7
REMARK    7  A    between atoms: C_11  and  C_13
REMARK    8  A    between atoms: C_19  and  C_21
REMARK    9  A    between atoms: C_24  and  N_27
REMARK                            x       y       z     vdW  Elec       q    Type
REMARK                         _______ _______ _______ _____ _____    ______ ____
ROOT
ATOM      1  N   UNL     1     -34.261  27.563   2.702  0.00  0.00    +0.400 N 
ATOM      2  H   UNL     1     -34.772  28.023   3.456  0.00  0.00    -0.078 HD
ENDROOT
BRANCH   1   3
ATOM      3  C   UNL     1     -32.970  27.140   3.224  0.00  0.00    +0.036 C 
BRANCH   3   5
ATOM      4  O   UNL     1     -32.849  26.703   5.617  0.00  0.00    -0.252 OA
ATOM      5  C   UNL     1     -32.891  27.498   4.688  0.00  0.00    +0.295 C 
BRANCH   5   6
ATOM      6  O   UNL     1     -32.874  28.862   4.806  0.00  0.00    -0.457 OA
BRANCH   6   7
ATOM      7  C   UNL     1     -31.657  29.425   5.296  0.00  0.00    +0.136 C 
ATOM      8  C   UNL     1     -30.486  28.627   4.724  0.00  0.00    +0.044 C 
ATOM      9  C   UNL     1     -31.598  30.877   4.826  0.00  0.00    +0.044 C 
ATOM     10  C   UNL     1     -31.669  29.354   6.823  0.00  0.00    +0.044 C 
ENDBRANCH   6   7
ENDBRANCH   5   6
ENDBRANCH   3   5
ENDBRANCH   1   3
BRANCH   1  11
ATOM     11  C   UNL     1     -34.088  28.518   1.605  0.00  0.00    -0.049 C 
BRANCH  11  13
ATOM     12 CL   UNL     1     -38.102  32.990   1.877  0.00  0.00    -0.082 Cl
ATOM     13  C   UNL     1     -35.092  29.638   1.673  0.00  0.00    -0.043 C 
ATOM     14  C   UNL     1     -36.023  29.803   0.648  0.00  0.00    -0.005 C 
ATOM     15  C   UNL     1     -35.092  30.510   2.762  0.00  0.00    -0.005 C 
ATOM     16  C   UNL     1     -36.953  30.841   0.711  0.00  0.00    +0.011 C 
ATOM     17  C   UNL     1     -36.022  31.548   2.825  0.00  0.00    +0.011 C 
ATOM     18  C   UNL     1     -36.952  31.713   1.800  0.00  0.00    +0.058 C 
ENDBRANCH  11  13
ENDBRANCH   1  11
BRANCH   1  19
ATOM     19  C   UNL     1     -35.040  26.407   2.249  0.00  0.00    -0.042 C 
BRANCH  19  21
ATOM     20  S   UNL     1     -34.946  23.854   3.349  0.00  0.00    -0.070 S 
ATOM     21  C   UNL     1     -35.413  25.501   3.392  0.00  0.00    -0.012 C 
ATOM     22  C   UNL     1     -36.117  25.809   4.536  0.00  0.00    +0.002 C 
ATOM     23  C   UNL     1     -36.275  24.678   5.387  0.00  0.00    +0.031 C 
ATOM     24  C   UNL     1     -35.686  23.548   4.862  0.00  0.00    +0.172 C 
BRANCH  24  27
ATOM     25  O   UNL     1     -35.264  21.288   4.677  0.00  0.00    -0.126 OA
ATOM     26  O   UNL     1     -35.946  22.069   6.611  0.00  0.00    -0.126 OA
ATOM     27  N   UNL     1     -35.630  22.256   5.403  0.00  0.00    +0.064 N 
ENDBRANCH  24  27
ENDBRANCH  19  21
ENDBRANCH   1  19
TORSDOF 9
ENDMDL
MODEL 9
REMARK VINA RESULT:      -5.3      2.890      3.895
REMARK  Name = 50905018
REMARK  9 active torsions:
REMARK  status: ('A' for Active; 'I' for Inactive)
REMARK    1  A    between atoms: N_1  and  C_3
REMARK    2  A    between atoms: N_1  and  C_11
REMARK    3  A    between atoms: N_1  and  C_19
REMARK    4  A    between atoms: C_3  and  C_5
REMARK    5  A    between atoms: C_5  and  O_6
REMARK    6  A    between atoms: O_6  and  C_7
REMARK    7  A    between atoms: C_11  and  C_13
REMARK    8  A    between atoms: C_19  and  C_21
REMARK    9  A    between atoms: C_24  and  N_27
REMARK                            x       y       z     vdW  Elec       q    Type
REMARK                         _______ _______ _______ _____ _____    ______ ____
ROOT
ATOM      1  N   UNL     1     -35.820  24.610   2.219  0.00  0.00    +0.400 N 
ATOM      2  H   UNL     1     -35.957  24.097   3.091  0.00  0.00    -0.078 HD
ENDROOT
BRANCH   1   3
ATOM      3  C   UNL     1     -36.723  25.752   2.221  0.00  0.00    +0.036 C 
BRANCH   3   5
ATOM      4  O   UNL     1     -37.797  24.668   4.118  0.00  0.00    -0.252 OA
ATOM      5  C   UNL     1     -37.815  25.513   3.233  0.00  0.00    +0.295 C 
BRANCH   5   6
ATOM      6  O   UNL     1     -38.833  26.399   2.999  0.00  0.00    -0.457 OA
BRANCH   6   7
ATOM      7  C   UNL     1     -40.005  25.848   2.399  0.00  0.00    +0.136 C 
ATOM      8  C   UNL     1     -41.217  26.252   3.240  0.00  0.00    +0.044 C 
ATOM      9  C   UNL     1     -40.116  26.423   0.989  0.00  0.00    +0.044 C 
ATOM     10  C   UNL     1     -39.859  24.328   2.351  0.00  0.00    +0.044 C 
ENDBRANCH   6   7
ENDBRANCH   5   6
ENDBRANCH   3   5
ENDBRANCH   1   3
BRANCH   1  11
ATOM     11  C   UNL     1     -36.119  23.716   1.099  0.00  0.00    -0.049 C 
BRANCH  11  13
ATOM     12 CL   UNL     1     -33.137  18.509   1.535  0.00  0.00    -0.082 Cl
ATOM     13  C   UNL     1     -35.373  22.412   1.208  0.00  0.00    -0.043 C 
ATOM     14  C   UNL     1     -34.374  22.101   0.286  0.00  0.00    -0.005 C 
ATOM     15  C   UNL     1     -35.682  21.515   2.231  0.00  0.00    -0.005 C 
ATOM     16  C   UNL     1     -33.684  20.893   0.386  0.00  0.00    +0.011 C 
ATOM     17  C   UNL     1     -34.991  20.308   2.332  0.00  0.00    +0.011 C 
ATOM     18  C   UNL     1     -33.992  19.997   1.410  0.00  0.00    +0.058 C 
ENDBRANCH  11  13
ENDBRANCH   1  11
BRANCH   1  19
ATOM     19  C   UNL     1     -34.425  25.054   2.154  0.00  0.00    -0.042 C 
BRANCH  19  21
ATOM     20  S   UNL     1     -32.889  27.029   3.369  0.00  0.00    -0.070 S 
ATOM     21  C   UNL     1     -33.989  25.718   3.434  0.00  0.00    -0.012 C 
ATOM     22  C   UNL     1     -34.358  25.415   4.726  0.00  0.00    +0.002 C 
ATOM     23  C   UNL     1     -33.729  26.270   5.676  0.00  0.00    +0.031 C 
ATOM     24  C   UNL     1     -32.903  27.194   5.074  0.00  0.00    +0.172 C 
BRANCH  24  27
ATOM     25  O   UNL     1     -31.053  27.882   6.267  0.00  0.00    -0.126 OA
ATOM     26  O   UNL     1     -32.494  29.399   5.606  0.00  0.00    -0.126 OA
ATOM     27  N   UNL     1     -32.122  28.194   5.671  0.00  0.00    +0.064 N 
ENDBRANCH  24  27
ENDBRANCH  19  21
ENDBRANCH   1  19
TORSDOF 9
ENDMDL
