MODEL 1
REMARK VINA RESULT:      -6.4      0.000      0.000
REMARK  Name = 5495847
REMARK  7 active torsions:
REMARK  status: ('A' for Active; 'I' for Inactive)
REMARK    1  A    between atoms: C_8  and  O_26
REMARK    2  A    between atoms: C_11  and  O_20
REMARK    3  A    between atoms: C_12  and  O_30
REMARK    4  A    between atoms: C_14  and  O_22
REMARK    5  A    between atoms: C_16  and  O_24
REMARK    6  A    between atoms: O_26  and  C_28
REMARK    7  A    between atoms: O_30  and  C_32
REMARK                            x       y       z     vdW  Elec       q    Type
REMARK                         _______ _______ _______ _____ _____    ______ ____
ROOT
ATOM      1  N   UNL     1     -36.844  19.903   2.242  0.00  0.00    +0.388 N 
ATOM      2  C   UNL     1     -35.954  22.676   1.772  0.00  0.00    +0.039 C 
ATOM      3  C   UNL     1     -35.576  21.868   3.021  0.00  0.00    -0.027 C 
ATOM      4  C   UNL     1     -35.530  20.390   2.704  0.00  0.00    -0.035 C 
ATOM      5  C   UNL     1     -35.972  24.210   2.054  0.00  0.00    +0.056 C 
ATOM      6  C   UNL     1     -37.365  22.175   1.348  0.00  0.00    -0.015 C 
ATOM      7  C   UNL     1     -34.978  22.356   0.612  0.00  0.00    +0.013 C 
ATOM      8  C   UNL     1     -36.379  24.598   3.477  0.00  0.00    +0.217 C 
ATOM      9  C   UNL     1     -34.383  20.126   1.714  0.00  0.00    +0.009 C 
ATOM     10  C   UNL     1     -37.417  20.654   1.126  0.00  0.00    -0.081 C 
ATOM     11  C   UNL     1     -35.334  22.421   4.229  0.00  0.00    +0.150 C 
ATOM     12  C   UNL     1     -35.508  23.888   4.511  0.00  0.00    +0.263 C 
ATOM     13  C   UNL     1     -34.254  21.142   0.601  0.00  0.00    -0.025 C 
ATOM     14  C   UNL     1     -34.844  23.222  -0.490  0.00  0.00    +0.164 C 
ATOM     15  C   UNL     1     -33.379  20.856  -0.461  0.00  0.00    -0.001 C 
ATOM     16  C   UNL     1     -33.978  22.920  -1.543  0.00  0.00    +0.172 C 
ATOM     17  C   UNL     1     -33.242  21.742  -1.525  0.00  0.00    +0.040 C 
ATOM     18  H   UNL     1     -37.495  19.954   3.026  0.00  0.00    -0.084 HD
ATOM     19  H   UNL     1     -36.696  18.954   1.903  0.00  0.00    -0.084 HD
ENDROOT
BRANCH  11  20
ATOM     20  O   UNL     1     -34.950  21.710   5.348  0.00  0.00    -0.473 OA
ATOM     21  C   UNL     1     -35.649  22.161   6.490  0.00  0.00    +0.252 C 
ENDBRANCH  11  20
BRANCH  14  22
ATOM     22  O   UNL     1     -35.597  24.345  -0.659  0.00  0.00    -0.503 OA
ATOM     23  H   UNL     1     -35.508  24.856  -1.439  0.00  0.00    +0.292 HD
ENDBRANCH  14  22
BRANCH  16  24
ATOM     24  O   UNL     1     -33.855  23.760  -2.610  0.00  0.00    -0.468 OA
ATOM     25  C   UNL     1     -32.620  24.460  -2.742  0.00  0.00    +0.253 C 
ENDBRANCH  16  24
BRANCH   8  26
ATOM     26  O   UNL     1     -37.745  24.287   3.722  0.00  0.00    -0.448 OA
BRANCH  26  28
ATOM     27  O   UNL     1     -38.491  26.349   2.998  0.00  0.00    -0.250 OA
ATOM     28  C   UNL     1     -38.653  25.151   3.181  0.00  0.00    +0.318 C 
ATOM     29  C   UNL     1     -39.909  24.410   2.831  0.00  0.00    +0.121 C 
ENDBRANCH  26  28
ENDBRANCH   8  26
BRANCH  12  30
ATOM     30  O   UNL     1     -34.210  24.477   4.544  0.00  0.00    -0.441 OA
BRANCH  30  32
ATOM     31  O   UNL     1     -34.649  26.217   6.000  0.00  0.00    -0.250 OA
ATOM     32  C   UNL     1     -34.165  25.774   4.967  0.00  0.00    +0.318 C 
ATOM     33  C   UNL     1     -33.421  26.603   3.966  0.00  0.00    +0.121 C 
ENDBRANCH  30  32
ENDBRANCH  12  30
TORSDOF 7
ENDMDL
MODEL 2
REMARK VINA RESULT:      -6.3      1.473      1.760
REMARK  Name = 5495847
REMARK  7 active torsions:
REMARK  status: ('A' for Active; 'I' for Inactive)
REMARK    1  A    between atoms: C_8  and  O_26
REMARK    2  A    between atoms: C_11  and  O_20
REMARK    3  A    between atoms: C_12  and  O_30
REMARK    4  A    between atoms: C_14  and  O_22
REMARK    5  A    between atoms: C_16  and  O_24
REMARK    6  A    between atoms: O_26  and  C_28
REMARK    7  A    between atoms: O_30  and  C_32
REMARK                            x       y       z     vdW  Elec       q    Type
REMARK                         _______ _______ _______ _____ _____    ______ ____
ROOT
ATOM      1  N   UNL     1     -37.183  20.372   1.534  0.00  0.00    +0.388 N 
ATOM      2  C   UNL     1     -35.318  22.628   1.175  0.00  0.00    +0.039 C 
ATOM      3  C   UNL     1     -35.791  22.135   2.549  0.00  0.00    -0.027 C 
ATOM      4  C   UNL     1     -36.107  20.657   2.503  0.00  0.00    -0.035 C 
ATOM      5  C   UNL     1     -34.944  24.143   1.197  0.00  0.00    +0.056 C 
ATOM      6  C   UNL     1     -36.496  22.363   0.194  0.00  0.00    -0.015 C 
ATOM      7  C   UNL     1     -34.110  21.786   0.691  0.00  0.00    +0.013 C 
ATOM      8  C   UNL     1     -35.758  24.992   2.174  0.00  0.00    +0.217 C 
ATOM      9  C   UNL     1     -34.808  19.875   2.241  0.00  0.00    +0.009 C 
ATOM     10  C   UNL     1     -36.949  20.893   0.189  0.00  0.00    -0.081 C 
ATOM     11  C   UNL     1     -35.912  22.931   3.632  0.00  0.00    +0.150 C 
ATOM     12  C   UNL     1     -35.693  24.418   3.588  0.00  0.00    +0.263 C 
ATOM     13  C   UNL     1     -33.895  20.486   1.201  0.00  0.00    -0.025 C 
ATOM     14  C   UNL     1     -33.246  22.258  -0.316  0.00  0.00    +0.164 C 
ATOM     15  C   UNL     1     -32.804  19.725   0.748  0.00  0.00    -0.001 C 
ATOM     16  C   UNL     1     -32.171  21.487  -0.763  0.00  0.00    +0.172 C 
ATOM     17  C   UNL     1     -31.946  20.225  -0.227  0.00  0.00    +0.040 C 
ATOM     18  H   UNL     1     -38.046  20.785   1.888  0.00  0.00    -0.084 HD
ATOM     19  H   UNL     1     -37.229  19.358   1.445  0.00  0.00    -0.084 HD
ENDROOT
BRANCH  11  20
ATOM     20  O   UNL     1     -36.294  22.491   4.884  0.00  0.00    -0.473 OA
ATOM     21  C   UNL     1     -35.187  21.963   5.587  0.00  0.00    +0.252 C 
ENDBRANCH  11  20
BRANCH  14  22
ATOM     22  O   UNL     1     -33.440  23.430  -0.983  0.00  0.00    -0.503 OA
ATOM     23  H   UNL     1     -33.749  23.420  -1.867  0.00  0.00    +0.292 HD
ENDBRANCH  14  22
BRANCH  16  24
ATOM     24  O   UNL     1     -31.340  21.948  -1.741  0.00  0.00    -0.468 OA
ATOM     25  C   UNL     1     -29.939  21.844  -1.500  0.00  0.00    +0.253 C 
ENDBRANCH  16  24
BRANCH   8  26
ATOM     26  O   UNL     1     -37.118  25.079   1.766  0.00  0.00    -0.448 OA
BRANCH  26  28
ATOM     27  O   UNL     1     -37.430  27.366   1.875  0.00  0.00    -0.250 OA
ATOM     28  C   UNL     1     -37.772  26.220   2.134  0.00  0.00    +0.318 C 
ATOM     29  C   UNL     1     -38.999  25.868   2.920  0.00  0.00    +0.121 C 
ENDBRANCH  26  28
ENDBRANCH   8  26
BRANCH  12  30
ATOM     30  O   UNL     1     -34.416  24.683   4.164  0.00  0.00    -0.441 OA
BRANCH  30  32
ATOM     31  O   UNL     1     -33.410  26.228   5.557  0.00  0.00    -0.250 OA
ATOM     32  C   UNL     1     -34.398  25.642   5.134  0.00  0.00    +0.318 C 
ATOM     33  C   UNL     1     -35.792  25.885   5.625  0.00  0.00    +0.121 C 
ENDBRANCH  30  32
ENDBRANCH  12  30
TORSDOF 7
ENDMDL
MODEL 3
REMARK VINA RESULT:      -6.0      3.003      5.173
REMARK  Name = 5495847
REMARK  7 active torsions:
REMARK  status: ('A' for Active; 'I' for Inactive)
REMARK    1  A    between atoms: C_8  and  O_26
REMARK    2  A    between atoms: C_11  and  O_20
REMARK    3  A    between atoms: C_12  and  O_30
REMARK    4  A    between atoms: C_14  and  O_22
REMARK    5  A    between atoms: C_16  and  O_24
REMARK    6  A    between atoms: O_26  and  C_28
REMARK    7  A    between atoms: O_30  and  C_32
REMARK                            x       y       z     vdW  Elec       q    Type
REMARK                         _______ _______ _______ _____ _____    ______ ____
ROOT
ATOM      1  N   UNL     1     -36.617  26.001   5.199  0.00  0.00    +0.388 N 
ATOM      2  C   UNL     1     -34.916  25.321   2.888  0.00  0.00    +0.039 C 
ATOM      3  C   UNL     1     -34.365  25.884   4.204  0.00  0.00    -0.027 C 
ATOM      4  C   UNL     1     -35.246  25.481   5.366  0.00  0.00    -0.035 C 
ATOM      5  C   UNL     1     -34.008  25.684   1.673  0.00  0.00    +0.056 C 
ATOM      6  C   UNL     1     -36.337  25.933   2.720  0.00  0.00    -0.015 C 
ATOM      7  C   UNL     1     -35.081  23.783   2.992  0.00  0.00    +0.013 C 
ATOM      8  C   UNL     1     -33.285  27.027   1.789  0.00  0.00    +0.217 C 
ATOM      9  C   UNL     1     -35.174  23.955   5.541  0.00  0.00    +0.009 C 
ATOM     10  C   UNL     1     -37.250  25.661   3.927  0.00  0.00    -0.081 C 
ATOM     11  C   UNL     1     -33.252  26.643   4.289  0.00  0.00    +0.150 C 
ATOM     12  C   UNL     1     -32.480  27.108   3.085  0.00  0.00    +0.263 C 
ATOM     13  C   UNL     1     -35.210  23.162   4.254  0.00  0.00    -0.025 C 
ATOM     14  C   UNL     1     -35.182  22.980   1.840  0.00  0.00    +0.164 C 
ATOM     15  C   UNL     1     -35.370  21.768   4.338  0.00  0.00    -0.001 C 
ATOM     16  C   UNL     1     -35.351  21.597   1.937  0.00  0.00    +0.172 C 
ATOM     17  C   UNL     1     -35.438  20.991   3.185  0.00  0.00    +0.040 C 
ATOM     18  H   UNL     1     -36.582  27.018   5.275  0.00  0.00    -0.084 HD
ATOM     19  H   UNL     1     -37.181  25.563   5.927  0.00  0.00    -0.084 HD
ENDROOT
BRANCH  11  20
ATOM     20  O   UNL     1     -32.721  27.119   5.472  0.00  0.00    -0.473 OA
ATOM     21  C   UNL     1     -32.246  28.440   5.310  0.00  0.00    +0.252 C 
ENDBRANCH  11  20
BRANCH  14  22
ATOM     22  O   UNL     1     -35.218  23.483   0.574  0.00  0.00    -0.503 OA
ATOM     23  H   UNL     1     -35.038  22.925  -0.157  0.00  0.00    +0.292 HD
ENDBRANCH  14  22
BRANCH  16  24
ATOM     24  O   UNL     1     -35.452  20.824   0.819  0.00  0.00    -0.468 OA
ATOM     25  C   UNL     1     -34.850  19.533   0.869  0.00  0.00    +0.253 C 
ENDBRANCH  16  24
BRANCH   8  26
ATOM     26  O   UNL     1     -34.206  28.111   1.742  0.00  0.00    -0.448 OA
BRANCH  26  28
ATOM     27  O   UNL     1     -32.748  29.722   0.960  0.00  0.00    -0.250 OA
ATOM     28  C   UNL     1     -33.649  29.356   1.702  0.00  0.00    +0.318 C 
ATOM     29  C   UNL     1     -34.311  30.239   2.717  0.00  0.00    +0.121 C 
ENDBRANCH  26  28
ENDBRANCH   8  26
BRANCH  12  30
ATOM     30  O   UNL     1     -31.310  26.299   2.983  0.00  0.00    -0.441 OA
BRANCH  30  32
ATOM     31  O   UNL     1     -29.985  26.159   1.096  0.00  0.00    -0.250 OA
ATOM     32  C   UNL     1     -30.366  26.740   2.102  0.00  0.00    +0.318 C 
ATOM     33  C   UNL     1     -29.845  28.071   2.551  0.00  0.00    +0.121 C 
ENDBRANCH  30  32
ENDBRANCH  12  30
TORSDOF 7
ENDMDL
MODEL 4
REMARK VINA RESULT:      -5.8      3.248      6.873
REMARK  Name = 5495847
REMARK  7 active torsions:
REMARK  status: ('A' for Active; 'I' for Inactive)
REMARK    1  A    between atoms: C_8  and  O_26
REMARK    2  A    between atoms: C_11  and  O_20
REMARK    3  A    between atoms: C_12  and  O_30
REMARK    4  A    between atoms: C_14  and  O_22
REMARK    5  A    between atoms: C_16  and  O_24
REMARK    6  A    between atoms: O_26  and  C_28
REMARK    7  A    between atoms: O_30  and  C_32
REMARK                            x       y       z     vdW  Elec       q    Type
REMARK                         _______ _______ _______ _____ _____    ______ ____
ROOT
ATOM      1  N   UNL     1     -35.632  22.902  -1.458  0.00  0.00    +0.388 N 
ATOM      2  C   UNL     1     -34.972  21.073   0.759  0.00  0.00    +0.039 C 
ATOM      3  C   UNL     1     -33.957  21.508  -0.306  0.00  0.00    -0.027 C 
ATOM      4  C   UNL     1     -34.296  22.885  -0.832  0.00  0.00    -0.035 C 
ATOM      5  C   UNL     1     -34.629  19.671   1.353  0.00  0.00    +0.056 C 
ATOM      6  C   UNL     1     -36.356  21.049   0.049  0.00  0.00    -0.015 C 
ATOM      7  C   UNL     1     -35.047  22.129   1.890  0.00  0.00    +0.013 C 
ATOM      8  C   UNL     1     -33.950  18.708   0.377  0.00  0.00    +0.217 C 
ATOM      9  C   UNL     1     -34.125  23.909   0.303  0.00  0.00    +0.009 C 
ATOM     10  C   UNL     1     -36.710  22.391  -0.614  0.00  0.00    -0.081 C 
ATOM     11  C   UNL     1     -32.919  20.746  -0.711  0.00  0.00    +0.150 C 
ATOM     12  C   UNL     1     -32.700  19.336  -0.235  0.00  0.00    +0.263 C 
ATOM     13  C   UNL     1     -34.650  23.464   1.649  0.00  0.00    -0.025 C 
ATOM     14  C   UNL     1     -35.577  21.810   3.155  0.00  0.00    +0.164 C 
ATOM     15  C   UNL     1     -34.732  24.417   2.678  0.00  0.00    -0.001 C 
ATOM     16  C   UNL     1     -35.662  22.770   4.165  0.00  0.00    +0.172 C 
ATOM     17  C   UNL     1     -35.233  24.070   3.929  0.00  0.00    +0.040 C 
ATOM     18  H   UNL     1     -35.594  22.332  -2.304  0.00  0.00    -0.084 HD
ATOM     19  H   UNL     1     -35.851  23.880  -1.642  0.00  0.00    -0.084 HD
ENDROOT
BRANCH  11  20
ATOM     20  O   UNL     1     -31.975  21.144  -1.636  0.00  0.00    -0.473 OA
ATOM     21  C   UNL     1     -31.939  20.249  -2.730  0.00  0.00    +0.252 C 
ENDBRANCH  11  20
BRANCH  14  22
ATOM     22  O   UNL     1     -36.124  20.598   3.456  0.00  0.00    -0.503 OA
ATOM     23  H   UNL     1     -36.418  20.421   4.327  0.00  0.00    +0.292 HD
ENDBRANCH  14  22
BRANCH  16  24
ATOM     24  O   UNL     1     -36.180  22.456   5.387  0.00  0.00    -0.468 OA
ATOM     25  C   UNL     1     -35.253  22.112   6.413  0.00  0.00    +0.253 C 
ENDBRANCH  16  24
BRANCH   8  26
ATOM     26  O   UNL     1     -34.839  18.324  -0.665  0.00  0.00    -0.448 OA
BRANCH  26  28
ATOM     27  O   UNL     1     -36.906  17.391  -0.226  0.00  0.00    -0.250 OA
ATOM     28  C   UNL     1     -35.694  17.303  -0.364  0.00  0.00    +0.318 C 
ATOM     29  C   UNL     1     -34.924  16.025  -0.224  0.00  0.00    +0.121 C 
ENDBRANCH  26  28
ENDBRANCH   8  26
BRANCH  12  30
ATOM     30  O   UNL     1     -31.648  19.365   0.727  0.00  0.00    -0.441 OA
BRANCH  30  32
ATOM     31  O   UNL     1     -30.853  17.223   1.074  0.00  0.00    -0.250 OA
ATOM     32  C   UNL     1     -30.734  18.356   0.628  0.00  0.00    +0.318 C 
ATOM     33  C   UNL     1     -29.531  18.840  -0.123  0.00  0.00    +0.121 C 
ENDBRANCH  30  32
ENDBRANCH  12  30
TORSDOF 7
ENDMDL
MODEL 5
REMARK VINA RESULT:      -5.7      2.740      5.695
REMARK  Name = 5495847
REMARK  7 active torsions:
REMARK  status: ('A' for Active; 'I' for Inactive)
REMARK    1  A    between atoms: C_8  and  O_26
REMARK    2  A    between atoms: C_11  and  O_20
REMARK    3  A    between atoms: C_12  and  O_30
REMARK    4  A    between atoms: C_14  and  O_22
REMARK    5  A    between atoms: C_16  and  O_24
REMARK    6  A    between atoms: O_26  and  C_28
REMARK    7  A    between atoms: O_30  and  C_32
REMARK                            x       y       z     vdW  Elec       q    Type
REMARK                         _______ _______ _______ _____ _____    ______ ____
ROOT
ATOM      1  N   UNL     1     -36.160  22.455   1.079  0.00  0.00    +0.388 N 
ATOM      2  C   UNL     1     -36.926  25.057   2.235  0.00  0.00    +0.039 C 
ATOM      3  C   UNL     1     -37.858  23.839   2.208  0.00  0.00    -0.027 C 
ATOM      4  C   UNL     1     -37.057  22.556   2.246  0.00  0.00    -0.035 C 
ATOM      5  C   UNL     1     -37.721  26.399   2.238  0.00  0.00    +0.056 C 
ATOM      6  C   UNL     1     -36.036  24.945   0.964  0.00  0.00    -0.015 C 
ATOM      7  C   UNL     1     -35.989  24.988   3.467  0.00  0.00    +0.013 C 
ATOM      8  C   UNL     1     -39.052  26.360   1.486  0.00  0.00    +0.217 C 
ATOM      9  C   UNL     1     -36.334  22.457   3.600  0.00  0.00    +0.009 C 
ATOM     10  C   UNL     1     -35.283  23.607   0.879  0.00  0.00    -0.081 C 
ATOM     11  C   UNL     1     -39.203  23.923   2.148  0.00  0.00    +0.150 C 
ATOM     12  C   UNL     1     -39.939  25.226   1.997  0.00  0.00    +0.263 C 
ATOM     13  C   UNL     1     -35.716  23.748   4.089  0.00  0.00    -0.025 C 
ATOM     14  C   UNL     1     -35.329  26.134   3.950  0.00  0.00    +0.164 C 
ATOM     15  C   UNL     1     -34.857  23.694   5.200  0.00  0.00    -0.001 C 
ATOM     16  C   UNL     1     -34.470  26.064   5.048  0.00  0.00    +0.172 C 
ATOM     17  C   UNL     1     -34.240  24.846   5.677  0.00  0.00    +0.040 C 
ATOM     18  H   UNL     1     -36.736  22.346   0.244  0.00  0.00    -0.084 HD
ATOM     19  H   UNL     1     -35.550  21.657   1.253  0.00  0.00    -0.084 HD
ENDROOT
BRANCH  11  20
ATOM     20  O   UNL     1     -40.054  22.836   2.168  0.00  0.00    -0.473 OA
ATOM     21  C   UNL     1     -40.396  22.445   0.854  0.00  0.00    +0.252 C 
ENDBRANCH  11  20
BRANCH  14  22
ATOM     22  O   UNL     1     -35.400  27.353   3.343  0.00  0.00    -0.503 OA
ATOM     23  H   UNL     1     -36.171  27.876   3.432  0.00  0.00    +0.292 HD
ENDBRANCH  14  22
BRANCH  16  24
ATOM     24  O   UNL     1     -33.831  27.177   5.509  0.00  0.00    -0.468 OA
ATOM     25  C   UNL     1     -32.939  27.001   6.608  0.00  0.00    +0.253 C 
ENDBRANCH  16  24
BRANCH   8  26
ATOM     26  O   UNL     1     -38.846  26.199   0.087  0.00  0.00    -0.448 OA
BRANCH  26  28
ATOM     27  O   UNL     1     -40.488  25.632  -1.435  0.00  0.00    -0.250 OA
ATOM     28  C   UNL     1     -39.934  26.438  -0.700  0.00  0.00    +0.318 C 
ATOM     29  C   UNL     1     -40.372  27.863  -0.536  0.00  0.00    +0.121 C 
ENDBRANCH  26  28
ENDBRANCH   8  26
BRANCH  12  30
ATOM     30  O   UNL     1     -40.480  25.566   3.271  0.00  0.00    -0.441 OA
BRANCH  30  32
ATOM     31  O   UNL     1     -41.508  27.520   3.955  0.00  0.00    -0.250 OA
ATOM     32  C   UNL     1     -41.461  26.516   3.258  0.00  0.00    +0.318 C 
ATOM     33  C   UNL     1     -42.501  26.148   2.245  0.00  0.00    +0.121 C 
ENDBRANCH  30  32
ENDBRANCH  12  30
TORSDOF 7
ENDMDL
MODEL 6
REMARK VINA RESULT:      -5.7      2.614      5.286
REMARK  Name = 5495847
REMARK  7 active torsions:
REMARK  status: ('A' for Active; 'I' for Inactive)
REMARK    1  A    between atoms: C_8  and  O_26
REMARK    2  A    between atoms: C_11  and  O_20
REMARK    3  A    between atoms: C_12  and  O_30
REMARK    4  A    between atoms: C_14  and  O_22
REMARK    5  A    between atoms: C_16  and  O_24
REMARK    6  A    between atoms: O_26  and  C_28
REMARK    7  A    between atoms: O_30  and  C_32
REMARK                            x       y       z     vdW  Elec       q    Type
REMARK                         _______ _______ _______ _____ _____    ______ ____
ROOT
ATOM      1  N   UNL     1     -34.588  25.492  -0.876  0.00  0.00    +0.388 N 
ATOM      2  C   UNL     1     -35.151  25.945   1.984  0.00  0.00    +0.039 C 
ATOM      3  C   UNL     1     -34.647  24.608   1.425  0.00  0.00    -0.027 C 
ATOM      4  C   UNL     1     -33.806  24.833   0.188  0.00  0.00    -0.035 C 
ATOM      5  C   UNL     1     -35.990  25.753   3.285  0.00  0.00    +0.056 C 
ATOM      6  C   UNL     1     -36.015  26.583   0.858  0.00  0.00    -0.015 C 
ATOM      7  C   UNL     1     -33.958  26.897   2.252  0.00  0.00    +0.013 C 
ATOM      8  C   UNL     1     -36.783  24.447   3.352  0.00  0.00    +0.217 C 
ATOM      9  C   UNL     1     -32.527  25.591   0.583  0.00  0.00    +0.009 C 
ATOM     10  C   UNL     1     -35.252  26.730  -0.469  0.00  0.00    -0.081 C 
ATOM     11  C   UNL     1     -34.936  23.408   1.971  0.00  0.00    +0.150 C 
ATOM     12  C   UNL     1     -35.873  23.240   3.135  0.00  0.00    +0.263 C 
ATOM     13  C   UNL     1     -32.732  26.716   1.572  0.00  0.00    -0.025 C 
ATOM     14  C   UNL     1     -34.085  28.003   3.114  0.00  0.00    +0.164 C 
ATOM     15  C   UNL     1     -31.660  27.591   1.814  0.00  0.00    -0.001 C 
ATOM     16  C   UNL     1     -33.014  28.870   3.337  0.00  0.00    +0.172 C 
ATOM     17  C   UNL     1     -31.800  28.660   2.693  0.00  0.00    +0.040 C 
ATOM     18  H   UNL     1     -35.304  24.839  -1.195  0.00  0.00    -0.084 HD
ATOM     19  H   UNL     1     -33.924  25.749  -1.605  0.00  0.00    -0.084 HD
ENDROOT
BRANCH  11  20
ATOM     20  O   UNL     1     -34.452  22.202   1.503  0.00  0.00    -0.473 OA
ATOM     21  C   UNL     1     -35.496  21.427   0.948  0.00  0.00    +0.252 C 
ENDBRANCH  11  20
BRANCH  14  22
ATOM     22  O   UNL     1     -35.257  28.361   3.709  0.00  0.00    -0.503 OA
ATOM     23  H   UNL     1     -36.000  28.583   3.183  0.00  0.00    +0.292 HD
ENDBRANCH  14  22
BRANCH  16  24
ATOM     24  O   UNL     1     -33.143  29.942   4.170  0.00  0.00    -0.468 OA
ATOM     25  C   UNL     1     -32.054  30.861   4.214  0.00  0.00    +0.253 C 
ENDBRANCH  16  24
BRANCH   8  26
ATOM     26  O   UNL     1     -37.824  24.429   2.382  0.00  0.00    -0.448 OA
BRANCH  26  28
ATOM     27  O   UNL     1     -39.660  24.559   3.778  0.00  0.00    -0.250 OA
ATOM     28  C   UNL     1     -39.025  24.926   2.799  0.00  0.00    +0.318 C 
ATOM     29  C   UNL     1     -39.472  26.013   1.868  0.00  0.00    +0.121 C 
ENDBRANCH  26  28
ENDBRANCH   8  26
BRANCH  12  30
ATOM     30  O   UNL     1     -35.080  23.011   4.297  0.00  0.00    -0.441 OA
BRANCH  30  32
ATOM     31  O   UNL     1     -35.285  20.711   4.396  0.00  0.00    -0.250 OA
ATOM     32  C   UNL     1     -35.287  21.815   4.923  0.00  0.00    +0.318 C 
ATOM     33  C   UNL     1     -35.523  22.049   6.383  0.00  0.00    +0.121 C 
ENDBRANCH  30  32
ENDBRANCH  12  30
TORSDOF 7
ENDMDL
MODEL 7
REMARK VINA RESULT:      -5.7      2.424      5.928
REMARK  Name = 5495847
REMARK  7 active torsions:
REMARK  status: ('A' for Active; 'I' for Inactive)
REMARK    1  A    between atoms: C_8  and  O_26
REMARK    2  A    between atoms: C_11  and  O_20
REMARK    3  A    between atoms: C_12  and  O_30
REMARK    4  A    between atoms: C_14  and  O_22
REMARK    5  A    between atoms: C_16  and  O_24
REMARK    6  A    between atoms: O_26  and  C_28
REMARK    7  A    between atoms: O_30  and  C_32
REMARK                            x       y       z     vdW  Elec       q    Type
REMARK                         _______ _______ _______ _____ _____    ______ ____
ROOT
ATOM      1  N   UNL     1     -37.562  23.435  -0.534  0.00  0.00    +0.388 N 
ATOM      2  C   UNL     1     -37.764  24.407   2.243  0.00  0.00    +0.039 C 
ATOM      3  C   UNL     1     -36.603  24.765   1.306  0.00  0.00    -0.027 C 
ATOM      4  C   UNL     1     -37.063  24.765  -0.135  0.00  0.00    -0.035 C 
ATOM      5  C   UNL     1     -37.333  24.438   3.742  0.00  0.00    +0.056 C 
ATOM      6  C   UNL     1     -38.226  22.980   1.829  0.00  0.00    -0.015 C 
ATOM      7  C   UNL     1     -38.956  25.369   2.009  0.00  0.00    +0.013 C 
ATOM      8  C   UNL     1     -35.877  24.048   4.001  0.00  0.00    +0.217 C 
ATOM      9  C   UNL     1     -38.082  25.901  -0.334  0.00  0.00    +0.009 C 
ATOM     10  C   UNL     1     -38.595  22.882   0.339  0.00  0.00    -0.081 C 
ATOM     11  C   UNL     1     -35.349  25.029   1.730  0.00  0.00    +0.150 C 
ATOM     12  C   UNL     1     -34.923  24.901   3.167  0.00  0.00    +0.263 C 
ATOM     13  C   UNL     1     -39.091  26.056   0.782  0.00  0.00    -0.025 C 
ATOM     14  C   UNL     1     -39.969  25.526   2.975  0.00  0.00    +0.164 C 
ATOM     15  C   UNL     1     -40.181  26.918   0.575  0.00  0.00    -0.001 C 
ATOM     16  C   UNL     1     -41.052  26.378   2.752  0.00  0.00    +0.172 C 
ATOM     17  C   UNL     1     -41.155  27.079   1.556  0.00  0.00    +0.040 C 
ATOM     18  H   UNL     1     -36.773  22.789  -0.541  0.00  0.00    -0.084 HD
ATOM     19  H   UNL     1     -37.994  23.553  -1.450  0.00  0.00    -0.084 HD
ENDROOT
BRANCH  11  20
ATOM     20  O   UNL     1     -34.307  25.395   0.901  0.00  0.00    -0.473 OA
ATOM     21  C   UNL     1     -33.382  24.335   0.763  0.00  0.00    +0.252 C 
ENDBRANCH  11  20
BRANCH  14  22
ATOM     22  O   UNL     1     -40.022  24.807   4.131  0.00  0.00    -0.503 OA
ATOM     23  H   UNL     1     -40.839  24.697   4.577  0.00  0.00    +0.292 HD
ENDBRANCH  14  22
BRANCH  16  24
ATOM     24  O   UNL     1     -42.033  26.523   3.689  0.00  0.00    -0.468 OA
ATOM     25  C   UNL     1     -43.214  27.213   3.287  0.00  0.00    +0.253 C 
ENDBRANCH  16  24
BRANCH   8  26
ATOM     26  O   UNL     1     -35.654  22.674   3.708  0.00  0.00    -0.448 OA
BRANCH  26  28
ATOM     27  O   UNL     1     -35.147  20.680   4.758  0.00  0.00    -0.250 OA
ATOM     28  C   UNL     1     -35.321  21.890   4.775  0.00  0.00    +0.318 C 
ATOM     29  C   UNL     1     -35.194  22.739   6.004  0.00  0.00    +0.121 C 
ENDBRANCH  26  28
ENDBRANCH   8  26
BRANCH  12  30
ATOM     30  O   UNL     1     -34.841  26.216   3.711  0.00  0.00    -0.441 OA
BRANCH  30  32
ATOM     31  O   UNL     1     -32.626  26.843   3.907  0.00  0.00    -0.250 OA
ATOM     32  C   UNL     1     -33.694  26.498   4.394  0.00  0.00    +0.318 C 
ATOM     33  C   UNL     1     -33.928  26.321   5.863  0.00  0.00    +0.121 C 
ENDBRANCH  30  32
ENDBRANCH  12  30
TORSDOF 7
ENDMDL
MODEL 8
REMARK VINA RESULT:      -5.6      1.996      3.081
REMARK  Name = 5495847
REMARK  7 active torsions:
REMARK  status: ('A' for Active; 'I' for Inactive)
REMARK    1  A    between atoms: C_8  and  O_26
REMARK    2  A    between atoms: C_11  and  O_20
REMARK    3  A    between atoms: C_12  and  O_30
REMARK    4  A    between atoms: C_14  and  O_22
REMARK    5  A    between atoms: C_16  and  O_24
REMARK    6  A    between atoms: O_26  and  C_28
REMARK    7  A    between atoms: O_30  and  C_32
REMARK                            x       y       z     vdW  Elec       q    Type
REMARK                         _______ _______ _______ _____ _____    ______ ____
ROOT
ATOM      1  N   UNL     1     -37.620  21.559   0.468  0.00  0.00    +0.388 N 
ATOM      2  C   UNL     1     -34.984  22.831   0.821  0.00  0.00    +0.039 C 
ATOM      3  C   UNL     1     -36.041  22.761   1.930  0.00  0.00    -0.027 C 
ATOM      4  C   UNL     1     -36.909  21.533   1.760  0.00  0.00    -0.035 C 
ATOM      5  C   UNL     1     -34.045  24.066   0.989  0.00  0.00    +0.056 C 
ATOM      6  C   UNL     1     -35.770  22.913  -0.519  0.00  0.00    -0.015 C 
ATOM      7  C   UNL     1     -34.150  21.525   0.793  0.00  0.00    +0.013 C 
ATOM      8  C   UNL     1     -34.704  25.294   1.619  0.00  0.00    +0.217 C 
ATOM      9  C   UNL     1     -36.045  20.278   1.973  0.00  0.00    +0.009 C 
ATOM     10  C   UNL     1     -36.763  21.752  -0.700  0.00  0.00    -0.081 C 
ATOM     11  C   UNL     1     -36.170  23.684   2.906  0.00  0.00    +0.150 C 
ATOM     12  C   UNL     1     -35.352  24.945   2.957  0.00  0.00    +0.263 C 
ATOM     13  C   UNL     1     -34.675  20.330   1.334  0.00  0.00    -0.025 C 
ATOM     14  C   UNL     1     -32.890  21.476   0.166  0.00  0.00    +0.164 C 
ATOM     15  C   UNL     1     -33.916  19.148   1.294  0.00  0.00    -0.001 C 
ATOM     16  C   UNL     1     -32.151  20.292   0.125  0.00  0.00    +0.172 C 
ATOM     17  C   UNL     1     -32.660  19.131   0.695  0.00  0.00    +0.040 C 
ATOM     18  H   UNL     1     -38.298  22.321   0.494  0.00  0.00    -0.084 HD
ATOM     19  H   UNL     1     -38.051  20.641   0.359  0.00  0.00    -0.084 HD
ENDROOT
BRANCH  11  20
ATOM     20  O   UNL     1     -37.089  23.609   3.934  0.00  0.00    -0.473 OA
ATOM     21  C   UNL     1     -38.149  24.520   3.724  0.00  0.00    +0.252 C 
ENDBRANCH  11  20
BRANCH  14  22
ATOM     22  O   UNL     1     -32.348  22.524  -0.515  0.00  0.00    -0.503 OA
ATOM     23  H   UNL     1     -32.901  23.103  -1.001  0.00  0.00    +0.292 HD
ENDBRANCH  14  22
BRANCH  16  24
ATOM     24  O   UNL     1     -30.933  20.248  -0.487  0.00  0.00    -0.468 OA
ATOM     25  C   UNL     1     -30.097  19.134  -0.183  0.00  0.00    +0.253 C 
ENDBRANCH  16  24
BRANCH   8  26
ATOM     26  O   UNL     1     -35.688  25.848   0.752  0.00  0.00    -0.448 OA
BRANCH  26  28
ATOM     27  O   UNL     1     -37.352  27.286   1.457  0.00  0.00    -0.250 OA
ATOM     28  C   UNL     1     -36.195  27.057   1.134  0.00  0.00    +0.318 C 
ATOM     29  C   UNL     1     -35.111  28.092   1.103  0.00  0.00    +0.121 C 
ENDBRANCH  26  28
ENDBRANCH   8  26
BRANCH  12  30
ATOM     30  O   UNL     1     -34.349  24.768   3.954  0.00  0.00    -0.441 OA
BRANCH  30  32
ATOM     31  O   UNL     1     -33.170  26.574   4.784  0.00  0.00    -0.250 OA
ATOM     32  C   UNL     1     -34.146  25.836   4.779  0.00  0.00    +0.318 C 
ATOM     33  C   UNL     1     -35.315  25.985   5.703  0.00  0.00    +0.121 C 
ENDBRANCH  30  32
ENDBRANCH  12  30
TORSDOF 7
ENDMDL
MODEL 9
REMARK VINA RESULT:      -5.6      2.794      5.037
REMARK  Name = 5495847
REMARK  7 active torsions:
REMARK  status: ('A' for Active; 'I' for Inactive)
REMARK    1  A    between atoms: C_8  and  O_26
REMARK    2  A    between atoms: C_11  and  O_20
REMARK    3  A    between atoms: C_12  and  O_30
REMARK    4  A    between atoms: C_14  and  O_22
REMARK    5  A    between atoms: C_16  and  O_24
REMARK    6  A    between atoms: O_26  and  C_28
REMARK    7  A    between atoms: O_30  and  C_32
REMARK                            x       y       z     vdW  Elec       q    Type
REMARK                         _______ _______ _______ _____ _____    ______ ____
ROOT
ATOM      1  N   UNL     1     -35.169  20.576  -0.320  0.00  0.00    +0.388 N 
ATOM      2  C   UNL     1     -37.374  21.827   1.187  0.00  0.00    +0.039 C 
ATOM      3  C   UNL     1     -36.244  22.627   0.525  0.00  0.00    -0.027 C 
ATOM      4  C   UNL     1     -35.717  21.896  -0.690  0.00  0.00    -0.035 C 
ATOM      5  C   UNL     1     -37.969  22.573   2.421  0.00  0.00    +0.056 C 
ATOM      6  C   UNL     1     -36.746  20.468   1.612  0.00  0.00    -0.015 C 
ATOM      7  C   UNL     1     -38.490  21.523   0.156  0.00  0.00    +0.013 C 
ATOM      8  C   UNL     1     -36.972  23.439   3.192  0.00  0.00    +0.217 C 
ATOM      9  C   UNL     1     -36.823  21.836  -1.757  0.00  0.00    +0.009 C 
ATOM     10  C   UNL     1     -36.083  19.725   0.440  0.00  0.00    -0.081 C 
ATOM     11  C   UNL     1     -35.792  23.812   0.985  0.00  0.00    +0.150 C 
ATOM     12  C   UNL     1     -36.278  24.436   2.265  0.00  0.00    +0.263 C 
ATOM     13  C   UNL     1     -38.204  21.523  -1.228  0.00  0.00    -0.025 C 
ATOM     14  C   UNL     1     -39.788  21.166   0.569  0.00  0.00    +0.164 C 
ATOM     15  C   UNL     1     -39.221  21.235  -2.155  0.00  0.00    -0.001 C 
ATOM     16  C   UNL     1     -40.786  20.873  -0.363  0.00  0.00    +0.172 C 
ATOM     17  C   UNL     1     -40.504  20.914  -1.723  0.00  0.00    +0.040 C 
ATOM     18  H   UNL     1     -34.332  20.726   0.244  0.00  0.00    -0.084 HD
ATOM     19  H   UNL     1     -34.982  20.087  -1.195  0.00  0.00    -0.084 HD
ENDROOT
BRANCH  11  20
ATOM     20  O   UNL     1     -34.807  24.562   0.373  0.00  0.00    -0.473 OA
ATOM     21  C   UNL     1     -33.607  24.512   1.118  0.00  0.00    +0.252 C 
ENDBRANCH  11  20
BRANCH  14  22
ATOM     22  O   UNL     1     -40.140  20.990   1.873  0.00  0.00    -0.503 OA
ATOM     23  H   UNL     1     -40.461  21.714   2.373  0.00  0.00    +0.292 HD
ENDBRANCH  14  22
BRANCH  16  24
ATOM     24  O   UNL     1     -42.040  20.524   0.042  0.00  0.00    -0.468 OA
ATOM     25  C   UNL     1     -43.072  20.567  -0.942  0.00  0.00    +0.253 C 
ENDBRANCH  16  24
BRANCH   8  26
ATOM     26  O   UNL     1     -35.989  22.638   3.838  0.00  0.00    -0.448 OA
BRANCH  26  28
ATOM     27  O   UNL     1     -36.046  23.967   5.726  0.00  0.00    -0.250 OA
ATOM     28  C   UNL     1     -35.772  22.920   5.156  0.00  0.00    +0.318 C 
ATOM     29  C   UNL     1     -35.138  21.740   5.827  0.00  0.00    +0.121 C 
ENDBRANCH  26  28
ENDBRANCH   8  26
BRANCH  12  30
ATOM     30  O   UNL     1     -37.176  25.487   1.918  0.00  0.00    -0.441 OA
BRANCH  30  32
ATOM     31  O   UNL     1     -37.120  27.780   1.643  0.00  0.00    -0.250 OA
ATOM     32  C   UNL     1     -36.727  26.750   2.172  0.00  0.00    +0.318 C 
ATOM     33  C   UNL     1     -35.654  26.700   3.217  0.00  0.00    +0.121 C 
ENDBRANCH  30  32
ENDBRANCH  12  30
TORSDOF 7
ENDMDL
