MODEL 1
REMARK VINA RESULT:      -6.7      0.000      0.000
REMARK  Name = 54729461
REMARK  12 active torsions:
REMARK  status: ('A' for Active; 'I' for Inactive)
REMARK    1  A    between atoms: C_3  and  C_9
REMARK    2  A    between atoms: C_4  and  O_19
REMARK    3  A    between atoms: C_6  and  C_22
REMARK    4  A    between atoms: C_9  and  O_15
REMARK    5  A    between atoms: C_14  and  O_17
REMARK    6  A    between atoms: C_22  and  C_23
REMARK    7  A    between atoms: C_24  and  C_25
REMARK    8  A    between atoms: C_26  and  C_28
REMARK    9  A    between atoms: C_27  and  C_29
REMARK   10  A    between atoms: C_29  and  C_30
REMARK   11  A    between atoms: C_29  and  C_32
REMARK   12  A    between atoms: C_32  and  O_33
REMARK                            x       y       z     vdW  Elec       q    Type
REMARK                         _______ _______ _______ _____ _____    ______ ____
ROOT
ATOM      1  O   UNL     1     -32.999  28.304   0.675  0.00  0.00    -0.270 OA
ATOM      2  N   UNL     1     -33.554  26.098   1.001  0.00  0.00    -0.279 N 
ATOM      3  C   UNL     1     -34.678  25.389   2.953  0.00  0.00    +0.050 C 
ATOM      4  C   UNL     1     -34.678  26.769   3.432  0.00  0.00    +0.140 C 
ATOM      5  C   UNL     1     -34.119  25.115   1.766  0.00  0.00    +0.065 C 
ATOM      6  C   UNL     1     -34.129  27.764   2.703  0.00  0.00    +0.126 C 
ATOM      7  C   UNL     1     -33.509  27.428   1.372  0.00  0.00    +0.256 C 
ATOM      8  H   UNL     1     -33.157  25.843   0.137  0.00  0.00    +0.155 HD
ENDROOT
BRANCH   3   9
ATOM      9  C   UNL     1     -35.290  24.289   3.771  0.00  0.00    +0.111 C 
ATOM     10  C   UNL     1     -34.573  24.150   5.125  0.00  0.00    +0.034 C 
ATOM     11  C   UNL     1     -35.254  22.960   2.996  0.00  0.00    +0.034 C 
ATOM     12  C   UNL     1     -35.787  21.792   3.827  0.00  0.00    +0.032 C 
ATOM     13  C   UNL     1     -35.111  22.979   5.947  0.00  0.00    +0.032 C 
ATOM     14  C   UNL     1     -35.058  21.670   5.162  0.00  0.00    +0.111 C 
BRANCH   9  15
ATOM     15  O   UNL     1     -36.660  24.629   4.000  0.00  0.00    -0.383 OA
ATOM     16  H   UNL     1     -37.224  23.879   3.758  0.00  0.00    +0.211 HD
ENDBRANCH   9  15
BRANCH  14  17
ATOM     17  O   UNL     1     -35.669  20.632   5.920  0.00  0.00    -0.384 OA
ATOM     18  H   UNL     1     -36.555  20.452   5.567  0.00  0.00    +0.210 HD
ENDBRANCH  14  17
ENDBRANCH   3   9
BRANCH   4  19
ATOM     19  O   UNL     1     -35.261  27.031   4.660  0.00  0.00    -0.505 OA
ATOM     20  H   UNL     1     -35.146  27.869   5.064  0.00  0.00    +0.292 HD
ENDBRANCH   4  19
BRANCH   6  22
ATOM     21  O   UNL     1     -33.329  29.527   4.040  0.00  0.00    -0.286 OA
ATOM     22  C   UNL     1     -34.145  29.147   3.211  0.00  0.00    +0.203 C 
BRANCH  22  23
ATOM     23  C   UNL     1     -35.211  30.005   2.638  0.00  0.00    +0.042 C 
ATOM     24  C   UNL     1     -34.940  31.275   2.306  0.00  0.00    +0.003 C 
BRANCH  24  25
ATOM     25  C   UNL     1     -35.935  32.164   1.744  0.00  0.00    +0.000 C 
ATOM     26  C   UNL     1     -37.256  31.970   1.889  0.00  0.00    -0.000 C 
BRANCH  26  28
ATOM     27  C   UNL     1     -38.681  33.964   1.952  0.00  0.00    -0.024 C 
ATOM     28  C   UNL     1     -38.248  32.859   1.325  0.00  0.00    -0.005 C 
BRANCH  27  29
ATOM     29  C   UNL     1     -39.709  34.961   1.454  0.00  0.00    +0.051 C 
BRANCH  29  30
ATOM     30  C   UNL     1     -39.205  36.047   0.478  0.00  0.00    +0.007 C 
ATOM     31  C   UNL     1     -37.771  36.484   0.756  0.00  0.00    +0.000 C 
ENDBRANCH  29  30
BRANCH  29  32
ATOM     32  C   UNL     1     -40.419  35.599   2.659  0.00  0.00    +0.141 C 
BRANCH  32  33
ATOM     33  O   UNL     1     -41.581  34.858   3.008  0.00  0.00    -0.382 OA
ATOM     34  H   UNL     1     -42.281  35.469   3.289  0.00  0.00    +0.210 HD
ENDBRANCH  32  33
ENDBRANCH  29  32
ENDBRANCH  27  29
ENDBRANCH  26  28
ENDBRANCH  24  25
ENDBRANCH  22  23
ENDBRANCH   6  22
TORSDOF 12
ENDMDL
MODEL 2
REMARK VINA RESULT:      -6.5      5.862      7.826
REMARK  Name = 54729461
REMARK  12 active torsions:
REMARK  status: ('A' for Active; 'I' for Inactive)
REMARK    1  A    between atoms: C_3  and  C_9
REMARK    2  A    between atoms: C_4  and  O_19
REMARK    3  A    between atoms: C_6  and  C_22
REMARK    4  A    between atoms: C_9  and  O_15
REMARK    5  A    between atoms: C_14  and  O_17
REMARK    6  A    between atoms: C_22  and  C_23
REMARK    7  A    between atoms: C_24  and  C_25
REMARK    8  A    between atoms: C_26  and  C_28
REMARK    9  A    between atoms: C_27  and  C_29
REMARK   10  A    between atoms: C_29  and  C_30
REMARK   11  A    between atoms: C_29  and  C_32
REMARK   12  A    between atoms: C_32  and  O_33
REMARK                            x       y       z     vdW  Elec       q    Type
REMARK                         _______ _______ _______ _____ _____    ______ ____
ROOT
ATOM      1  O   UNL     1     -36.926  25.436   3.559  0.00  0.00    -0.270 OA
ATOM      2  N   UNL     1     -37.296  23.959   1.839  0.00  0.00    -0.279 N 
ATOM      3  C   UNL     1     -36.581  21.712   1.972  0.00  0.00    +0.050 C 
ATOM      4  C   UNL     1     -36.040  21.983   3.300  0.00  0.00    +0.140 C 
ATOM      5  C   UNL     1     -37.182  22.705   1.302  0.00  0.00    +0.065 C 
ATOM      6  C   UNL     1     -36.135  23.208   3.860  0.00  0.00    +0.126 C 
ATOM      7  C   UNL     1     -36.816  24.306   3.086  0.00  0.00    +0.256 C 
ATOM      8  H   UNL     1     -37.747  24.652   1.305  0.00  0.00    +0.155 HD
ENDROOT
BRANCH   3   9
ATOM      9  C   UNL     1     -36.470  20.347   1.357  0.00  0.00    +0.111 C 
ATOM     10  C   UNL     1     -35.029  20.072   0.893  0.00  0.00    +0.034 C 
ATOM     11  C   UNL     1     -37.457  20.203   0.185  0.00  0.00    +0.034 C 
ATOM     12  C   UNL     1     -37.316  18.858  -0.528  0.00  0.00    +0.032 C 
ATOM     13  C   UNL     1     -34.898  18.726   0.179  0.00  0.00    +0.032 C 
ATOM     14  C   UNL     1     -35.881  18.609  -0.984  0.00  0.00    +0.111 C 
BRANCH   9  15
ATOM     15  O   UNL     1     -36.830  19.390   2.357  0.00  0.00    -0.383 OA
ATOM     16  H   UNL     1     -36.079  19.247   2.953  0.00  0.00    +0.211 HD
ENDBRANCH   9  15
BRANCH  14  17
ATOM     17  O   UNL     1     -35.803  17.304  -1.547  0.00  0.00    -0.384 OA
ATOM     18  H   UNL     1     -34.909  16.950  -1.419  0.00  0.00    +0.210 HD
ENDBRANCH  14  17
ENDBRANCH   3   9
BRANCH   4  19
ATOM     19  O   UNL     1     -35.423  20.943   3.976  0.00  0.00    -0.505 OA
ATOM     20  H   UNL     1     -35.339  20.104   3.568  0.00  0.00    +0.292 HD
ENDBRANCH   4  19
BRANCH   6  22
ATOM     21  O   UNL     1     -36.021  22.870   6.186  0.00  0.00    -0.286 OA
ATOM     22  C   UNL     1     -35.580  23.451   5.204  0.00  0.00    +0.203 C 
BRANCH  22  23
ATOM     23  C   UNL     1     -34.472  24.436   5.246  0.00  0.00    +0.042 C 
ATOM     24  C   UNL     1     -34.630  25.592   5.906  0.00  0.00    +0.003 C 
BRANCH  24  25
ATOM     25  C   UNL     1     -33.589  26.595   5.985  0.00  0.00    +0.000 C 
ATOM     26  C   UNL     1     -33.171  27.301   4.922  0.00  0.00    -0.000 C 
BRANCH  26  28
ATOM     27  C   UNL     1     -31.212  28.325   5.983  0.00  0.00    -0.024 C 
ATOM     28  C   UNL     1     -32.129  28.301   5.003  0.00  0.00    -0.005 C 
BRANCH  27  29
ATOM     29  C   UNL     1     -30.081  29.320   6.161  0.00  0.00    +0.051 C 
BRANCH  29  30
ATOM     30  C   UNL     1     -29.648  30.109   4.906  0.00  0.00    +0.007 C 
ATOM     31  C   UNL     1     -30.229  31.518   4.853  0.00  0.00    +0.000 C 
ENDBRANCH  29  30
BRANCH  29  32
ATOM     32  C   UNL     1     -28.878  28.606   6.797  0.00  0.00    +0.141 C 
BRANCH  32  33
ATOM     33  O   UNL     1     -29.137  27.215   6.943  0.00  0.00    -0.382 OA
ATOM     34  H   UNL     1     -29.355  26.834   6.077  0.00  0.00    +0.210 HD
ENDBRANCH  32  33
ENDBRANCH  29  32
ENDBRANCH  27  29
ENDBRANCH  26  28
ENDBRANCH  24  25
ENDBRANCH  22  23
ENDBRANCH   6  22
TORSDOF 12
ENDMDL
MODEL 3
REMARK VINA RESULT:      -6.5      5.514      7.443
REMARK  Name = 54729461
REMARK  12 active torsions:
REMARK  status: ('A' for Active; 'I' for Inactive)
REMARK    1  A    between atoms: C_3  and  C_9
REMARK    2  A    between atoms: C_4  and  O_19
REMARK    3  A    between atoms: C_6  and  C_22
REMARK    4  A    between atoms: C_9  and  O_15
REMARK    5  A    between atoms: C_14  and  O_17
REMARK    6  A    between atoms: C_22  and  C_23
REMARK    7  A    between atoms: C_24  and  C_25
REMARK    8  A    between atoms: C_26  and  C_28
REMARK    9  A    between atoms: C_27  and  C_29
REMARK   10  A    between atoms: C_29  and  C_30
REMARK   11  A    between atoms: C_29  and  C_32
REMARK   12  A    between atoms: C_32  and  O_33
REMARK                            x       y       z     vdW  Elec       q    Type
REMARK                         _______ _______ _______ _____ _____    ______ ____
ROOT
ATOM      1  O   UNL     1     -37.922  25.688   0.688  0.00  0.00    -0.270 OA
ATOM      2  N   UNL     1     -36.965  23.799  -0.205  0.00  0.00    -0.279 N 
ATOM      3  C   UNL     1     -36.460  21.924   1.138  0.00  0.00    +0.050 C 
ATOM      4  C   UNL     1     -36.984  22.638   2.299  0.00  0.00    +0.140 C 
ATOM      5  C   UNL     1     -36.473  22.531  -0.056  0.00  0.00    +0.065 C 
ATOM      6  C   UNL     1     -37.478  23.890   2.188  0.00  0.00    +0.126 C 
ATOM      7  C   UNL     1     -37.480  24.549   0.834  0.00  0.00    +0.256 C 
ATOM      8  H   UNL     1     -36.952  24.199  -1.105  0.00  0.00    +0.155 HD
ENDROOT
BRANCH   3   9
ATOM      9  C   UNL     1     -35.913  20.533   1.272  0.00  0.00    +0.111 C 
ATOM     10  C   UNL     1     -34.416  20.565   1.623  0.00  0.00    +0.034 C 
ATOM     11  C   UNL     1     -36.153  19.734  -0.022  0.00  0.00    +0.034 C 
ATOM     12  C   UNL     1     -35.532  18.338   0.036  0.00  0.00    +0.032 C 
ATOM     13  C   UNL     1     -33.804  19.165   1.677  0.00  0.00    +0.032 C 
ATOM     14  C   UNL     1     -34.047  18.395   0.380  0.00  0.00    +0.111 C 
BRANCH   9  15
ATOM     15  O   UNL     1     -36.627  19.885   2.328  0.00  0.00    -0.383 OA
ATOM     16  H   UNL     1     -36.031  19.282   2.799  0.00  0.00    +0.211 HD
ENDBRANCH   9  15
BRANCH  14  17
ATOM     17  O   UNL     1     -33.560  17.064   0.516  0.00  0.00    -0.384 OA
ATOM     18  H   UNL     1     -34.309  16.449   0.560  0.00  0.00    +0.210 HD
ENDBRANCH  14  17
ENDBRANCH   3   9
BRANCH   4  19
ATOM     19  O   UNL     1     -36.962  21.993   3.524  0.00  0.00    -0.505 OA
ATOM     20  H   UNL     1     -37.594  22.212   4.180  0.00  0.00    +0.292 HD
ENDBRANCH   4  19
BRANCH   6  22
ATOM     21  O   UNL     1     -39.160  24.440   3.738  0.00  0.00    -0.286 OA
ATOM     22  C   UNL     1     -38.000  24.586   3.377  0.00  0.00    +0.203 C 
BRANCH  22  23
ATOM     23  C   UNL     1     -37.016  25.453   4.070  0.00  0.00    +0.042 C 
ATOM     24  C   UNL     1     -36.434  25.032   5.202  0.00  0.00    +0.003 C 
BRANCH  24  25
ATOM     25  C   UNL     1     -35.467  25.829   5.926  0.00  0.00    +0.000 C 
ATOM     26  C   UNL     1     -34.190  25.964   5.535  0.00  0.00    -0.000 C 
BRANCH  26  28
ATOM     27  C   UNL     1     -32.555  27.782   5.708  0.00  0.00    -0.024 C 
ATOM     28  C   UNL     1     -33.225  26.759   6.262  0.00  0.00    -0.005 C 
BRANCH  27  29
ATOM     29  C   UNL     1     -31.529  28.679   6.376  0.00  0.00    +0.051 C 
BRANCH  29  30
ATOM     30  C   UNL     1     -31.751  30.202   6.244  0.00  0.00    +0.007 C 
ATOM     31  C   UNL     1     -32.257  30.619   4.868  0.00  0.00    +0.000 C 
ENDBRANCH  29  30
BRANCH  29  32
ATOM     32  C   UNL     1     -30.125  28.289   5.887  0.00  0.00    +0.141 C 
BRANCH  32  33
ATOM     33  O   UNL     1     -29.504  27.395   6.802  0.00  0.00    -0.382 OA
ATOM     34  H   UNL     1     -29.034  26.703   6.310  0.00  0.00    +0.210 HD
ENDBRANCH  32  33
ENDBRANCH  29  32
ENDBRANCH  27  29
ENDBRANCH  26  28
ENDBRANCH  24  25
ENDBRANCH  22  23
ENDBRANCH   6  22
TORSDOF 12
ENDMDL
MODEL 4
REMARK VINA RESULT:      -6.4      1.488      1.939
REMARK  Name = 54729461
REMARK  12 active torsions:
REMARK  status: ('A' for Active; 'I' for Inactive)
REMARK    1  A    between atoms: C_3  and  C_9
REMARK    2  A    between atoms: C_4  and  O_19
REMARK    3  A    between atoms: C_6  and  C_22
REMARK    4  A    between atoms: C_9  and  O_15
REMARK    5  A    between atoms: C_14  and  O_17
REMARK    6  A    between atoms: C_22  and  C_23
REMARK    7  A    between atoms: C_24  and  C_25
REMARK    8  A    between atoms: C_26  and  C_28
REMARK    9  A    between atoms: C_27  and  C_29
REMARK   10  A    between atoms: C_29  and  C_30
REMARK   11  A    between atoms: C_29  and  C_32
REMARK   12  A    between atoms: C_32  and  O_33
REMARK                            x       y       z     vdW  Elec       q    Type
REMARK                         _______ _______ _______ _____ _____    ______ ____
ROOT
ATOM      1  O   UNL     1     -33.110  29.613   3.047  0.00  0.00    -0.270 OA
ATOM      2  N   UNL     1     -33.176  27.758   4.401  0.00  0.00    -0.279 N 
ATOM      3  C   UNL     1     -34.772  26.049   4.068  0.00  0.00    +0.050 C 
ATOM      4  C   UNL     1     -35.313  26.800   2.938  0.00  0.00    +0.140 C 
ATOM      5  C   UNL     1     -33.734  26.558   4.746  0.00  0.00    +0.065 C 
ATOM      6  C   UNL     1     -34.787  27.988   2.569  0.00  0.00    +0.126 C 
ATOM      7  C   UNL     1     -33.620  28.536   3.349  0.00  0.00    +0.256 C 
ATOM      8  H   UNL     1     -32.415  28.086   4.932  0.00  0.00    +0.155 HD
ENDROOT
BRANCH   3   9
ATOM      9  C   UNL     1     -35.363  24.730   4.470  0.00  0.00    +0.111 C 
ATOM     10  C   UNL     1     -34.858  24.306   5.860  0.00  0.00    +0.034 C 
ATOM     11  C   UNL     1     -35.039  23.652   3.420  0.00  0.00    +0.034 C 
ATOM     12  C   UNL     1     -35.547  22.271   3.834  0.00  0.00    +0.032 C 
ATOM     13  C   UNL     1     -35.369  22.923   6.264  0.00  0.00    +0.032 C 
ATOM     14  C   UNL     1     -35.030  21.869   5.212  0.00  0.00    +0.111 C 
BRANCH   9  15
ATOM     15  O   UNL     1     -36.784  24.887   4.517  0.00  0.00    -0.383 OA
ATOM     16  H   UNL     1     -37.037  25.685   4.027  0.00  0.00    +0.211 HD
ENDBRANCH   9  15
BRANCH  14  17
ATOM     17  O   UNL     1     -35.619  20.624   5.573  0.00  0.00    -0.384 OA
ATOM     18  H   UNL     1     -34.949  19.924   5.527  0.00  0.00    +0.210 HD
ENDBRANCH  14  17
ENDBRANCH   3   9
BRANCH   4  19
ATOM     19  O   UNL     1     -36.385  26.258   2.250  0.00  0.00    -0.505 OA
ATOM     20  H   UNL     1     -37.246  26.297   2.618  0.00  0.00    +0.292 HD
ENDBRANCH   4  19
BRANCH   6  22
ATOM     21  O   UNL     1     -35.053  28.434   0.274  0.00  0.00    -0.286 OA
ATOM     22  C   UNL     1     -35.353  28.723   1.425  0.00  0.00    +0.203 C 
BRANCH  22  23
ATOM     23  C   UNL     1     -36.292  29.812   1.791  0.00  0.00    +0.042 C 
ATOM     24  C   UNL     1     -35.869  31.084   1.802  0.00  0.00    +0.003 C 
BRANCH  24  25
ATOM     25  C   UNL     1     -36.734  32.191   2.151  0.00  0.00    +0.000 C 
ATOM     26  C   UNL     1     -37.848  32.494   1.465  0.00  0.00    -0.000 C 
BRANCH  26  28
ATOM     27  C   UNL     1     -39.911  33.801   1.251  0.00  0.00    -0.024 C 
ATOM     28  C   UNL     1     -38.709  33.603   1.815  0.00  0.00    -0.005 C 
BRANCH  27  29
ATOM     29  C   UNL     1     -40.891  34.921   1.544  0.00  0.00    +0.051 C 
BRANCH  29  30
ATOM     30  C   UNL     1     -41.213  35.882   0.379  0.00  0.00    +0.007 C 
ATOM     31  C   UNL     1     -41.681  35.163  -0.881  0.00  0.00    +0.000 C 
ENDBRANCH  29  30
BRANCH  29  32
ATOM     32  C   UNL     1     -40.409  35.702   2.777  0.00  0.00    +0.141 C 
BRANCH  32  33
ATOM     33  O   UNL     1     -41.418  35.734   3.778  0.00  0.00    -0.382 OA
ATOM     34  H   UNL     1     -41.461  34.872   4.222  0.00  0.00    +0.210 HD
ENDBRANCH  32  33
ENDBRANCH  29  32
ENDBRANCH  27  29
ENDBRANCH  26  28
ENDBRANCH  24  25
ENDBRANCH  22  23
ENDBRANCH   6  22
TORSDOF 12
ENDMDL
MODEL 5
REMARK VINA RESULT:      -6.4      5.322      8.060
REMARK  Name = 54729461
REMARK  12 active torsions:
REMARK  status: ('A' for Active; 'I' for Inactive)
REMARK    1  A    between atoms: C_3  and  C_9
REMARK    2  A    between atoms: C_4  and  O_19
REMARK    3  A    between atoms: C_6  and  C_22
REMARK    4  A    between atoms: C_9  and  O_15
REMARK    5  A    between atoms: C_14  and  O_17
REMARK    6  A    between atoms: C_22  and  C_23
REMARK    7  A    between atoms: C_24  and  C_25
REMARK    8  A    between atoms: C_26  and  C_28
REMARK    9  A    between atoms: C_27  and  C_29
REMARK   10  A    between atoms: C_29  and  C_30
REMARK   11  A    between atoms: C_29  and  C_32
REMARK   12  A    between atoms: C_32  and  O_33
REMARK                            x       y       z     vdW  Elec       q    Type
REMARK                         _______ _______ _______ _____ _____    ______ ____
ROOT
ATOM      1  O   UNL     1     -35.464  21.371   2.957  0.00  0.00    -0.270 OA
ATOM      2  N   UNL     1     -37.031  22.419   1.644  0.00  0.00    -0.279 N 
ATOM      3  C   UNL     1     -38.152  24.362   2.381  0.00  0.00    +0.050 C 
ATOM      4  C   UNL     1     -37.400  24.299   3.631  0.00  0.00    +0.140 C 
ATOM      5  C   UNL     1     -37.937  23.425   1.447  0.00  0.00    +0.065 C 
ATOM      6  C   UNL     1     -36.499  23.319   3.858  0.00  0.00    +0.126 C 
ATOM      7  C   UNL     1     -36.276  22.280   2.792  0.00  0.00    +0.256 C 
ATOM      8  H   UNL     1     -36.911  21.756   0.926  0.00  0.00    +0.155 HD
ENDROOT
BRANCH   3   9
ATOM      9  C   UNL     1     -39.152  25.454   2.138  0.00  0.00    +0.111 C 
ATOM     10  C   UNL     1     -40.394  25.266   3.025  0.00  0.00    +0.034 C 
ATOM     11  C   UNL     1     -39.547  25.501   0.651  0.00  0.00    +0.034 C 
ATOM     12  C   UNL     1     -40.631  26.541   0.372  0.00  0.00    +0.032 C 
ATOM     13  C   UNL     1     -41.474  26.309   2.738  0.00  0.00    +0.032 C 
ATOM     14  C   UNL     1     -41.855  26.332   1.259  0.00  0.00    +0.111 C 
BRANCH   9  15
ATOM     15  O   UNL     1     -38.527  26.697   2.466  0.00  0.00    -0.383 OA
ATOM     16  H   UNL     1     -38.568  26.837   3.425  0.00  0.00    +0.211 HD
ENDBRANCH   9  15
BRANCH  14  17
ATOM     17  O   UNL     1     -42.777  27.389   1.018  0.00  0.00    -0.384 OA
ATOM     18  H   UNL     1     -42.291  28.202   0.811  0.00  0.00    +0.210 HD
ENDBRANCH  14  17
ENDBRANCH   3   9
BRANCH   4  19
ATOM     19  O   UNL     1     -37.637  25.276   4.583  0.00  0.00    -0.505 OA
ATOM     20  H   UNL     1     -37.543  26.181   4.359  0.00  0.00    +0.292 HD
ENDBRANCH   4  19
BRANCH   6  22
ATOM     21  O   UNL     1     -36.074  22.514   6.028  0.00  0.00    -0.286 OA
ATOM     22  C   UNL     1     -35.754  23.281   5.130  0.00  0.00    +0.203 C 
BRANCH  22  23
ATOM     23  C   UNL     1     -34.617  24.231   5.210  0.00  0.00    +0.042 C 
ATOM     24  C   UNL     1     -34.761  25.392   5.863  0.00  0.00    +0.003 C 
BRANCH  24  25
ATOM     25  C   UNL     1     -33.692  26.361   5.977  0.00  0.00    +0.000 C 
ATOM     26  C   UNL     1     -33.273  27.113   4.947  0.00  0.00    -0.000 C 
BRANCH  26  28
ATOM     27  C   UNL     1     -31.716  28.494   6.244  0.00  0.00    -0.024 C 
ATOM     28  C   UNL     1     -32.203  28.080   5.063  0.00  0.00    -0.005 C 
BRANCH  27  29
ATOM     29  C   UNL     1     -30.601  29.494   6.479  0.00  0.00    +0.051 C 
BRANCH  29  30
ATOM     30  C   UNL     1     -30.525  30.690   5.505  0.00  0.00    +0.007 C 
ATOM     31  C   UNL     1     -29.119  30.944   4.974  0.00  0.00    +0.000 C 
ENDBRANCH  29  30
BRANCH  29  32
ATOM     32  C   UNL     1     -29.258  28.748   6.531  0.00  0.00    +0.141 C 
BRANCH  32  33
ATOM     33  O   UNL     1     -29.448  27.395   6.923  0.00  0.00    -0.382 OA
ATOM     34  H   UNL     1     -30.390  27.170   6.860  0.00  0.00    +0.210 HD
ENDBRANCH  32  33
ENDBRANCH  29  32
ENDBRANCH  27  29
ENDBRANCH  26  28
ENDBRANCH  24  25
ENDBRANCH  22  23
ENDBRANCH   6  22
TORSDOF 12
ENDMDL
MODEL 6
REMARK VINA RESULT:      -6.3      5.070     11.180
REMARK  Name = 54729461
REMARK  12 active torsions:
REMARK  status: ('A' for Active; 'I' for Inactive)
REMARK    1  A    between atoms: C_3  and  C_9
REMARK    2  A    between atoms: C_4  and  O_19
REMARK    3  A    between atoms: C_6  and  C_22
REMARK    4  A    between atoms: C_9  and  O_15
REMARK    5  A    between atoms: C_14  and  O_17
REMARK    6  A    between atoms: C_22  and  C_23
REMARK    7  A    between atoms: C_24  and  C_25
REMARK    8  A    between atoms: C_26  and  C_28
REMARK    9  A    between atoms: C_27  and  C_29
REMARK   10  A    between atoms: C_29  and  C_30
REMARK   11  A    between atoms: C_29  and  C_32
REMARK   12  A    between atoms: C_32  and  O_33
REMARK                            x       y       z     vdW  Elec       q    Type
REMARK                         _______ _______ _______ _____ _____    ______ ____
ROOT
ATOM      1  O   UNL     1     -38.043  24.316   3.751  0.00  0.00    -0.270 OA
ATOM      2  N   UNL     1     -36.854  26.263   3.479  0.00  0.00    -0.279 N 
ATOM      3  C   UNL     1     -34.573  26.405   4.075  0.00  0.00    +0.050 C 
ATOM      4  C   UNL     1     -34.617  25.008   4.499  0.00  0.00    +0.140 C 
ATOM      5  C   UNL     1     -35.687  26.968   3.587  0.00  0.00    +0.065 C 
ATOM      6  C   UNL     1     -35.752  24.282   4.407  0.00  0.00    +0.126 C 
ATOM      7  C   UNL     1     -36.989  24.941   3.853  0.00  0.00    +0.256 C 
ATOM      8  H   UNL     1     -37.643  26.725   3.113  0.00  0.00    +0.155 HD
ENDROOT
BRANCH   3   9
ATOM      9  C   UNL     1     -33.308  27.203   4.182  0.00  0.00    +0.111 C 
ATOM     10  C   UNL     1     -32.924  27.426   5.655  0.00  0.00    +0.034 C 
ATOM     11  C   UNL     1     -33.456  28.548   3.448  0.00  0.00    +0.034 C 
ATOM     12  C   UNL     1     -32.220  29.433   3.607  0.00  0.00    +0.032 C 
ATOM     13  C   UNL     1     -31.689  28.314   5.804  0.00  0.00    +0.032 C 
ATOM     14  C   UNL     1     -31.862  29.645   5.075  0.00  0.00    +0.111 C 
BRANCH   9  15
ATOM     15  O   UNL     1     -32.270  26.461   3.536  0.00  0.00    -0.383 OA
ATOM     16  H   UNL     1     -31.846  27.016   2.863  0.00  0.00    +0.211 HD
ENDBRANCH   9  15
BRANCH  14  17
ATOM     17  O   UNL     1     -30.651  30.390   5.145  0.00  0.00    -0.384 OA
ATOM     18  H   UNL     1     -30.693  31.006   5.894  0.00  0.00    +0.210 HD
ENDBRANCH  14  17
ENDBRANCH   3   9
BRANCH   4  19
ATOM     19  O   UNL     1     -33.457  24.444   5.001  0.00  0.00    -0.505 OA
ATOM     20  H   UNL     1     -33.125  23.649   4.632  0.00  0.00    +0.292 HD
ENDBRANCH   4  19
BRANCH   6  22
ATOM     21  O   UNL     1     -36.237  22.550   5.923  0.00  0.00    -0.286 OA
ATOM     22  C   UNL     1     -35.766  22.874   4.842  0.00  0.00    +0.203 C 
BRANCH  22  23
ATOM     23  C   UNL     1     -35.174  21.921   3.872  0.00  0.00    +0.042 C 
ATOM     24  C   UNL     1     -35.857  21.575   2.772  0.00  0.00    +0.003 C 
BRANCH  24  25
ATOM     25  C   UNL     1     -35.337  20.649   1.788  0.00  0.00    +0.000 C 
ATOM     26  C   UNL     1     -34.262  19.876   2.007  0.00  0.00    -0.000 C 
BRANCH  26  28
ATOM     27  C   UNL     1     -32.568  18.319   1.161  0.00  0.00    -0.024 C 
ATOM     28  C   UNL     1     -33.742  18.954   1.022  0.00  0.00    -0.005 C 
BRANCH  27  29
ATOM     29  C   UNL     1     -31.933  17.335   0.197  0.00  0.00    +0.051 C 
BRANCH  29  30
ATOM     30  C   UNL     1     -31.441  17.905  -1.152  0.00  0.00    +0.007 C 
ATOM     31  C   UNL     1     -30.738  19.251  -1.014  0.00  0.00    +0.000 C 
ENDBRANCH  29  30
BRANCH  29  32
ATOM     32  C   UNL     1     -32.897  16.158  -0.028  0.00  0.00    +0.141 C 
BRANCH  32  33
ATOM     33  O   UNL     1     -32.275  14.927   0.315  0.00  0.00    -0.382 OA
ATOM     34  H   UNL     1     -32.073  14.430  -0.494  0.00  0.00    +0.210 HD
ENDBRANCH  32  33
ENDBRANCH  29  32
ENDBRANCH  27  29
ENDBRANCH  26  28
ENDBRANCH  24  25
ENDBRANCH  22  23
ENDBRANCH   6  22
TORSDOF 12
ENDMDL
MODEL 7
REMARK VINA RESULT:      -6.2      5.077      6.637
REMARK  Name = 54729461
REMARK  12 active torsions:
REMARK  status: ('A' for Active; 'I' for Inactive)
REMARK    1  A    between atoms: C_3  and  C_9
REMARK    2  A    between atoms: C_4  and  O_19
REMARK    3  A    between atoms: C_6  and  C_22
REMARK    4  A    between atoms: C_9  and  O_15
REMARK    5  A    between atoms: C_14  and  O_17
REMARK    6  A    between atoms: C_22  and  C_23
REMARK    7  A    between atoms: C_24  and  C_25
REMARK    8  A    between atoms: C_26  and  C_28
REMARK    9  A    between atoms: C_27  and  C_29
REMARK   10  A    between atoms: C_29  and  C_30
REMARK   11  A    between atoms: C_29  and  C_32
REMARK   12  A    between atoms: C_32  and  O_33
REMARK                            x       y       z     vdW  Elec       q    Type
REMARK                         _______ _______ _______ _____ _____    ______ ____
ROOT
ATOM      1  O   UNL     1     -39.453  22.150   2.098  0.00  0.00    -0.270 OA
ATOM      2  N   UNL     1     -37.550  22.596   3.305  0.00  0.00    -0.279 N 
ATOM      3  C   UNL     1     -36.878  24.812   3.768  0.00  0.00    +0.050 C 
ATOM      4  C   UNL     1     -38.046  25.298   3.038  0.00  0.00    +0.140 C 
ATOM      5  C   UNL     1     -36.682  23.490   3.869  0.00  0.00    +0.065 C 
ATOM      6  C   UNL     1     -38.924  24.444   2.470  0.00  0.00    +0.126 C 
ATOM      7  C   UNL     1     -38.679  22.963   2.599  0.00  0.00    +0.256 C 
ATOM      8  H   UNL     1     -37.359  21.636   3.409  0.00  0.00    +0.155 HD
ENDROOT
BRANCH   3   9
ATOM      9  C   UNL     1     -35.908  25.769   4.397  0.00  0.00    +0.111 C 
ATOM     10  C   UNL     1     -35.127  26.542   3.320  0.00  0.00    +0.034 C 
ATOM     11  C   UNL     1     -34.946  25.021   5.336  0.00  0.00    +0.034 C 
ATOM     12  C   UNL     1     -33.883  25.944   5.930  0.00  0.00    +0.032 C 
ATOM     13  C   UNL     1     -34.065  27.461   3.924  0.00  0.00    +0.032 C 
ATOM     14  C   UNL     1     -33.118  26.696   4.845  0.00  0.00    +0.111 C 
BRANCH   9  15
ATOM     15  O   UNL     1     -36.661  26.696   5.184  0.00  0.00    -0.383 OA
ATOM     16  H   UNL     1     -37.224  26.210   5.806  0.00  0.00    +0.211 HD
ENDBRANCH   9  15
BRANCH  14  17
ATOM     17  O   UNL     1     -32.219  27.606   5.470  0.00  0.00    -0.384 OA
ATOM     18  H   UNL     1     -32.719  28.226   6.022  0.00  0.00    +0.210 HD
ENDBRANCH  14  17
ENDBRANCH   3   9
BRANCH   4  19
ATOM     19  O   UNL     1     -38.232  26.667   2.946  0.00  0.00    -0.505 OA
ATOM     20  H   UNL     1     -38.363  27.176   3.722  0.00  0.00    +0.292 HD
ENDBRANCH   4  19
BRANCH   6  22
ATOM     21  O   UNL     1     -40.083  25.074   0.521  0.00  0.00    -0.286 OA
ATOM     22  C   UNL     1     -40.094  24.964   1.740  0.00  0.00    +0.203 C 
BRANCH  22  23
ATOM     23  C   UNL     1     -41.247  25.327   2.599  0.00  0.00    +0.042 C 
ATOM     24  C   UNL     1     -41.583  26.614   2.758  0.00  0.00    +0.003 C 
BRANCH  24  25
ATOM     25  C   UNL     1     -42.697  27.035   3.582  0.00  0.00    +0.000 C 
ATOM     26  C   UNL     1     -42.882  28.307   3.968  0.00  0.00    -0.000 C 
BRANCH  26  28
ATOM     27  C   UNL     1     -44.018  29.896   5.450  0.00  0.00    -0.024 C 
ATOM     28  C   UNL     1     -43.993  28.725   4.793  0.00  0.00    -0.005 C 
BRANCH  27  29
ATOM     29  C   UNL     1     -45.128  30.431   6.335  0.00  0.00    +0.051 C 
BRANCH  29  30
ATOM     30  C   UNL     1     -45.852  31.704   5.845  0.00  0.00    +0.007 C 
ATOM     31  C   UNL     1     -44.968  32.606   4.990  0.00  0.00    +0.000 C 
ENDBRANCH  29  30
BRANCH  29  32
ATOM     32  C   UNL     1     -44.585  30.628   7.760  0.00  0.00    +0.141 C 
BRANCH  32  33
ATOM     33  O   UNL     1     -43.217  30.247   7.834  0.00  0.00    -0.382 OA
ATOM     34  H   UNL     1     -43.005  29.981   8.743  0.00  0.00    +0.210 HD
ENDBRANCH  32  33
ENDBRANCH  29  32
ENDBRANCH  27  29
ENDBRANCH  26  28
ENDBRANCH  24  25
ENDBRANCH  22  23
ENDBRANCH   6  22
TORSDOF 12
ENDMDL
MODEL 8
REMARK VINA RESULT:      -6.1      5.432      6.398
REMARK  Name = 54729461
REMARK  12 active torsions:
REMARK  status: ('A' for Active; 'I' for Inactive)
REMARK    1  A    between atoms: C_3  and  C_9
REMARK    2  A    between atoms: C_4  and  O_19
REMARK    3  A    between atoms: C_6  and  C_22
REMARK    4  A    between atoms: C_9  and  O_15
REMARK    5  A    between atoms: C_14  and  O_17
REMARK    6  A    between atoms: C_22  and  C_23
REMARK    7  A    between atoms: C_24  and  C_25
REMARK    8  A    between atoms: C_26  and  C_28
REMARK    9  A    between atoms: C_27  and  C_29
REMARK   10  A    between atoms: C_29  and  C_30
REMARK   11  A    between atoms: C_29  and  C_32
REMARK   12  A    between atoms: C_32  and  O_33
REMARK                            x       y       z     vdW  Elec       q    Type
REMARK                         _______ _______ _______ _____ _____    ______ ____
ROOT
ATOM      1  O   UNL     1     -39.481  27.641   0.634  0.00  0.00    -0.270 OA
ATOM      2  N   UNL     1     -37.353  26.995   1.212  0.00  0.00    -0.279 N 
ATOM      3  C   UNL     1     -36.974  25.192   2.689  0.00  0.00    +0.050 C 
ATOM      4  C   UNL     1     -38.418  25.009   2.807  0.00  0.00    +0.140 C 
ATOM      5  C   UNL     1     -36.507  26.171   1.902  0.00  0.00    +0.065 C 
ATOM      6  C   UNL     1     -39.282  25.804   2.139  0.00  0.00    +0.126 C 
ATOM      7  C   UNL     1     -38.730  26.895   1.261  0.00  0.00    +0.256 C 
ATOM      8  H   UNL     1     -36.958  27.697   0.647  0.00  0.00    +0.155 HD
ENDROOT
BRANCH   3   9
ATOM      9  C   UNL     1     -36.021  24.304   3.435  0.00  0.00    +0.111 C 
ATOM     10  C   UNL     1     -36.308  22.822   3.139  0.00  0.00    +0.034 C 
ATOM     11  C   UNL     1     -36.098  24.583   4.947  0.00  0.00    +0.034 C 
ATOM     12  C   UNL     1     -35.208  23.638   5.755  0.00  0.00    +0.032 C 
ATOM     13  C   UNL     1     -35.415  21.886   3.953  0.00  0.00    +0.032 C 
ATOM     14  C   UNL     1     -35.514  22.175   5.450  0.00  0.00    +0.111 C 
BRANCH   9  15
ATOM     15  O   UNL     1     -34.698  24.621   2.996  0.00  0.00    -0.383 OA
ATOM     16  H   UNL     1     -34.688  25.513   2.615  0.00  0.00    +0.211 HD
ENDBRANCH   9  15
BRANCH  14  17
ATOM     17  O   UNL     1     -34.586  21.360   6.157  0.00  0.00    -0.384 OA
ATOM     18  H   UNL     1     -33.731  21.815   6.212  0.00  0.00    +0.210 HD
ENDBRANCH  14  17
ENDBRANCH   3   9
BRANCH   4  19
ATOM     19  O   UNL     1     -38.880  23.992   3.624  0.00  0.00    -0.505 OA
ATOM     20  H   UNL     1     -39.802  23.850   3.720  0.00  0.00    +0.292 HD
ENDBRANCH   4  19
BRANCH   6  22
ATOM     21  O   UNL     1     -41.327  24.786   1.575  0.00  0.00    -0.286 OA
ATOM     22  C   UNL     1     -40.734  25.595   2.276  0.00  0.00    +0.203 C 
BRANCH  22  23
ATOM     23  C   UNL     1     -41.385  26.433   3.313  0.00  0.00    +0.042 C 
ATOM     24  C   UNL     1     -42.604  26.944   3.092  0.00  0.00    +0.003 C 
BRANCH  24  25
ATOM     25  C   UNL     1     -43.292  27.769   4.061  0.00  0.00    +0.000 C 
ATOM     26  C   UNL     1     -44.473  27.431   4.604  0.00  0.00    -0.000 C 
BRANCH  26  28
ATOM     27  C   UNL     1     -44.766  29.505   5.879  0.00  0.00    -0.024 C 
ATOM     28  C   UNL     1     -45.160  28.259   5.571  0.00  0.00    -0.005 C 
BRANCH  27  29
ATOM     29  C   UNL     1     -45.411  30.455   6.869  0.00  0.00    +0.051 C 
BRANCH  29  30
ATOM     30  C   UNL     1     -45.476  31.943   6.459  0.00  0.00    +0.007 C 
ATOM     31  C   UNL     1     -44.443  32.321   5.403  0.00  0.00    +0.000 C 
ENDBRANCH  29  30
BRANCH  29  32
ATOM     32  C   UNL     1     -44.729  30.296   8.237  0.00  0.00    +0.141 C 
BRANCH  32  33
ATOM     33  O   UNL     1     -43.314  30.351   8.104  0.00  0.00    -0.382 OA
ATOM     34  H   UNL     1     -43.079  30.366   7.163  0.00  0.00    +0.210 HD
ENDBRANCH  32  33
ENDBRANCH  29  32
ENDBRANCH  27  29
ENDBRANCH  26  28
ENDBRANCH  24  25
ENDBRANCH  22  23
ENDBRANCH   6  22
TORSDOF 12
ENDMDL
MODEL 9
REMARK VINA RESULT:      -6.0      4.984     10.536
REMARK  Name = 54729461
REMARK  12 active torsions:
REMARK  status: ('A' for Active; 'I' for Inactive)
REMARK    1  A    between atoms: C_3  and  C_9
REMARK    2  A    between atoms: C_4  and  O_19
REMARK    3  A    between atoms: C_6  and  C_22
REMARK    4  A    between atoms: C_9  and  O_15
REMARK    5  A    between atoms: C_14  and  O_17
REMARK    6  A    between atoms: C_22  and  C_23
REMARK    7  A    between atoms: C_24  and  C_25
REMARK    8  A    between atoms: C_26  and  C_28
REMARK    9  A    between atoms: C_27  and  C_29
REMARK   10  A    between atoms: C_29  and  C_30
REMARK   11  A    between atoms: C_29  and  C_32
REMARK   12  A    between atoms: C_32  and  O_33
REMARK                            x       y       z     vdW  Elec       q    Type
REMARK                         _______ _______ _______ _____ _____    ______ ____
ROOT
ATOM      1  O   UNL     1     -36.348  26.578   2.489  0.00  0.00    -0.270 OA
ATOM      2  N   UNL     1     -34.568  28.006   2.220  0.00  0.00    -0.279 N 
ATOM      3  C   UNL     1     -32.842  28.135   3.826  0.00  0.00    +0.050 C 
ATOM      4  C   UNL     1     -33.530  27.121   4.620  0.00  0.00    +0.140 C 
ATOM      5  C   UNL     1     -33.387  28.532   2.668  0.00  0.00    +0.065 C 
ATOM      6  C   UNL     1     -34.697  26.581   4.208  0.00  0.00    +0.126 C 
ATOM      7  C   UNL     1     -35.288  27.044   2.902  0.00  0.00    +0.256 C 
ATOM      8  H   UNL     1     -34.925  28.332   1.362  0.00  0.00    +0.155 HD
ENDROOT
BRANCH   3   9
ATOM      9  C   UNL     1     -31.545  28.730   4.292  0.00  0.00    +0.111 C 
ATOM     10  C   UNL     1     -31.769  29.642   5.511  0.00  0.00    +0.034 C 
ATOM     11  C   UNL     1     -30.867  29.505   3.149  0.00  0.00    +0.034 C 
ATOM     12  C   UNL     1     -29.585  30.203   3.604  0.00  0.00    +0.032 C 
ATOM     13  C   UNL     1     -30.482  30.337   5.957  0.00  0.00    +0.032 C 
ATOM     14  C   UNL     1     -29.832  31.106   4.809  0.00  0.00    +0.111 C 
BRANCH   9  15
ATOM     15  O   UNL     1     -30.683  27.653   4.667  0.00  0.00    -0.383 OA
ATOM     16  H   UNL     1     -31.116  27.112   5.346  0.00  0.00    +0.211 HD
ENDBRANCH   9  15
BRANCH  14  17
ATOM     17  O   UNL     1     -28.585  31.642   5.238  0.00  0.00    -0.384 OA
ATOM     18  H   UNL     1     -28.089  31.964   4.469  0.00  0.00    +0.210 HD
ENDBRANCH  14  17
ENDBRANCH   3   9
BRANCH   4  19
ATOM     19  O   UNL     1     -32.951  26.725   5.813  0.00  0.00    -0.505 OA
ATOM     20  H   UNL     1     -33.487  26.407   6.512  0.00  0.00    +0.292 HD
ENDBRANCH   4  19
BRANCH   6  22
ATOM     21  O   UNL     1     -36.175  25.872   5.896  0.00  0.00    -0.286 OA
ATOM     22  C   UNL     1     -35.369  25.559   5.030  0.00  0.00    +0.203 C 
BRANCH  22  23
ATOM     23  C   UNL     1     -34.987  24.161   4.714  0.00  0.00    +0.042 C 
ATOM     24  C   UNL     1     -35.890  23.323   4.188  0.00  0.00    +0.003 C 
BRANCH  24  25
ATOM     25  C   UNL     1     -35.582  21.948   3.858  0.00  0.00    +0.000 C 
ATOM     26  C   UNL     1     -35.289  21.542   2.612  0.00  0.00    -0.000 C 
BRANCH  26  28
ATOM     27  C   UNL     1     -33.946  19.812   1.509  0.00  0.00    -0.024 C 
ATOM     28  C   UNL     1     -34.983  20.167   2.285  0.00  0.00    -0.005 C 
BRANCH  27  29
ATOM     29  C   UNL     1     -33.535  18.409   1.107  0.00  0.00    +0.051 C 
BRANCH  29  30
ATOM     30  C   UNL     1     -32.019  18.114   1.073  0.00  0.00    +0.007 C 
ATOM     31  C   UNL     1     -31.223  19.153   0.291  0.00  0.00    +0.000 C 
ENDBRANCH  29  30
BRANCH  29  32
ATOM     32  C   UNL     1     -34.188  18.058  -0.239  0.00  0.00    +0.141 C 
BRANCH  32  33
ATOM     33  O   UNL     1     -35.475  17.487  -0.040  0.00  0.00    -0.382 OA
ATOM     34  H   UNL     1     -36.017  18.089   0.494  0.00  0.00    +0.210 HD
ENDBRANCH  32  33
ENDBRANCH  29  32
ENDBRANCH  27  29
ENDBRANCH  26  28
ENDBRANCH  24  25
ENDBRANCH  22  23
ENDBRANCH   6  22
TORSDOF 12
ENDMDL
