MODEL 1
REMARK VINA RESULT:      -7.3      0.000      0.000
REMARK  Name = 191012
REMARK  3 active torsions:
REMARK  status: ('A' for Active; 'I' for Inactive)
REMARK    1  A    between atoms: N_3  and  C_18
REMARK    2  A    between atoms: C_10  and  S_26
REMARK    3  A    between atoms: C_13  and  S_30
REMARK                            x       y       z     vdW  Elec       q    Type
REMARK                         _______ _______ _______ _____ _____    ______ ____
ROOT
ATOM      1  O   UNL     1     -39.730  27.617   0.414  0.00  0.00    -0.266 OA
ATOM      2  O   UNL     1     -40.484  23.420   2.265  0.00  0.00    -0.193 OA
ATOM      3  N   UNL     1     -36.345  25.395   3.049  0.00  0.00    -0.252 N 
ATOM      4  N   UNL     1     -37.290  27.563   1.459  0.00  0.00    -0.394 NA
ATOM      5  N   UNL     1     -38.486  24.405   2.631  0.00  0.00    -0.302 NA
ATOM      6  N   UNL     1     -40.192  25.496   1.316  0.00  0.00    -0.169 N 
ATOM      7  C   UNL     1     -35.515  26.537   2.815  0.00  0.00    +0.156 C 
ATOM      8  C   UNL     1     -36.005  27.585   2.017  0.00  0.00    +0.149 C 
ATOM      9  C   UNL     1     -37.635  25.378   2.502  0.00  0.00    +0.236 C 
ATOM     10  C   UNL     1     -35.209  28.715   1.772  0.00  0.00    +0.141 C 
ATOM     11  C   UNL     1     -38.070  26.555   1.679  0.00  0.00    +0.230 C 
ATOM     12  C   UNL     1     -34.232  26.673   3.380  0.00  0.00    +0.020 C 
ATOM     13  C   UNL     1     -33.448  27.802   3.131  0.00  0.00    +0.111 C 
ATOM     14  C   UNL     1     -33.935  28.821   2.322  0.00  0.00    +0.040 C 
ATOM     15  C   UNL     1     -39.428  26.624   1.059  0.00  0.00    +0.296 C 
ATOM     16  C   UNL     1     -39.749  24.393   2.082  0.00  0.00    +0.276 C 
ATOM     17  C   UNL     1     -41.539  25.433   0.765  0.00  0.00    +0.135 C 
ENDROOT
BRANCH   3  18
ATOM     18  C   UNL     1     -35.908  24.243   3.779  0.00  0.00    +0.046 C 
ATOM     19  C   UNL     1     -35.539  23.074   3.103  0.00  0.00    -0.008 C 
ATOM     20  C   UNL     1     -35.845  24.274   5.177  0.00  0.00    -0.008 C 
ATOM     21  C   UNL     1     -35.115  21.952   3.814  0.00  0.00    -0.003 C 
ATOM     22  C   UNL     1     -35.422  23.152   5.889  0.00  0.00    -0.003 C 
ATOM     23  C   UNL     1     -35.592  23.003   1.611  0.00  0.00    +0.032 C 
ATOM     24  C   UNL     1     -36.231  25.503   5.934  0.00  0.00    +0.032 C 
ATOM     25  C   UNL     1     -35.056  21.991   5.207  0.00  0.00    -0.001 C 
ENDBRANCH   3  18
BRANCH  10  26
ATOM     26  S   UNL     1     -35.791  30.034   0.774  0.00  0.00    +0.044 S 
ATOM     27  O   UNL     1     -34.616  31.166   0.847  0.00  0.00    -0.065 OA
ATOM     28  O   UNL     1     -35.846  29.560  -0.598  0.00  0.00    -0.065 OA
ATOM     29  O   UNL     1     -36.974  30.562   1.431  0.00  0.00    -0.065 OA
ENDBRANCH  10  26
BRANCH  13  30
ATOM     30  S   UNL     1     -31.856  27.934   3.838  0.00  0.00    +0.042 S 
ATOM     31  O   UNL     1     -32.025  27.402   5.374  0.00  0.00    -0.065 OA
ATOM     32  O   UNL     1     -30.982  26.992   3.155  0.00  0.00    -0.065 OA
ATOM     33  O   UNL     1     -31.530  29.350   3.884  0.00  0.00    -0.065 OA
ENDBRANCH  13  30
TORSDOF 3
ENDMDL
MODEL 2
REMARK VINA RESULT:      -7.3      0.044      1.499
REMARK  Name = 191012
REMARK  3 active torsions:
REMARK  status: ('A' for Active; 'I' for Inactive)
REMARK    1  A    between atoms: N_3  and  C_18
REMARK    2  A    between atoms: C_10  and  S_26
REMARK    3  A    between atoms: C_13  and  S_30
REMARK                            x       y       z     vdW  Elec       q    Type
REMARK                         _______ _______ _______ _____ _____    ______ ____
ROOT
ATOM      1  O   UNL     1     -39.752  27.587   0.408  0.00  0.00    -0.266 OA
ATOM      2  O   UNL     1     -40.492  23.402   2.292  0.00  0.00    -0.193 OA
ATOM      3  N   UNL     1     -36.349  25.386   3.037  0.00  0.00    -0.252 N 
ATOM      4  N   UNL     1     -37.306  27.542   1.439  0.00  0.00    -0.394 NA
ATOM      5  N   UNL     1     -38.492  24.391   2.639  0.00  0.00    -0.302 NA
ATOM      6  N   UNL     1     -40.207  25.472   1.328  0.00  0.00    -0.169 N 
ATOM      7  C   UNL     1     -35.522  26.527   2.791  0.00  0.00    +0.156 C 
ATOM      8  C   UNL     1     -36.018  27.570   1.989  0.00  0.00    +0.149 C 
ATOM      9  C   UNL     1     -37.643  25.364   2.498  0.00  0.00    +0.236 C 
ATOM     10  C   UNL     1     -35.225  28.698   1.732  0.00  0.00    +0.141 C 
ATOM     11  C   UNL     1     -38.084  26.536   1.670  0.00  0.00    +0.230 C 
ATOM     12  C   UNL     1     -34.236  26.668   3.347  0.00  0.00    +0.020 C 
ATOM     13  C   UNL     1     -33.454  27.796   3.085  0.00  0.00    +0.111 C 
ATOM     14  C   UNL     1     -33.947  28.809   2.273  0.00  0.00    +0.040 C 
ATOM     15  C   UNL     1     -39.446  26.599   1.058  0.00  0.00    +0.296 C 
ATOM     16  C   UNL     1     -39.759  24.374   2.098  0.00  0.00    +0.276 C 
ATOM     17  C   UNL     1     -41.558  25.405   0.785  0.00  0.00    +0.135 C 
ENDROOT
BRANCH   3  18
ATOM     18  C   UNL     1     -35.907  24.239   3.773  0.00  0.00    +0.046 C 
ATOM     19  C   UNL     1     -35.840  24.278   5.171  0.00  0.00    -0.008 C 
ATOM     20  C   UNL     1     -35.536  23.068   3.102  0.00  0.00    -0.008 C 
ATOM     21  C   UNL     1     -35.407  23.163   5.887  0.00  0.00    -0.003 C 
ATOM     22  C   UNL     1     -35.104  21.953   3.818  0.00  0.00    -0.003 C 
ATOM     23  C   UNL     1     -36.228  25.510   5.922  0.00  0.00    +0.032 C 
ATOM     24  C   UNL     1     -35.595  22.988   1.611  0.00  0.00    +0.032 C 
ATOM     25  C   UNL     1     -35.040  22.000   5.211  0.00  0.00    -0.001 C 
ENDBRANCH   3  18
BRANCH  10  26
ATOM     26  S   UNL     1     -35.814  30.010   0.728  0.00  0.00    +0.044 S 
ATOM     27  O   UNL     1     -34.612  31.116   0.734  0.00  0.00    -0.065 OA
ATOM     28  O   UNL     1     -35.930  29.509  -0.630  0.00  0.00    -0.065 OA
ATOM     29  O   UNL     1     -36.960  30.578   1.417  0.00  0.00    -0.065 OA
ENDBRANCH  10  26
BRANCH  13  30
ATOM     30  S   UNL     1     -31.859  27.934   3.782  0.00  0.00    +0.042 S 
ATOM     31  O   UNL     1     -32.015  27.400   5.318  0.00  0.00    -0.065 OA
ATOM     32  O   UNL     1     -30.985  26.997   3.092  0.00  0.00    -0.065 OA
ATOM     33  O   UNL     1     -31.538  29.352   3.827  0.00  0.00    -0.065 OA
ENDBRANCH  13  30
TORSDOF 3
ENDMDL
MODEL 3
REMARK VINA RESULT:      -6.9      4.643      7.972
REMARK  Name = 191012
REMARK  3 active torsions:
REMARK  status: ('A' for Active; 'I' for Inactive)
REMARK    1  A    between atoms: N_3  and  C_18
REMARK    2  A    between atoms: C_10  and  S_26
REMARK    3  A    between atoms: C_13  and  S_30
REMARK                            x       y       z     vdW  Elec       q    Type
REMARK                         _______ _______ _______ _____ _____    ______ ____
ROOT
ATOM      1  O   UNL     1     -38.184  24.283   3.843  0.00  0.00    -0.266 OA
ATOM      2  O   UNL     1     -33.571  24.835   4.015  0.00  0.00    -0.193 OA
ATOM      3  N   UNL     1     -35.269  21.999   0.740  0.00  0.00    -0.252 N 
ATOM      4  N   UNL     1     -37.838  22.601   1.819  0.00  0.00    -0.394 NA
ATOM      5  N   UNL     1     -34.425  23.467   2.434  0.00  0.00    -0.302 NA
ATOM      6  N   UNL     1     -35.862  24.618   3.996  0.00  0.00    -0.169 N 
ATOM      7  C   UNL     1     -36.448  21.422   0.169  0.00  0.00    +0.156 C 
ATOM      8  C   UNL     1     -37.700  21.729   0.730  0.00  0.00    +0.149 C 
ATOM      9  C   UNL     1     -35.408  22.881   1.820  0.00  0.00    +0.236 C 
ATOM     10  C   UNL     1     -38.869  21.175   0.189  0.00  0.00    +0.141 C 
ATOM     11  C   UNL     1     -36.791  23.158   2.335  0.00  0.00    +0.230 C 
ATOM     12  C   UNL     1     -36.412  20.580  -0.959  0.00  0.00    +0.020 C 
ATOM     13  C   UNL     1     -37.583  20.033  -1.492  0.00  0.00    +0.111 C 
ATOM     14  C   UNL     1     -38.811  20.327  -0.914  0.00  0.00    +0.040 C 
ATOM     15  C   UNL     1     -37.034  24.086   3.480  0.00  0.00    +0.296 C 
ATOM     16  C   UNL     1     -34.571  24.326   3.501  0.00  0.00    +0.276 C 
ATOM     17  C   UNL     1     -35.959  25.538   5.122  0.00  0.00    +0.135 C 
ENDROOT
BRANCH   3  18
ATOM     18  C   UNL     1     -33.946  21.686   0.292  0.00  0.00    +0.046 C 
ATOM     19  C   UNL     1     -33.264  22.560  -0.564  0.00  0.00    -0.008 C 
ATOM     20  C   UNL     1     -33.320  20.504   0.704  0.00  0.00    -0.008 C 
ATOM     21  C   UNL     1     -31.976  22.254  -1.002  0.00  0.00    -0.003 C 
ATOM     22  C   UNL     1     -32.032  20.198   0.266  0.00  0.00    -0.003 C 
ATOM     23  C   UNL     1     -33.899  23.831  -1.025  0.00  0.00    +0.032 C 
ATOM     24  C   UNL     1     -34.016  19.547   1.617  0.00  0.00    +0.032 C 
ATOM     25  C   UNL     1     -31.359  21.074  -0.586  0.00  0.00    -0.001 C 
ENDBRANCH   3  18
BRANCH  10  26
ATOM     26  S   UNL     1     -40.444  21.533   0.873  0.00  0.00    +0.044 S 
ATOM     27  O   UNL     1     -41.496  20.642  -0.001  0.00  0.00    -0.065 OA
ATOM     28  O   UNL     1     -40.464  21.014   2.230  0.00  0.00    -0.065 OA
ATOM     29  O   UNL     1     -40.703  22.937   0.606  0.00  0.00    -0.065 OA
ENDBRANCH  10  26
BRANCH  13  30
ATOM     30  S   UNL     1     -37.502  18.984  -2.885  0.00  0.00    +0.042 S 
ATOM     31  O   UNL     1     -35.907  18.746  -3.150  0.00  0.00    -0.065 OA
ATOM     32  O   UNL     1     -38.068  17.697  -2.512  0.00  0.00    -0.065 OA
ATOM     33  O   UNL     1     -38.039  19.733  -4.010  0.00  0.00    -0.065 OA
ENDBRANCH  13  30
TORSDOF 3
ENDMDL
MODEL 4
REMARK VINA RESULT:      -6.9      2.302      5.737
REMARK  Name = 191012
REMARK  3 active torsions:
REMARK  status: ('A' for Active; 'I' for Inactive)
REMARK    1  A    between atoms: N_3  and  C_18
REMARK    2  A    between atoms: C_10  and  S_26
REMARK    3  A    between atoms: C_13  and  S_30
REMARK                            x       y       z     vdW  Elec       q    Type
REMARK                         _______ _______ _______ _____ _____    ______ ____
ROOT
ATOM      1  O   UNL     1     -33.309  28.845   0.027  0.00  0.00    -0.266 OA
ATOM      2  O   UNL     1     -30.930  25.897   2.722  0.00  0.00    -0.193 OA
ATOM      3  N   UNL     1     -35.548  25.363   2.517  0.00  0.00    -0.252 N 
ATOM      4  N   UNL     1     -35.540  27.611   0.765  0.00  0.00    -0.394 NA
ATOM      5  N   UNL     1     -33.172  25.660   2.600  0.00  0.00    -0.302 NA
ATOM      6  N   UNL     1     -32.032  27.394   1.365  0.00  0.00    -0.169 N 
ATOM      7  C   UNL     1     -36.772  25.851   1.960  0.00  0.00    +0.156 C 
ATOM      8  C   UNL     1     -36.737  26.968   1.108  0.00  0.00    +0.149 C 
ATOM      9  C   UNL     1     -34.349  25.996   2.163  0.00  0.00    +0.236 C 
ATOM     10  C   UNL     1     -37.925  27.467   0.551  0.00  0.00    +0.141 C 
ATOM     11  C   UNL     1     -34.417  27.171   1.232  0.00  0.00    +0.230 C 
ATOM     12  C   UNL     1     -38.016  25.237   2.203  0.00  0.00    +0.020 C 
ATOM     13  C   UNL     1     -39.193  25.740   1.642  0.00  0.00    +0.111 C 
ATOM     14  C   UNL     1     -39.148  26.858   0.820  0.00  0.00    +0.040 C 
ATOM     15  C   UNL     1     -33.190  27.906   0.800  0.00  0.00    +0.296 C 
ATOM     16  C   UNL     1     -31.999  26.295   2.254  0.00  0.00    +0.276 C 
ATOM     17  C   UNL     1     -30.762  28.024   1.028  0.00  0.00    +0.135 C 
ENDROOT
BRANCH   3  18
ATOM     18  C   UNL     1     -35.488  24.283   3.455  0.00  0.00    +0.046 C 
ATOM     19  C   UNL     1     -35.349  22.964   3.008  0.00  0.00    -0.008 C 
ATOM     20  C   UNL     1     -35.568  24.535   4.830  0.00  0.00    -0.008 C 
ATOM     21  C   UNL     1     -35.292  21.912   3.922  0.00  0.00    -0.003 C 
ATOM     22  C   UNL     1     -35.511  23.484   5.744  0.00  0.00    -0.003 C 
ATOM     23  C   UNL     1     -35.260  22.655   1.549  0.00  0.00    +0.032 C 
ATOM     24  C   UNL     1     -35.716  25.930   5.345  0.00  0.00    +0.032 C 
ATOM     25  C   UNL     1     -35.373  22.172   5.290  0.00  0.00    -0.001 C 
ENDBRANCH   3  18
BRANCH  10  26
ATOM     26  S   UNL     1     -37.913  28.864  -0.509  0.00  0.00    +0.044 S 
ATOM     27  O   UNL     1     -39.443  28.981  -1.068  0.00  0.00    -0.065 OA
ATOM     28  O   UNL     1     -37.665  30.038   0.311  0.00  0.00    -0.065 OA
ATOM     29  O   UNL     1     -37.043  28.533  -1.624  0.00  0.00    -0.065 OA
ENDBRANCH  10  26
BRANCH  13  30
ATOM     30  S   UNL     1     -40.721  24.960   1.973  0.00  0.00    +0.042 S 
ATOM     31  O   UNL     1     -41.632  25.221   0.642  0.00  0.00    -0.065 OA
ATOM     32  O   UNL     1     -40.484  23.527   2.053  0.00  0.00    -0.065 OA
ATOM     33  O   UNL     1     -41.328  25.675   3.084  0.00  0.00    -0.065 OA
ENDBRANCH  13  30
TORSDOF 3
ENDMDL
MODEL 5
REMARK VINA RESULT:      -6.9      2.053      2.581
REMARK  Name = 191012
REMARK  3 active torsions:
REMARK  status: ('A' for Active; 'I' for Inactive)
REMARK    1  A    between atoms: N_3  and  C_18
REMARK    2  A    between atoms: C_10  and  S_26
REMARK    3  A    between atoms: C_13  and  S_30
REMARK                            x       y       z     vdW  Elec       q    Type
REMARK                         _______ _______ _______ _____ _____    ______ ____
ROOT
ATOM      1  O   UNL     1     -39.337  24.831  -1.056  0.00  0.00    -0.266 OA
ATOM      2  O   UNL     1     -40.194  21.670   2.243  0.00  0.00    -0.193 OA
ATOM      3  N   UNL     1     -36.201  24.041   2.532  0.00  0.00    -0.252 N 
ATOM      4  N   UNL     1     -37.019  25.343   0.132  0.00  0.00    -0.394 NA
ATOM      5  N   UNL     1     -38.266  22.839   2.359  0.00  0.00    -0.302 NA
ATOM      6  N   UNL     1     -39.847  23.216   0.574  0.00  0.00    -0.169 N 
ATOM      7  C   UNL     1     -35.375  25.046   1.935  0.00  0.00    +0.156 C 
ATOM      8  C   UNL     1     -35.800  25.662   0.746  0.00  0.00    +0.149 C 
ATOM      9  C   UNL     1     -37.426  23.732   1.927  0.00  0.00    +0.236 C 
ATOM     10  C   UNL     1     -35.007  26.648   0.140  0.00  0.00    +0.141 C 
ATOM     11  C   UNL     1     -37.797  24.459   0.667  0.00  0.00    +0.230 C 
ATOM     12  C   UNL     1     -34.161  25.472   2.509  0.00  0.00    +0.020 C 
ATOM     13  C   UNL     1     -33.379  26.456   1.899  0.00  0.00    +0.111 C 
ATOM     14  C   UNL     1     -33.800  27.041   0.712  0.00  0.00    +0.040 C 
ATOM     15  C   UNL     1     -39.084  24.195  -0.045  0.00  0.00    +0.296 C 
ATOM     16  C   UNL     1     -39.464  22.535   1.751  0.00  0.00    +0.276 C 
ATOM     17  C   UNL     1     -41.128  22.859  -0.023  0.00  0.00    +0.135 C 
ENDROOT
BRANCH   3  18
ATOM     18  C   UNL     1     -35.819  23.301   3.697  0.00  0.00    +0.046 C 
ATOM     19  C   UNL     1     -35.936  23.874   4.969  0.00  0.00    -0.008 C 
ATOM     20  C   UNL     1     -35.324  21.998   3.576  0.00  0.00    -0.008 C 
ATOM     21  C   UNL     1     -35.563  23.154   6.103  0.00  0.00    -0.003 C 
ATOM     22  C   UNL     1     -34.950  21.278   4.710  0.00  0.00    -0.003 C 
ATOM     23  C   UNL     1     -36.461  25.263   5.138  0.00  0.00    +0.032 C 
ATOM     24  C   UNL     1     -35.184  21.353   2.235  0.00  0.00    +0.032 C 
ATOM     25  C   UNL     1     -35.070  21.855   5.974  0.00  0.00    -0.001 C 
ENDBRANCH   3  18
BRANCH  10  26
ATOM     26  S   UNL     1     -35.508  27.428  -1.348  0.00  0.00    +0.044 S 
ATOM     27  O   UNL     1     -34.394  28.593  -1.609  0.00  0.00    -0.065 OA
ATOM     28  O   UNL     1     -35.374  26.458  -2.422  0.00  0.00    -0.065 OA
ATOM     29  O   UNL     1     -36.783  28.068  -1.074  0.00  0.00    -0.065 OA
ENDBRANCH  10  26
BRANCH  13  30
ATOM     30  S   UNL     1     -31.873  26.953   2.631  0.00  0.00    +0.042 S 
ATOM     31  O   UNL     1     -32.188  27.055   4.231  0.00  0.00    -0.065 OA
ATOM     32  O   UNL     1     -30.911  25.875   2.455  0.00  0.00    -0.065 OA
ATOM     33  O   UNL     1     -31.586  28.291   2.141  0.00  0.00    -0.065 OA
ENDBRANCH  13  30
TORSDOF 3
ENDMDL
MODEL 6
REMARK VINA RESULT:      -6.8      2.108      5.989
REMARK  Name = 191012
REMARK  3 active torsions:
REMARK  status: ('A' for Active; 'I' for Inactive)
REMARK    1  A    between atoms: N_3  and  C_18
REMARK    2  A    between atoms: C_10  and  S_26
REMARK    3  A    between atoms: C_13  and  S_30
REMARK                            x       y       z     vdW  Elec       q    Type
REMARK                         _______ _______ _______ _____ _____    ______ ____
ROOT
ATOM      1  O   UNL     1     -34.134  29.545   0.802  0.00  0.00    -0.266 OA
ATOM      2  O   UNL     1     -31.524  26.971   3.660  0.00  0.00    -0.193 OA
ATOM      3  N   UNL     1     -35.799  25.418   2.680  0.00  0.00    -0.252 N 
ATOM      4  N   UNL     1     -36.084  27.768   1.093  0.00  0.00    -0.394 NA
ATOM      5  N   UNL     1     -33.602  26.241   3.163  0.00  0.00    -0.302 NA
ATOM      6  N   UNL     1     -32.750  28.301   2.237  0.00  0.00    -0.169 N 
ATOM      7  C   UNL     1     -37.013  25.665   1.963  0.00  0.00    +0.156 C 
ATOM      8  C   UNL     1     -37.128  26.838   1.198  0.00  0.00    +0.149 C 
ATOM      9  C   UNL     1     -34.750  26.340   2.564  0.00  0.00    +0.236 C 
ATOM     10  C   UNL     1     -38.308  27.104   0.488  0.00  0.00    +0.141 C 
ATOM     11  C   UNL     1     -34.967  27.553   1.707  0.00  0.00    +0.230 C 
ATOM     12  C   UNL     1     -38.094  24.762   1.964  0.00  0.00    +0.020 C 
ATOM     13  C   UNL     1     -39.265  25.035   1.252  0.00  0.00    +0.111 C 
ATOM     14  C   UNL     1     -39.374  26.209   0.518  0.00  0.00    +0.040 C 
ATOM     15  C   UNL     1     -33.904  28.588   1.525  0.00  0.00    +0.296 C 
ATOM     16  C   UNL     1     -32.580  27.158   3.051  0.00  0.00    +0.276 C 
ATOM     17  C   UNL     1     -31.634  29.235   2.149  0.00  0.00    +0.135 C 
ENDROOT
BRANCH   3  18
ATOM     18  C   UNL     1     -35.615  24.294   3.548  0.00  0.00    +0.046 C 
ATOM     19  C   UNL     1     -35.807  24.427   4.928  0.00  0.00    -0.008 C 
ATOM     20  C   UNL     1     -35.241  23.051   3.026  0.00  0.00    -0.008 C 
ATOM     21  C   UNL     1     -35.626  23.333   5.774  0.00  0.00    -0.003 C 
ATOM     22  C   UNL     1     -35.059  21.957   3.871  0.00  0.00    -0.003 C 
ATOM     23  C   UNL     1     -36.207  25.738   5.523  0.00  0.00    +0.032 C 
ATOM     24  C   UNL     1     -35.027  22.869   1.558  0.00  0.00    +0.032 C 
ATOM     25  C   UNL     1     -35.253  22.098   5.245  0.00  0.00    -0.001 C 
ENDBRANCH   3  18
BRANCH  10  26
ATOM     26  S   UNL     1     -38.483  28.564  -0.468  0.00  0.00    +0.044 S 
ATOM     27  O   UNL     1     -40.016  28.519  -1.029  0.00  0.00    -0.065 OA
ATOM     28  O   UNL     1     -38.389  29.697   0.435  0.00  0.00    -0.065 OA
ATOM     29  O   UNL     1     -37.580  28.431  -1.598  0.00  0.00    -0.065 OA
ENDBRANCH  10  26
BRANCH  13  30
ATOM     30  S   UNL     1     -40.591  23.898   1.284  0.00  0.00    +0.042 S 
ATOM     31  O   UNL     1     -40.638  23.253  -0.217  0.00  0.00    -0.065 OA
ATOM     32  O   UNL     1     -40.238  22.823   2.199  0.00  0.00    -0.065 OA
ATOM     33  O   UNL     1     -41.806  24.672   1.482  0.00  0.00    -0.065 OA
ENDBRANCH  13  30
TORSDOF 3
ENDMDL
MODEL 7
REMARK VINA RESULT:      -6.7      3.043      3.472
REMARK  Name = 191012
REMARK  3 active torsions:
REMARK  status: ('A' for Active; 'I' for Inactive)
REMARK    1  A    between atoms: N_3  and  C_18
REMARK    2  A    between atoms: C_10  and  S_26
REMARK    3  A    between atoms: C_13  and  S_30
REMARK                            x       y       z     vdW  Elec       q    Type
REMARK                         _______ _______ _______ _____ _____    ______ ____
ROOT
ATOM      1  O   UNL     1     -39.376  23.177  -1.752  0.00  0.00    -0.266 OA
ATOM      2  O   UNL     1     -40.333  21.062   2.275  0.00  0.00    -0.193 OA
ATOM      3  N   UNL     1     -36.334  23.423   1.992  0.00  0.00    -0.252 N 
ATOM      4  N   UNL     1     -37.085  24.002  -0.696  0.00  0.00    -0.394 NA
ATOM      5  N   UNL     1     -38.401  22.218   2.109  0.00  0.00    -0.302 NA
ATOM      6  N   UNL     1     -39.935  22.081   0.250  0.00  0.00    -0.169 N 
ATOM      7  C   UNL     1     -35.487  24.222   1.159  0.00  0.00    +0.156 C 
ATOM      8  C   UNL     1     -35.880  24.481  -0.165  0.00  0.00    +0.149 C 
ATOM      9  C   UNL     1     -37.546  22.956   1.466  0.00  0.00    +0.236 C 
ATOM     10  C   UNL     1     -35.066  25.260  -1.001  0.00  0.00    +0.141 C 
ATOM     11  C   UNL     1     -37.881  23.303   0.045  0.00  0.00    +0.230 C 
ATOM     12  C   UNL     1     -34.285  24.792   1.621  0.00  0.00    +0.020 C 
ATOM     13  C   UNL     1     -33.482  25.568   0.781  0.00  0.00    +0.111 C 
ATOM     14  C   UNL     1     -33.870  25.798  -0.532  0.00  0.00    +0.040 C 
ATOM     15  C   UNL     1     -39.151  22.849  -0.597  0.00  0.00    +0.296 C 
ATOM     16  C   UNL     1     -39.586  21.755   1.580  0.00  0.00    +0.276 C 
ATOM     17  C   UNL     1     -41.204  21.570  -0.255  0.00  0.00    +0.135 C 
ENDROOT
BRANCH   3  18
ATOM     18  C   UNL     1     -35.985  23.038   3.326  0.00  0.00    +0.046 C 
ATOM     19  C   UNL     1     -35.421  21.781   3.575  0.00  0.00    -0.008 C 
ATOM     20  C   UNL     1     -36.205  23.913   4.396  0.00  0.00    -0.008 C 
ATOM     21  C   UNL     1     -35.083  21.405   4.875  0.00  0.00    -0.003 C 
ATOM     22  C   UNL     1     -35.867  23.538   5.695  0.00  0.00    -0.003 C 
ATOM     23  C   UNL     1     -35.170  20.819   2.459  0.00  0.00    +0.032 C 
ATOM     24  C   UNL     1     -36.805  25.263   4.169  0.00  0.00    +0.032 C 
ATOM     25  C   UNL     1     -35.305  22.284   5.935  0.00  0.00    -0.001 C 
ENDBRANCH   3  18
BRANCH  10  26
ATOM     26  S   UNL     1     -35.526  25.593  -2.661  0.00  0.00    +0.044 S 
ATOM     27  O   UNL     1     -34.273  26.436  -3.284  0.00  0.00    -0.065 OA
ATOM     28  O   UNL     1     -35.583  24.324  -3.366  0.00  0.00    -0.065 OA
ATOM     29  O   UNL     1     -36.682  26.470  -2.604  0.00  0.00    -0.065 OA
ENDBRANCH  10  26
BRANCH  13  30
ATOM     30  S   UNL     1     -31.992  26.251   1.384  0.00  0.00    +0.042 S 
ATOM     31  O   UNL     1     -31.987  25.925   2.985  0.00  0.00    -0.065 OA
ATOM     32  O   UNL     1     -30.887  25.509   0.795  0.00  0.00    -0.065 OA
ATOM     33  O   UNL     1     -32.090  27.692   1.217  0.00  0.00    -0.065 OA
ENDBRANCH  13  30
TORSDOF 3
ENDMDL
MODEL 8
REMARK VINA RESULT:      -6.7      4.656      6.729
REMARK  Name = 191012
REMARK  3 active torsions:
REMARK  status: ('A' for Active; 'I' for Inactive)
REMARK    1  A    between atoms: N_3  and  C_18
REMARK    2  A    between atoms: C_10  and  S_26
REMARK    3  A    between atoms: C_13  and  S_30
REMARK                            x       y       z     vdW  Elec       q    Type
REMARK                         _______ _______ _______ _____ _____    ______ ____
ROOT
ATOM      1  O   UNL     1     -39.763  19.458  -0.767  0.00  0.00    -0.266 OA
ATOM      2  O   UNL     1     -36.119  17.338  -2.728  0.00  0.00    -0.193 OA
ATOM      3  N   UNL     1     -35.242  20.911   0.121  0.00  0.00    -0.252 N 
ATOM      4  N   UNL     1     -38.068  21.120   0.421  0.00  0.00    -0.394 NA
ATOM      5  N   UNL     1     -35.725  19.073  -1.338  0.00  0.00    -0.302 NA
ATOM      6  N   UNL     1     -37.975  18.331  -1.797  0.00  0.00    -0.169 N 
ATOM      7  C   UNL     1     -35.808  21.915   0.970  0.00  0.00    +0.156 C 
ATOM      8  C   UNL     1     -37.206  22.000   1.089  0.00  0.00    +0.149 C 
ATOM      9  C   UNL     1     -36.104  20.023  -0.536  0.00  0.00    +0.236 C 
ATOM     10  C   UNL     1     -37.784  22.976   1.914  0.00  0.00    +0.141 C 
ATOM     11  C   UNL     1     -37.581  20.187  -0.329  0.00  0.00    +0.230 C 
ATOM     12  C   UNL     1     -35.020  22.806   1.723  0.00  0.00    +0.020 C 
ATOM     13  C   UNL     1     -35.605  23.775   2.543  0.00  0.00    +0.111 C 
ATOM     14  C   UNL     1     -36.988  23.862   2.634  0.00  0.00    +0.040 C 
ATOM     15  C   UNL     1     -38.574  19.285  -0.988  0.00  0.00    +0.296 C 
ATOM     16  C   UNL     1     -36.580  18.210  -1.987  0.00  0.00    +0.276 C 
ATOM     17  C   UNL     1     -38.833  17.387  -2.503  0.00  0.00    +0.135 C 
ENDROOT
BRANCH   3  18
ATOM     18  C   UNL     1     -33.837  20.795  -0.128  0.00  0.00    +0.046 C 
ATOM     19  C   UNL     1     -33.230  21.562  -1.130  0.00  0.00    -0.008 C 
ATOM     20  C   UNL     1     -33.055  19.912   0.626  0.00  0.00    -0.008 C 
ATOM     21  C   UNL     1     -31.861  21.447  -1.374  0.00  0.00    -0.003 C 
ATOM     22  C   UNL     1     -31.687  19.797   0.382  0.00  0.00    -0.003 C 
ATOM     23  C   UNL     1     -34.031  22.515  -1.956  0.00  0.00    +0.032 C 
ATOM     24  C   UNL     1     -33.667  19.077   1.704  0.00  0.00    +0.032 C 
ATOM     25  C   UNL     1     -31.090  20.565  -0.617  0.00  0.00    -0.001 C 
ENDBRANCH   3  18
BRANCH  10  26
ATOM     26  S   UNL     1     -39.525  23.112   2.076  0.00  0.00    +0.044 S 
ATOM     27  O   UNL     1     -39.754  24.153   3.312  0.00  0.00    -0.065 OA
ATOM     28  O   UNL     1     -40.032  23.753   0.875  0.00  0.00    -0.065 OA
ATOM     29  O   UNL     1     -40.008  21.804   2.485  0.00  0.00    -0.065 OA
ENDBRANCH  10  26
BRANCH  13  30
ATOM     30  S   UNL     1     -34.598  24.871   3.455  0.00  0.00    +0.042 S 
ATOM     31  O   UNL     1     -35.603  26.056   3.961  0.00  0.00    -0.065 OA
ATOM     32  O   UNL     1     -34.134  24.171   4.644  0.00  0.00    -0.065 OA
ATOM     33  O   UNL     1     -33.649  25.452   2.519  0.00  0.00    -0.065 OA
ENDBRANCH  13  30
TORSDOF 3
ENDMDL
MODEL 9
REMARK VINA RESULT:      -6.6      4.073      7.249
REMARK  Name = 191012
REMARK  3 active torsions:
REMARK  status: ('A' for Active; 'I' for Inactive)
REMARK    1  A    between atoms: N_3  and  C_18
REMARK    2  A    between atoms: C_10  and  S_26
REMARK    3  A    between atoms: C_13  and  S_30
REMARK                            x       y       z     vdW  Elec       q    Type
REMARK                         _______ _______ _______ _____ _____    ______ ____
ROOT
ATOM      1  O   UNL     1     -37.306  18.660  -0.556  0.00  0.00    -0.266 OA
ATOM      2  O   UNL     1     -33.152  19.503   1.353  0.00  0.00    -0.193 OA
ATOM      3  N   UNL     1     -36.405  22.805   1.756  0.00  0.00    -0.252 N 
ATOM      4  N   UNL     1     -38.092  21.060   0.261  0.00  0.00    -0.394 NA
ATOM      5  N   UNL     1     -34.752  21.085   1.535  0.00  0.00    -0.302 NA
ATOM      6  N   UNL     1     -35.179  19.007   0.384  0.00  0.00    -0.169 N 
ATOM      7  C   UNL     1     -37.750  23.186   1.448  0.00  0.00    +0.156 C 
ATOM      8  C   UNL     1     -38.554  22.309   0.699  0.00  0.00    +0.149 C 
ATOM      9  C   UNL     1     -35.947  21.551   1.329  0.00  0.00    +0.236 C 
ATOM     10  C   UNL     1     -39.875  22.661   0.383  0.00  0.00    +0.141 C 
ATOM     11  C   UNL     1     -36.890  20.681   0.551  0.00  0.00    +0.230 C 
ATOM     12  C   UNL     1     -38.319  24.395   1.892  0.00  0.00    +0.020 C 
ATOM     13  C   UNL     1     -39.636  24.736   1.573  0.00  0.00    +0.111 C 
ATOM     14  C   UNL     1     -40.412  23.870   0.814  0.00  0.00    +0.040 C 
ATOM     15  C   UNL     1     -36.489  19.329   0.058  0.00  0.00    +0.296 C 
ATOM     16  C   UNL     1     -34.308  19.855   1.104  0.00  0.00    +0.276 C 
ATOM     17  C   UNL     1     -34.659  17.714  -0.042  0.00  0.00    +0.135 C 
ENDROOT
BRANCH   3  18
ATOM     18  C   UNL     1     -35.485  23.661   2.442  0.00  0.00    +0.046 C 
ATOM     19  C   UNL     1     -35.296  23.533   3.824  0.00  0.00    -0.008 C 
ATOM     20  C   UNL     1     -34.765  24.634   1.740  0.00  0.00    -0.008 C 
ATOM     21  C   UNL     1     -34.401  24.368   4.493  0.00  0.00    -0.003 C 
ATOM     22  C   UNL     1     -33.870  25.468   2.409  0.00  0.00    -0.003 C 
ATOM     23  C   UNL     1     -36.046  22.506   4.608  0.00  0.00    +0.032 C 
ATOM     24  C   UNL     1     -34.939  24.800   0.265  0.00  0.00    +0.032 C 
ATOM     25  C   UNL     1     -33.687  25.335   3.785  0.00  0.00    -0.001 C 
ENDBRANCH   3  18
BRANCH  10  26
ATOM     26  S   UNL     1     -40.898  21.590  -0.557  0.00  0.00    +0.044 S 
ATOM     27  O   UNL     1     -42.111  22.538  -1.102  0.00  0.00    -0.065 OA
ATOM     28  O   UNL     1     -40.137  21.157  -1.716  0.00  0.00    -0.065 OA
ATOM     29  O   UNL     1     -41.456  20.625   0.375  0.00  0.00    -0.065 OA
ENDBRANCH  10  26
BRANCH  13  30
ATOM     30  S   UNL     1     -40.307  26.248   2.132  0.00  0.00    +0.042 S 
ATOM     31  O   UNL     1     -39.872  27.351   1.008  0.00  0.00    -0.065 OA
ATOM     32  O   UNL     1     -41.757  26.141   2.084  0.00  0.00    -0.065 OA
ATOM     33  O   UNL     1     -39.628  26.578   3.375  0.00  0.00    -0.065 OA
ENDBRANCH  13  30
TORSDOF 3
ENDMDL
