MODEL 1
REMARK VINA RESULT:      -5.1      0.000      0.000
REMARK  Name = 5353622
REMARK  10 active torsions:
REMARK  status: ('A' for Active; 'I' for Inactive)
REMARK    1  A    between atoms: S_1  and  C_2
REMARK    2  A    between atoms: S_1  and  C_15
REMARK    3  A    between atoms: C_2  and  C_3
REMARK    4  A    between atoms: C_3  and  C_6
REMARK    5  A    between atoms: N_4  and  C_6
REMARK    6  A    between atoms: N_4  and  S_9
REMARK    7  A    between atoms: S_9  and  N_12
REMARK    8  A    between atoms: C_15  and  C_18
REMARK    9  A    between atoms: C_20  and  N_21
REMARK   10  A    between atoms: N_21  and  C_24
REMARK                            x       y       z     vdW  Elec       q    Type
REMARK                         _______ _______ _______ _____ _____    ______ ____
ROOT
ATOM      1  S   UNL     1     -35.284  25.380   2.095  0.00  0.00    -0.133 S 
ENDROOT
BRANCH   1   2
ATOM      2  C   UNL     1     -37.068  25.558   1.793  0.00  0.00    +0.066 C 
BRANCH   2   3
ATOM      3  C   UNL     1     -37.856  25.760   3.084  0.00  0.00    +0.074 C 
BRANCH   3   5
ATOM      4  N   UNL     1     -40.188  25.251   3.683  0.00  0.00    -0.387 N 
ATOM      5  C   UNL     1     -38.986  24.747   3.242  0.00  0.00    +0.122 C 
ATOM      6  H   UNL     1     -40.958  24.651   3.806  0.00  0.00    +0.157 HD
ATOM      7  H   UNL     1     -40.277  26.213   3.875  0.00  0.00    +0.157 HD
BRANCH   5   8
ATOM      8  N   UNL     1     -38.695  23.517   2.937  0.00  0.00    -0.074 NA
BRANCH   8   9
ATOM      9  S   UNL     1     -39.485  22.727   1.745  0.00  0.00    +0.127 S 
ATOM     10  O   UNL     1     -38.581  22.555   0.620  0.00  0.00    -0.137 OA
ATOM     11  O   UNL     1     -40.771  23.372   1.530  0.00  0.00    -0.137 OA
BRANCH   9  12
ATOM     12  N   UNL     1     -39.828  21.147   2.338  0.00  0.00    -0.189 NA
ATOM     13  H   UNL     1     -39.181  20.479   1.918  0.00  0.00    +0.146 HD
ATOM     14  H   UNL     1     -40.785  20.893   2.094  0.00  0.00    +0.146 HD
ENDBRANCH   9  12
ENDBRANCH   8   9
ENDBRANCH   5   8
ENDBRANCH   3   5
ENDBRANCH   2   3
ENDBRANCH   1   2
BRANCH   1  15
ATOM     15  C   UNL     1     -35.328  25.353   3.901  0.00  0.00    +0.113 C 
BRANCH  15  18
ATOM     16  S   UNL     1     -35.282  21.905   5.892  0.00  0.00    -0.055 S 
ATOM     17  N   UNL     1     -35.286  22.929   3.518  0.00  0.00    -0.384 NA
ATOM     18  C   UNL     1     -35.308  23.956   4.429  0.00  0.00    +0.111 C 
ATOM     19  C   UNL     1     -35.309  23.614   5.755  0.00  0.00    +0.121 C 
ATOM     20  C   UNL     1     -35.271  21.793   4.179  0.00  0.00    +0.243 C 
BRANCH  20  21
ATOM     21  N   UNL     1     -35.249  20.553   3.627  0.00  0.00    -0.178 NA
BRANCH  21  24
ATOM     22  N   UNL     1     -36.980  19.767   2.135  0.00  0.00    -0.370 N 
ATOM     23  N   UNL     1     -35.182  20.909   1.323  0.00  0.00    -0.370 N 
ATOM     24  C   UNL     1     -35.797  20.403   2.444  0.00  0.00    +0.196 C 
ATOM     25  H   UNL     1     -37.522  19.359   2.849  0.00  0.00    +0.159 HD
ATOM     26  H   UNL     1     -37.285  19.721   1.200  0.00  0.00    +0.159 HD
ATOM     27  H   UNL     1     -34.326  21.388   1.405  0.00  0.00    +0.159 HD
ATOM     28  H   UNL     1     -35.598  20.792   0.438  0.00  0.00    +0.159 HD
ENDBRANCH  21  24
ENDBRANCH  20  21
ENDBRANCH  15  18
ENDBRANCH   1  15
TORSDOF 10
ENDMDL
MODEL 2
REMARK VINA RESULT:      -5.0      2.340      4.539
REMARK  Name = 5353622
REMARK  10 active torsions:
REMARK  status: ('A' for Active; 'I' for Inactive)
REMARK    1  A    between atoms: S_1  and  C_2
REMARK    2  A    between atoms: S_1  and  C_15
REMARK    3  A    between atoms: C_2  and  C_3
REMARK    4  A    between atoms: C_3  and  C_6
REMARK    5  A    between atoms: N_4  and  C_6
REMARK    6  A    between atoms: N_4  and  S_9
REMARK    7  A    between atoms: S_9  and  N_12
REMARK    8  A    between atoms: C_15  and  C_18
REMARK    9  A    between atoms: C_20  and  N_21
REMARK   10  A    between atoms: N_21  and  C_24
REMARK                            x       y       z     vdW  Elec       q    Type
REMARK                         _______ _______ _______ _____ _____    ______ ____
ROOT
ATOM      1  S   UNL     1     -36.065  25.915   5.250  0.00  0.00    -0.133 S 
ENDROOT
BRANCH   1   2
ATOM      2  C   UNL     1     -35.539  24.211   5.604  0.00  0.00    +0.066 C 
BRANCH   2   3
ATOM      3  C   UNL     1     -34.746  23.599   4.454  0.00  0.00    +0.074 C 
BRANCH   3   5
ATOM      4  N   UNL     1     -35.542  21.338   5.011  0.00  0.00    -0.387 N 
ATOM      5  C   UNL     1     -35.310  22.253   4.009  0.00  0.00    +0.122 C 
ATOM      6  H   UNL     1     -35.905  20.451   4.792  0.00  0.00    +0.157 HD
ATOM      7  H   UNL     1     -35.345  21.574   5.947  0.00  0.00    +0.157 HD
BRANCH   5   8
ATOM      8  N   UNL     1     -35.515  22.115   2.733  0.00  0.00    -0.074 NA
BRANCH   8   9
ATOM      9  S   UNL     1     -35.533  20.640   2.030  0.00  0.00    +0.127 S 
ATOM     10  O   UNL     1     -34.442  19.849   2.575  0.00  0.00    -0.137 OA
ATOM     11  O   UNL     1     -35.636  20.809   0.589  0.00  0.00    -0.137 OA
BRANCH   9  12
ATOM     12  N   UNL     1     -36.988  19.867   2.533  0.00  0.00    -0.189 NA
ATOM     13  H   UNL     1     -37.745  20.551   2.557  0.00  0.00    +0.146 HD
ATOM     14  H   UNL     1     -36.859  19.471   3.463  0.00  0.00    +0.146 HD
ENDBRANCH   9  12
ENDBRANCH   8   9
ENDBRANCH   5   8
ENDBRANCH   3   5
ENDBRANCH   2   3
ENDBRANCH   1   2
BRANCH   1  15
ATOM     15  C   UNL     1     -35.833  25.891   3.458  0.00  0.00    +0.113 C 
BRANCH  15  18
ATOM     16  S   UNL     1     -39.180  26.055   1.307  0.00  0.00    -0.055 S 
ATOM     17  N   UNL     1     -37.825  24.561   2.925  0.00  0.00    -0.384 NA
ATOM     18  C   UNL     1     -37.133  25.731   2.740  0.00  0.00    +0.111 C 
ATOM     19  C   UNL     1     -37.693  26.664   1.907  0.00  0.00    +0.121 C 
ATOM     20  C   UNL     1     -38.929  24.620   2.213  0.00  0.00    +0.243 C 
BRANCH  20  21
ATOM     21  N   UNL     1     -39.876  23.650   2.135  0.00  0.00    -0.178 NA
BRANCH  21  24
ATOM     22  N   UNL     1     -39.996  21.238   2.247  0.00  0.00    -0.370 N 
ATOM     23  N   UNL     1     -38.446  22.260   0.924  0.00  0.00    -0.370 N 
ATOM     24  C   UNL     1     -39.485  22.441   1.807  0.00  0.00    +0.196 C 
ATOM     25  H   UNL     1     -40.746  21.225   2.885  0.00  0.00    +0.159 HD
ATOM     26  H   UNL     1     -39.612  20.392   1.923  0.00  0.00    +0.159 HD
ATOM     27  H   UNL     1     -37.991  23.041   0.534  0.00  0.00    +0.159 HD
ATOM     28  H   UNL     1     -38.157  21.351   0.682  0.00  0.00    +0.159 HD
ENDBRANCH  21  24
ENDBRANCH  20  21
ENDBRANCH  15  18
ENDBRANCH   1  15
TORSDOF 10
ENDMDL
MODEL 3
REMARK VINA RESULT:      -5.0      4.379      6.148
REMARK  Name = 5353622
REMARK  10 active torsions:
REMARK  status: ('A' for Active; 'I' for Inactive)
REMARK    1  A    between atoms: S_1  and  C_2
REMARK    2  A    between atoms: S_1  and  C_15
REMARK    3  A    between atoms: C_2  and  C_3
REMARK    4  A    between atoms: C_3  and  C_6
REMARK    5  A    between atoms: N_4  and  C_6
REMARK    6  A    between atoms: N_4  and  S_9
REMARK    7  A    between atoms: S_9  and  N_12
REMARK    8  A    between atoms: C_15  and  C_18
REMARK    9  A    between atoms: C_20  and  N_21
REMARK   10  A    between atoms: N_21  and  C_24
REMARK                            x       y       z     vdW  Elec       q    Type
REMARK                         _______ _______ _______ _____ _____    ______ ____
ROOT
ATOM      1  S   UNL     1     -34.905  26.145   1.173  0.00  0.00    -0.133 S 
ENDROOT
BRANCH   1   2
ATOM      2  C   UNL     1     -36.330  25.240   1.849  0.00  0.00    +0.066 C 
BRANCH   2   3
ATOM      3  C   UNL     1     -37.043  26.021   2.948  0.00  0.00    +0.074 C 
BRANCH   3   5
ATOM      4  N   UNL     1     -36.235  26.469   5.229  0.00  0.00    -0.387 N 
ATOM      5  C   UNL     1     -36.690  25.517   4.344  0.00  0.00    +0.122 C 
ATOM      6  H   UNL     1     -35.990  26.210   6.146  0.00  0.00    +0.157 HD
ATOM      7  H   UNL     1     -36.156  27.408   4.943  0.00  0.00    +0.157 HD
BRANCH   5   8
ATOM      8  N   UNL     1     -36.861  24.245   4.551  0.00  0.00    -0.074 NA
BRANCH   8   9
ATOM      9  S   UNL     1     -35.593  23.251   4.822  0.00  0.00    +0.127 S 
ATOM     10  O   UNL     1     -34.483  24.038   5.335  0.00  0.00    -0.137 OA
ATOM     11  O   UNL     1     -35.390  22.421   3.646  0.00  0.00    -0.137 OA
BRANCH   9  12
ATOM     12  N   UNL     1     -36.059  22.186   6.092  0.00  0.00    -0.189 NA
ATOM     13  H   UNL     1     -36.088  22.700   6.974  0.00  0.00    +0.146 HD
ATOM     14  H   UNL     1     -35.383  21.426   6.164  0.00  0.00    +0.146 HD
ENDBRANCH   9  12
ENDBRANCH   8   9
ENDBRANCH   5   8
ENDBRANCH   3   5
ENDBRANCH   2   3
ENDBRANCH   1   2
BRANCH   1  15
ATOM     15  C   UNL     1     -33.623  25.439   2.231  0.00  0.00    +0.113 C 
BRANCH  15  18
ATOM     16  S   UNL     1     -30.922  28.130   3.380  0.00  0.00    -0.055 S 
ATOM     17  N   UNL     1     -33.249  27.155   3.946  0.00  0.00    -0.384 NA
ATOM     18  C   UNL     1     -32.767  26.502   2.839  0.00  0.00    +0.111 C 
ATOM     19  C   UNL     1     -31.534  26.880   2.379  0.00  0.00    +0.121 C 
ATOM     20  C   UNL     1     -32.355  28.042   4.321  0.00  0.00    +0.243 C 
BRANCH  20  21
ATOM     21  N   UNL     1     -32.468  28.885   5.379  0.00  0.00    -0.178 NA
BRANCH  21  24
ATOM     22  N   UNL     1     -32.424  27.277   7.183  0.00  0.00    -0.370 N 
ATOM     23  N   UNL     1     -31.193  29.192   7.309  0.00  0.00    -0.370 N 
ATOM     24  C   UNL     1     -32.070  28.450   6.552  0.00  0.00    +0.196 C 
ATOM     25  H   UNL     1     -33.048  26.652   6.748  0.00  0.00    +0.159 HD
ATOM     26  H   UNL     1     -32.053  27.063   8.069  0.00  0.00    +0.159 HD
ATOM     27  H   UNL     1     -30.861  30.055   6.972  0.00  0.00    +0.159 HD
ATOM     28  H   UNL     1     -30.899  28.860   8.187  0.00  0.00    +0.159 HD
ENDBRANCH  21  24
ENDBRANCH  20  21
ENDBRANCH  15  18
ENDBRANCH   1  15
TORSDOF 10
ENDMDL
MODEL 4
REMARK VINA RESULT:      -5.0      2.896      4.419
REMARK  Name = 5353622
REMARK  10 active torsions:
REMARK  status: ('A' for Active; 'I' for Inactive)
REMARK    1  A    between atoms: S_1  and  C_2
REMARK    2  A    between atoms: S_1  and  C_15
REMARK    3  A    between atoms: C_2  and  C_3
REMARK    4  A    between atoms: C_3  and  C_6
REMARK    5  A    between atoms: N_4  and  C_6
REMARK    6  A    between atoms: N_4  and  S_9
REMARK    7  A    between atoms: S_9  and  N_12
REMARK    8  A    between atoms: C_15  and  C_18
REMARK    9  A    between atoms: C_20  and  N_21
REMARK   10  A    between atoms: N_21  and  C_24
REMARK                            x       y       z     vdW  Elec       q    Type
REMARK                         _______ _______ _______ _____ _____    ______ ____
ROOT
ATOM      1  S   UNL     1     -37.617  21.514   0.282  0.00  0.00    -0.133 S 
ENDROOT
BRANCH   1   2
ATOM      2  C   UNL     1     -39.112  22.420  -0.219  0.00  0.00    +0.066 C 
BRANCH   2   3
ATOM      3  C   UNL     1     -40.061  22.660   0.950  0.00  0.00    +0.074 C 
BRANCH   3   5
ATOM      4  N   UNL     1     -41.728  24.457   1.177  0.00  0.00    -0.387 N 
ATOM      5  C   UNL     1     -40.390  24.139   1.139  0.00  0.00    +0.122 C 
ATOM      6  H   UNL     1     -42.008  25.392   1.297  0.00  0.00    +0.157 HD
ATOM      7  H   UNL     1     -42.405  23.747   1.086  0.00  0.00    +0.157 HD
BRANCH   5   8
ATOM      8  N   UNL     1     -39.371  24.939   1.250  0.00  0.00    -0.074 NA
BRANCH   8   9
ATOM      9  S   UNL     1     -39.211  25.937   2.533  0.00  0.00    +0.127 S 
ATOM     10  O   UNL     1     -40.402  26.765   2.633  0.00  0.00    -0.137 OA
ATOM     11  O   UNL     1     -37.906  26.576   2.469  0.00  0.00    -0.137 OA
BRANCH   9  12
ATOM     12  N   UNL     1     -39.194  24.941   3.938  0.00  0.00    -0.189 NA
ATOM     13  H   UNL     1     -39.868  25.299   4.616  0.00  0.00    +0.146 HD
ATOM     14  H   UNL     1     -38.261  24.949   4.350  0.00  0.00    +0.146 HD
ENDBRANCH   9  12
ENDBRANCH   8   9
ENDBRANCH   5   8
ENDBRANCH   3   5
ENDBRANCH   2   3
ENDBRANCH   1   2
BRANCH   1  15
ATOM     15  C   UNL     1     -37.773  21.725   2.070  0.00  0.00    +0.113 C 
BRANCH  15  18
ATOM     16  S   UNL     1     -34.851  24.310   2.871  0.00  0.00    -0.055 S 
ATOM     17  N   UNL     1     -36.799  22.986   3.937  0.00  0.00    -0.384 NA
ATOM     18  C   UNL     1     -36.758  22.685   2.599  0.00  0.00    +0.111 C 
ATOM     19  C   UNL     1     -35.784  23.294   1.852  0.00  0.00    +0.121 C 
ATOM     20  C   UNL     1     -35.834  23.839   4.197  0.00  0.00    +0.243 C 
BRANCH  20  21
ATOM     21  N   UNL     1     -35.552  24.373   5.413  0.00  0.00    -0.178 NA
BRANCH  21  24
ATOM     22  N   UNL     1     -34.369  26.440   5.829  0.00  0.00    -0.370 N 
ATOM     23  N   UNL     1     -36.575  26.464   5.253  0.00  0.00    -0.370 N 
ATOM     24  C   UNL     1     -35.472  25.680   5.501  0.00  0.00    +0.196 C 
ATOM     25  H   UNL     1     -33.511  26.001   6.031  0.00  0.00    +0.159 HD
ATOM     26  H   UNL     1     -34.438  27.421   5.862  0.00  0.00    +0.159 HD
ATOM     27  H   UNL     1     -37.431  26.045   5.008  0.00  0.00    +0.159 HD
ATOM     28  H   UNL     1     -36.508  27.444   5.322  0.00  0.00    +0.159 HD
ENDBRANCH  21  24
ENDBRANCH  20  21
ENDBRANCH  15  18
ENDBRANCH   1  15
TORSDOF 10
ENDMDL
MODEL 5
REMARK VINA RESULT:      -5.0      2.069      2.826
REMARK  Name = 5353622
REMARK  10 active torsions:
REMARK  status: ('A' for Active; 'I' for Inactive)
REMARK    1  A    between atoms: S_1  and  C_2
REMARK    2  A    between atoms: S_1  and  C_15
REMARK    3  A    between atoms: C_2  and  C_3
REMARK    4  A    between atoms: C_3  and  C_6
REMARK    5  A    between atoms: N_4  and  C_6
REMARK    6  A    between atoms: N_4  and  S_9
REMARK    7  A    between atoms: S_9  and  N_12
REMARK    8  A    between atoms: C_15  and  C_18
REMARK    9  A    between atoms: C_20  and  N_21
REMARK   10  A    between atoms: N_21  and  C_24
REMARK                            x       y       z     vdW  Elec       q    Type
REMARK                         _______ _______ _______ _____ _____    ______ ____
ROOT
ATOM      1  S   UNL     1     -34.318  27.000   0.950  0.00  0.00    -0.133 S 
ENDROOT
BRANCH   1   2
ATOM      2  C   UNL     1     -35.992  26.370   0.620  0.00  0.00    +0.066 C 
BRANCH   2   3
ATOM      3  C   UNL     1     -37.061  27.135   1.394  0.00  0.00    +0.074 C 
BRANCH   3   5
ATOM      4  N   UNL     1     -37.474  26.331   3.683  0.00  0.00    -0.387 N 
ATOM      5  C   UNL     1     -37.834  26.239   2.358  0.00  0.00    +0.122 C 
ATOM      6  H   UNL     1     -37.933  25.781   4.358  0.00  0.00    +0.157 HD
ATOM      7  H   UNL     1     -36.756  26.949   3.956  0.00  0.00    +0.157 HD
BRANCH   5   8
ATOM      8  N   UNL     1     -38.753  25.490   1.827  0.00  0.00    -0.074 NA
BRANCH   8   9
ATOM      9  S   UNL     1     -39.335  24.178   2.607  0.00  0.00    +0.127 S 
ATOM     10  O   UNL     1     -40.054  23.348   1.655  0.00  0.00    -0.137 OA
ATOM     11  O   UNL     1     -40.011  24.615   3.819  0.00  0.00    -0.137 OA
BRANCH   9  12
ATOM     12  N   UNL     1     -37.972  23.258   3.118  0.00  0.00    -0.189 NA
ATOM     13  H   UNL     1     -37.695  22.618   2.374  0.00  0.00    +0.146 HD
ATOM     14  H   UNL     1     -38.215  22.724   3.952  0.00  0.00    +0.146 HD
ENDBRANCH   9  12
ENDBRANCH   8   9
ENDBRANCH   5   8
ENDBRANCH   3   5
ENDBRANCH   2   3
ENDBRANCH   1   2
BRANCH   1  15
ATOM     15  C   UNL     1     -33.623  25.511   1.700  0.00  0.00    +0.113 C 
BRANCH  15  18
ATOM     16  S   UNL     1     -34.411  25.717   5.598  0.00  0.00    -0.055 S 
ATOM     17  N   UNL     1     -34.750  24.262   3.487  0.00  0.00    -0.384 NA
ATOM     18  C   UNL     1     -34.032  25.376   3.130  0.00  0.00    +0.111 C 
ATOM     19  C   UNL     1     -33.747  26.279   4.120  0.00  0.00    +0.121 C 
ATOM     20  C   UNL     1     -35.008  24.334   4.775  0.00  0.00    +0.243 C 
BRANCH  20  21
ATOM     21  N   UNL     1     -35.699  23.417   5.498  0.00  0.00    -0.178 NA
BRANCH  21  24
ATOM     22  N   UNL     1     -35.756  21.388   4.186  0.00  0.00    -0.370 N 
ATOM     23  N   UNL     1     -34.754  21.415   6.234  0.00  0.00    -0.370 N 
ATOM     24  C   UNL     1     -35.433  22.149   5.289  0.00  0.00    +0.196 C 
ATOM     25  H   UNL     1     -36.245  21.794   3.433  0.00  0.00    +0.159 HD
ATOM     26  H   UNL     1     -35.498  20.439   4.150  0.00  0.00    +0.159 HD
ATOM     27  H   UNL     1     -34.464  21.841   7.073  0.00  0.00    +0.159 HD
ATOM     28  H   UNL     1     -34.558  20.464   6.071  0.00  0.00    +0.159 HD
ENDBRANCH  21  24
ENDBRANCH  20  21
ENDBRANCH  15  18
ENDBRANCH   1  15
TORSDOF 10
ENDMDL
MODEL 6
REMARK VINA RESULT:      -4.9      4.953      6.875
REMARK  Name = 5353622
REMARK  10 active torsions:
REMARK  status: ('A' for Active; 'I' for Inactive)
REMARK    1  A    between atoms: S_1  and  C_2
REMARK    2  A    between atoms: S_1  and  C_15
REMARK    3  A    between atoms: C_2  and  C_3
REMARK    4  A    between atoms: C_3  and  C_6
REMARK    5  A    between atoms: N_4  and  C_6
REMARK    6  A    between atoms: N_4  and  S_9
REMARK    7  A    between atoms: S_9  and  N_12
REMARK    8  A    between atoms: C_15  and  C_18
REMARK    9  A    between atoms: C_20  and  N_21
REMARK   10  A    between atoms: N_21  and  C_24
REMARK                            x       y       z     vdW  Elec       q    Type
REMARK                         _______ _______ _______ _____ _____    ______ ____
ROOT
ATOM      1  S   UNL     1     -35.326  26.339   3.824  0.00  0.00    -0.133 S 
ENDROOT
BRANCH   1   2
ATOM      2  C   UNL     1     -35.867  25.382   5.273  0.00  0.00    +0.066 C 
BRANCH   2   3
ATOM      3  C   UNL     1     -35.048  24.110   5.464  0.00  0.00    +0.074 C 
BRANCH   3   5
ATOM      4  N   UNL     1     -35.928  21.976   6.319  0.00  0.00    -0.387 N 
ATOM      5  C   UNL     1     -35.879  22.846   5.254  0.00  0.00    +0.122 C 
ATOM      6  H   UNL     1     -36.446  21.143   6.250  0.00  0.00    +0.157 HD
ATOM      7  H   UNL     1     -35.445  22.189   7.151  0.00  0.00    +0.157 HD
BRANCH   5   8
ATOM      8  N   UNL     1     -36.455  22.729   4.095  0.00  0.00    -0.074 NA
BRANCH   8   9
ATOM      9  S   UNL     1     -35.949  21.624   3.003  0.00  0.00    +0.127 S 
ATOM     10  O   UNL     1     -35.180  20.602   3.695  0.00  0.00    -0.137 OA
ATOM     11  O   UNL     1     -35.352  22.320   1.875  0.00  0.00    -0.137 OA
BRANCH   9  12
ATOM     12  N   UNL     1     -37.359  20.841   2.398  0.00  0.00    -0.189 NA
ATOM     13  H   UNL     1     -37.809  20.321   3.152  0.00  0.00    +0.146 HD
ATOM     14  H   UNL     1     -37.097  20.198   1.651  0.00  0.00    +0.146 HD
ENDBRANCH   9  12
ENDBRANCH   8   9
ENDBRANCH   5   8
ENDBRANCH   3   5
ENDBRANCH   2   3
ENDBRANCH   1   2
BRANCH   1  15
ATOM     15  C   UNL     1     -33.543  26.212   4.080  0.00  0.00    +0.113 C 
BRANCH  15  18
ATOM     16  S   UNL     1     -32.189  29.949   4.331  0.00  0.00    -0.055 S 
ATOM     17  N   UNL     1     -32.228  27.671   5.553  0.00  0.00    -0.384 NA
ATOM     18  C   UNL     1     -32.937  27.544   4.385  0.00  0.00    +0.111 C 
ATOM     19  C   UNL     1     -33.032  28.654   3.588  0.00  0.00    +0.121 C 
ATOM     20  C   UNL     1     -31.783  28.906   5.632  0.00  0.00    +0.243 C 
BRANCH  20  21
ATOM     21  N   UNL     1     -31.039  29.418   6.644  0.00  0.00    -0.178 NA
BRANCH  21  24
ATOM     22  N   UNL     1     -28.678  29.918   6.503  0.00  0.00    -0.370 N 
ATOM     23  N   UNL     1     -29.389  27.798   6.954  0.00  0.00    -0.370 N 
ATOM     24  C   UNL     1     -29.768  29.094   6.691  0.00  0.00    +0.196 C 
ATOM     25  H   UNL     1     -28.810  30.874   6.307  0.00  0.00    +0.159 HD
ATOM     26  H   UNL     1     -27.767  29.550   6.565  0.00  0.00    +0.159 HD
ATOM     27  H   UNL     1     -30.072  27.107   7.108  0.00  0.00    +0.159 HD
ATOM     28  H   UNL     1     -28.433  27.562   6.988  0.00  0.00    +0.159 HD
ENDBRANCH  21  24
ENDBRANCH  20  21
ENDBRANCH  15  18
ENDBRANCH   1  15
TORSDOF 10
ENDMDL
MODEL 7
REMARK VINA RESULT:      -4.9      2.540      3.493
REMARK  Name = 5353622
REMARK  10 active torsions:
REMARK  status: ('A' for Active; 'I' for Inactive)
REMARK    1  A    between atoms: S_1  and  C_2
REMARK    2  A    between atoms: S_1  and  C_15
REMARK    3  A    between atoms: C_2  and  C_3
REMARK    4  A    between atoms: C_3  and  C_6
REMARK    5  A    between atoms: N_4  and  C_6
REMARK    6  A    between atoms: N_4  and  S_9
REMARK    7  A    between atoms: S_9  and  N_12
REMARK    8  A    between atoms: C_15  and  C_18
REMARK    9  A    between atoms: C_20  and  N_21
REMARK   10  A    between atoms: N_21  and  C_24
REMARK                            x       y       z     vdW  Elec       q    Type
REMARK                         _______ _______ _______ _____ _____    ______ ____
ROOT
ATOM      1  S   UNL     1     -36.673  25.825   0.742  0.00  0.00    -0.133 S 
ENDROOT
BRANCH   1   2
ATOM      2  C   UNL     1     -36.674  24.011   0.604  0.00  0.00    +0.066 C 
BRANCH   2   3
ATOM      3  C   UNL     1     -38.083  23.443   0.465  0.00  0.00    +0.074 C 
BRANCH   3   5
ATOM      4  N   UNL     1     -38.534  22.134   2.500  0.00  0.00    -0.387 N 
ATOM      5  C   UNL     1     -38.236  22.091   1.157  0.00  0.00    +0.122 C 
ATOM      6  H   UNL     1     -38.646  21.298   3.006  0.00  0.00    +0.157 HD
ATOM      7  H   UNL     1     -38.635  23.003   2.953  0.00  0.00    +0.157 HD
BRANCH   5   8
ATOM      8  N   UNL     1     -38.075  21.044   0.404  0.00  0.00    -0.074 NA
BRANCH   8   9
ATOM      9  S   UNL     1     -36.863  19.982   0.674  0.00  0.00    +0.127 S 
ATOM     10  O   UNL     1     -35.598  20.628   0.365  0.00  0.00    -0.137 OA
ATOM     11  O   UNL     1     -37.192  18.722   0.027  0.00  0.00    -0.137 OA
BRANCH   9  12
ATOM     12  N   UNL     1     -36.845  19.668   2.367  0.00  0.00    -0.189 NA
ATOM     13  H   UNL     1     -37.795  19.732   2.735  0.00  0.00    +0.146 HD
ATOM     14  H   UNL     1     -36.253  20.354   2.834  0.00  0.00    +0.146 HD
ENDBRANCH   9  12
ENDBRANCH   8   9
ENDBRANCH   5   8
ENDBRANCH   3   5
ENDBRANCH   2   3
ENDBRANCH   1   2
BRANCH   1  15
ATOM     15  C   UNL     1     -37.565  25.966   2.306  0.00  0.00    +0.113 C 
BRANCH  15  18
ATOM     16  S   UNL     1     -34.971  25.573   5.302  0.00  0.00    -0.055 S 
ATOM     17  N   UNL     1     -36.912  24.389   4.070  0.00  0.00    -0.384 NA
ATOM     18  C   UNL     1     -36.697  25.603   3.467  0.00  0.00    +0.111 C 
ATOM     19  C   UNL     1     -35.698  26.388   3.980  0.00  0.00    +0.121 C 
ATOM     20  C   UNL     1     -36.053  24.264   5.058  0.00  0.00    +0.243 C 
BRANCH  20  21
ATOM     21  N   UNL     1     -35.953  23.198   5.893  0.00  0.00    -0.178 NA
BRANCH  21  24
ATOM     22  N   UNL     1     -35.566  21.568   4.150  0.00  0.00    -0.370 N 
ATOM     23  N   UNL     1     -34.608  21.318   6.204  0.00  0.00    -0.370 N 
ATOM     24  C   UNL     1     -35.421  22.098   5.415  0.00  0.00    +0.196 C 
ATOM     25  H   UNL     1     -36.125  22.030   3.484  0.00  0.00    +0.159 HD
ATOM     26  H   UNL     1     -35.111  20.728   3.913  0.00  0.00    +0.159 HD
ATOM     27  H   UNL     1     -34.422  21.585   7.133  0.00  0.00    +0.159 HD
ATOM     28  H   UNL     1     -34.212  20.493   5.840  0.00  0.00    +0.159 HD
ENDBRANCH  21  24
ENDBRANCH  20  21
ENDBRANCH  15  18
ENDBRANCH   1  15
TORSDOF 10
ENDMDL
MODEL 8
REMARK VINA RESULT:      -4.9      3.525      4.729
REMARK  Name = 5353622
REMARK  10 active torsions:
REMARK  status: ('A' for Active; 'I' for Inactive)
REMARK    1  A    between atoms: S_1  and  C_2
REMARK    2  A    between atoms: S_1  and  C_15
REMARK    3  A    between atoms: C_2  and  C_3
REMARK    4  A    between atoms: C_3  and  C_6
REMARK    5  A    between atoms: N_4  and  C_6
REMARK    6  A    between atoms: N_4  and  S_9
REMARK    7  A    between atoms: S_9  and  N_12
REMARK    8  A    between atoms: C_15  and  C_18
REMARK    9  A    between atoms: C_20  and  N_21
REMARK   10  A    between atoms: N_21  and  C_24
REMARK                            x       y       z     vdW  Elec       q    Type
REMARK                         _______ _______ _______ _____ _____    ______ ____
ROOT
ATOM      1  S   UNL     1     -38.786  24.694   1.965  0.00  0.00    -0.133 S 
ENDROOT
BRANCH   1   2
ATOM      2  C   UNL     1     -40.438  25.078   2.620  0.00  0.00    +0.066 C 
BRANCH   2   3
ATOM      3  C   UNL     1     -41.416  25.484   1.522  0.00  0.00    +0.074 C 
BRANCH   3   5
ATOM      4  N   UNL     1     -43.488  26.787   1.266  0.00  0.00    -0.387 N 
ATOM      5  C   UNL     1     -42.286  26.671   1.926  0.00  0.00    +0.122 C 
ATOM      6  H   UNL     1     -44.096  27.531   1.479  0.00  0.00    +0.157 HD
ATOM      7  H   UNL     1     -43.739  26.125   0.581  0.00  0.00    +0.157 HD
BRANCH   5   8
ATOM      8  N   UNL     1     -41.802  27.443   2.853  0.00  0.00    -0.074 NA
BRANCH   8   9
ATOM      9  S   UNL     1     -42.780  28.307   3.835  0.00  0.00    +0.127 S 
ATOM     10  O   UNL     1     -41.970  28.941   4.863  0.00  0.00    -0.137 OA
ATOM     11  O   UNL     1     -43.902  27.470   4.232  0.00  0.00    -0.137 OA
BRANCH   9  12
ATOM     12  N   UNL     1     -43.440  29.582   2.884  0.00  0.00    -0.189 NA
ATOM     13  H   UNL     1     -42.807  29.791   2.111  0.00  0.00    +0.146 HD
ATOM     14  H   UNL     1     -43.555  30.413   3.463  0.00  0.00    +0.146 HD
ENDBRANCH   9  12
ENDBRANCH   8   9
ENDBRANCH   5   8
ENDBRANCH   3   5
ENDBRANCH   2   3
ENDBRANCH   1   2
BRANCH   1  15
ATOM     15  C   UNL     1     -37.902  26.119   2.637  0.00  0.00    +0.113 C 
BRANCH  15  18
ATOM     16  S   UNL     1     -34.764  25.539   5.018  0.00  0.00    -0.055 S 
ATOM     17  N   UNL     1     -37.040  24.540   4.306  0.00  0.00    -0.384 NA
ATOM     18  C   UNL     1     -36.841  25.701   3.601  0.00  0.00    +0.111 C 
ATOM     19  C   UNL     1     -35.679  26.385   3.840  0.00  0.00    +0.121 C 
ATOM     20  C   UNL     1     -36.002  24.353   5.091  0.00  0.00    +0.243 C 
BRANCH  20  21
ATOM     21  N   UNL     1     -35.830  23.311   5.944  0.00  0.00    -0.178 NA
BRANCH  21  24
ATOM     22  N   UNL     1     -34.752  21.149   6.038  0.00  0.00    -0.370 N 
ATOM     23  N   UNL     1     -35.823  21.829   4.143  0.00  0.00    -0.370 N 
ATOM     24  C   UNL     1     -35.474  22.156   5.432  0.00  0.00    +0.196 C 
ATOM     25  H   UNL     1     -34.439  21.256   6.965  0.00  0.00    +0.159 HD
ATOM     26  H   UNL     1     -34.548  20.323   5.542  0.00  0.00    +0.159 HD
ATOM     27  H   UNL     1     -36.342  22.463   3.598  0.00  0.00    +0.159 HD
ATOM     28  H   UNL     1     -35.553  20.961   3.765  0.00  0.00    +0.159 HD
ENDBRANCH  21  24
ENDBRANCH  20  21
ENDBRANCH  15  18
ENDBRANCH   1  15
TORSDOF 10
ENDMDL
MODEL 9
REMARK VINA RESULT:      -4.9      6.410      8.085
REMARK  Name = 5353622
REMARK  10 active torsions:
REMARK  status: ('A' for Active; 'I' for Inactive)
REMARK    1  A    between atoms: S_1  and  C_2
REMARK    2  A    between atoms: S_1  and  C_15
REMARK    3  A    between atoms: C_2  and  C_3
REMARK    4  A    between atoms: C_3  and  C_6
REMARK    5  A    between atoms: N_4  and  C_6
REMARK    6  A    between atoms: N_4  and  S_9
REMARK    7  A    between atoms: S_9  and  N_12
REMARK    8  A    between atoms: C_15  and  C_18
REMARK    9  A    between atoms: C_20  and  N_21
REMARK   10  A    between atoms: N_21  and  C_24
REMARK                            x       y       z     vdW  Elec       q    Type
REMARK                         _______ _______ _______ _____ _____    ______ ____
ROOT
ATOM      1  S   UNL     1     -32.676  27.828   2.408  0.00  0.00    -0.133 S 
ENDROOT
BRANCH   1   2
ATOM      2  C   UNL     1     -31.462  28.254   3.693  0.00  0.00    +0.066 C 
BRANCH   2   3
ATOM      3  C   UNL     1     -32.094  29.009   4.858  0.00  0.00    +0.074 C 
BRANCH   3   5
ATOM      4  N   UNL     1     -31.736  28.824   7.286  0.00  0.00    -0.387 N 
ATOM      5  C   UNL     1     -31.165  29.101   6.065  0.00  0.00    +0.122 C 
ATOM      6  H   UNL     1     -31.192  28.865   8.105  0.00  0.00    +0.157 HD
ATOM      7  H   UNL     1     -32.690  28.583   7.339  0.00  0.00    +0.157 HD
BRANCH   5   8
ATOM      8  N   UNL     1     -29.932  29.425   5.812  0.00  0.00    -0.074 NA
BRANCH   8   9
ATOM      9  S   UNL     1     -28.704  28.893   6.749  0.00  0.00    +0.127 S 
ATOM     10  O   UNL     1     -28.786  29.549   8.043  0.00  0.00    -0.137 OA
ATOM     11  O   UNL     1     -27.466  28.975   5.989  0.00  0.00    -0.137 OA
BRANCH   9  12
ATOM     12  N   UNL     1     -28.987  27.219   7.035  0.00  0.00    -0.189 NA
ATOM     13  H   UNL     1     -28.724  26.989   7.994  0.00  0.00    +0.146 HD
ATOM     14  H   UNL     1     -28.427  26.663   6.388  0.00  0.00    +0.146 HD
ENDBRANCH   9  12
ENDBRANCH   8   9
ENDBRANCH   5   8
ENDBRANCH   3   5
ENDBRANCH   2   3
ENDBRANCH   1   2
BRANCH   1  15
ATOM     15  C   UNL     1     -32.813  26.060   2.756  0.00  0.00    +0.113 C 
BRANCH  15  18
ATOM     16  S   UNL     1     -35.887  25.906   5.283  0.00  0.00    -0.055 S 
ATOM     17  N   UNL     1     -33.859  24.567   4.400  0.00  0.00    -0.384 NA
ATOM     18  C   UNL     1     -33.884  25.781   3.759  0.00  0.00    +0.111 C 
ATOM     19  C   UNL     1     -34.895  26.643   4.094  0.00  0.00    +0.121 C 
ATOM     20  C   UNL     1     -34.876  24.521   5.232  0.00  0.00    +0.243 C 
BRANCH  20  21
ATOM     21  N   UNL     1     -35.188  23.480   6.046  0.00  0.00    -0.178 NA
BRANCH  21  24
ATOM     22  N   UNL     1     -35.251  21.069   5.878  0.00  0.00    -0.370 N 
ATOM     23  N   UNL     1     -36.345  22.366   4.354  0.00  0.00    -0.370 N 
ATOM     24  C   UNL     1     -35.557  22.354   5.482  0.00  0.00    +0.196 C 
ATOM     25  H   UNL     1     -34.692  20.919   6.674  0.00  0.00    +0.159 HD
ATOM     26  H   UNL     1     -35.592  20.302   5.365  0.00  0.00    +0.159 HD
ATOM     27  H   UNL     1     -36.635  23.223   3.966  0.00  0.00    +0.159 HD
ATOM     28  H   UNL     1     -36.618  21.518   3.935  0.00  0.00    +0.159 HD
ENDBRANCH  21  24
ENDBRANCH  20  21
ENDBRANCH  15  18
ENDBRANCH   1  15
TORSDOF 10
ENDMDL
