MODEL 1
REMARK VINA RESULT:      -6.9      0.000      0.000
REMARK  Name = 54676301
REMARK  3 active torsions:
REMARK  status: ('A' for Active; 'I' for Inactive)
REMARK    1  A    between atoms: C_7  and  C_17
REMARK    2  A    between atoms: C_8  and  O_26
REMARK    3  A    between atoms: C_21  and  O_24
REMARK                            x       y       z     vdW  Elec       q    Type
REMARK                         _______ _______ _______ _____ _____    ______ ____
ROOT
ATOM      1  S   UNL     1     -37.341  23.532   2.066  0.00  0.00    +0.077 S 
ATOM      2  O   UNL     1     -37.457  24.742   1.275  0.00  0.00    -0.150 OA
ATOM      3  O   UNL     1     -38.511  22.746   2.409  0.00  0.00    -0.150 OA
ATOM      4  N   UNL     1     -36.131  22.511   1.375  0.00  0.00    -0.181 N 
ATOM      5  C   UNL     1     -36.565  23.946   3.587  0.00  0.00    +0.128 C 
ATOM      6  C   UNL     1     -35.748  22.976   4.180  0.00  0.00    +0.054 C 
ATOM      7  C   UNL     1     -35.742  21.421   2.235  0.00  0.00    +0.156 C 
ATOM      8  C   UNL     1     -35.562  21.645   3.554  0.00  0.00    +0.154 C 
ATOM      9  C   UNL     1     -36.759  25.209   4.142  0.00  0.00    +0.020 C 
ATOM     10  C   UNL     1     -34.999  23.191   0.681  0.00  0.00    +0.139 C 
ATOM     11  C   UNL     1     -35.128  23.313   5.391  0.00  0.00    +0.004 C 
ATOM     12  C   UNL     1     -36.129  25.520   5.343  0.00  0.00    +0.001 C 
ATOM     13  C   UNL     1     -35.317  24.575   5.967  0.00  0.00    +0.000 C 
ENDROOT
BRANCH   7  17
ATOM     14  O   UNL     1     -36.456  19.552   1.038  0.00  0.00    -0.268 OA
ATOM     15  N   UNL     1     -34.179  19.763   1.601  0.00  0.00    -0.265 N 
ATOM     16  N   UNL     1     -32.268  18.403   1.205  0.00  0.00    -0.226 NA
ATOM     17  C   UNL     1     -35.512  20.143   1.556  0.00  0.00    +0.269 C 
ATOM     18  C   UNL     1     -33.598  18.594   1.054  0.00  0.00    +0.135 C 
ATOM     19  C   UNL     1     -34.437  17.713   0.391  0.00  0.00    +0.038 C 
ATOM     20  C   UNL     1     -33.876  16.561  -0.149  0.00  0.00    +0.041 C 
ATOM     21  C   UNL     1     -32.511  16.329  -0.013  0.00  0.00    +0.153 C 
ATOM     22  C   UNL     1     -31.759  17.272   0.667  0.00  0.00    +0.137 C 
ATOM     23  H   UNL     1     -33.567  20.376   2.068  0.00  0.00    +0.157 HD
BRANCH  21  24
ATOM     24  O   UNL     1     -31.937  15.215  -0.530  0.00  0.00    -0.504 OA
ATOM     25  H   UNL     1     -32.333  14.777  -1.256  0.00  0.00    +0.292 HD
ENDBRANCH  21  24
ENDBRANCH   7  17
BRANCH   8  26
ATOM     26  O   UNL     1     -35.171  20.667   4.449  0.00  0.00    -0.504 OA
ATOM     27  H   UNL     1     -34.304  20.314   4.406  0.00  0.00    +0.292 HD
ENDBRANCH   8  26
TORSDOF 3
ENDMDL
MODEL 2
REMARK VINA RESULT:      -6.7      4.449      8.326
REMARK  Name = 54676301
REMARK  3 active torsions:
REMARK  status: ('A' for Active; 'I' for Inactive)
REMARK    1  A    between atoms: C_7  and  C_17
REMARK    2  A    between atoms: C_8  and  O_26
REMARK    3  A    between atoms: C_21  and  O_24
REMARK                            x       y       z     vdW  Elec       q    Type
REMARK                         _______ _______ _______ _____ _____    ______ ____
ROOT
ATOM      1  S   UNL     1     -35.574  22.541   3.237  0.00  0.00    +0.077 S 
ATOM      2  O   UNL     1     -35.241  21.638   2.152  0.00  0.00    -0.150 OA
ATOM      3  O   UNL     1     -35.484  22.117   4.621  0.00  0.00    -0.150 OA
ATOM      4  N   UNL     1     -34.722  24.029   3.024  0.00  0.00    -0.181 N 
ATOM      5  C   UNL     1     -37.225  23.094   3.000  0.00  0.00    +0.128 C 
ATOM      6  C   UNL     1     -37.540  24.389   3.426  0.00  0.00    +0.054 C 
ATOM      7  C   UNL     1     -35.194  25.086   3.883  0.00  0.00    +0.156 C 
ATOM      8  C   UNL     1     -36.520  25.253   4.068  0.00  0.00    +0.154 C 
ATOM      9  C   UNL     1     -38.154  22.255   2.388  0.00  0.00    +0.020 C 
ATOM     10  C   UNL     1     -34.445  24.445   1.618  0.00  0.00    +0.139 C 
ATOM     11  C   UNL     1     -38.858  24.827   3.231  0.00  0.00    +0.004 C 
ATOM     12  C   UNL     1     -39.455  22.715   2.203  0.00  0.00    +0.001 C 
ATOM     13  C   UNL     1     -39.806  23.996   2.624  0.00  0.00    +0.000 C 
ENDROOT
BRANCH   7  17
ATOM     14  O   UNL     1     -33.330  25.477   5.228  0.00  0.00    -0.268 OA
ATOM     15  N   UNL     1     -34.240  27.249   3.973  0.00  0.00    -0.265 N 
ATOM     16  N   UNL     1     -33.660  29.543   3.731  0.00  0.00    -0.226 NA
ATOM     17  C   UNL     1     -34.148  25.948   4.442  0.00  0.00    +0.269 C 
ATOM     18  C   UNL     1     -33.403  28.344   4.298  0.00  0.00    +0.135 C 
ATOM     19  C   UNL     1     -32.365  28.112   5.185  0.00  0.00    +0.038 C 
ATOM     20  C   UNL     1     -31.537  29.181   5.513  0.00  0.00    +0.041 C 
ATOM     21  C   UNL     1     -31.770  30.431   4.949  0.00  0.00    +0.153 C 
ATOM     22  C   UNL     1     -32.835  30.558   4.073  0.00  0.00    +0.137 C 
ATOM     23  H   UNL     1     -34.972  27.434   3.341  0.00  0.00    +0.157 HD
BRANCH  21  24
ATOM     24  O   UNL     1     -30.980  31.492   5.250  0.00  0.00    -0.504 OA
ATOM     25  H   UNL     1     -31.090  32.301   4.794  0.00  0.00    +0.292 HD
ENDBRANCH  21  24
ENDBRANCH   7  17
BRANCH   8  26
ATOM     26  O   UNL     1     -37.062  26.250   4.857  0.00  0.00    -0.504 OA
ATOM     27  H   UNL     1     -37.099  26.142   5.787  0.00  0.00    +0.292 HD
ENDBRANCH   8  26
TORSDOF 3
ENDMDL
MODEL 3
REMARK VINA RESULT:      -6.7      2.728      3.374
REMARK  Name = 54676301
REMARK  3 active torsions:
REMARK  status: ('A' for Active; 'I' for Inactive)
REMARK    1  A    between atoms: C_7  and  C_17
REMARK    2  A    between atoms: C_8  and  O_26
REMARK    3  A    between atoms: C_21  and  O_24
REMARK                            x       y       z     vdW  Elec       q    Type
REMARK                         _______ _______ _______ _____ _____    ______ ____
ROOT
ATOM      1  S   UNL     1     -37.759  24.095   2.470  0.00  0.00    +0.077 S 
ATOM      2  O   UNL     1     -37.901  25.334   1.730  0.00  0.00    -0.150 OA
ATOM      3  O   UNL     1     -38.913  23.417   3.027  0.00  0.00    -0.150 OA
ATOM      4  N   UNL     1     -36.815  22.982   1.544  0.00  0.00    -0.181 N 
ATOM      5  C   UNL     1     -36.664  24.385   3.813  0.00  0.00    +0.128 C 
ATOM      6  C   UNL     1     -35.851  23.322   4.224  0.00  0.00    +0.054 C 
ATOM      7  C   UNL     1     -36.380  21.834   2.300  0.00  0.00    +0.156 C 
ATOM      8  C   UNL     1     -35.926  21.999   3.559  0.00  0.00    +0.154 C 
ATOM      9  C   UNL     1     -36.617  25.643   4.409  0.00  0.00    +0.020 C 
ATOM     10  C   UNL     1     -35.776  23.569   0.648  0.00  0.00    +0.139 C 
ATOM     11  C   UNL     1     -34.975  23.560   5.294  0.00  0.00    +0.004 C 
ATOM     12  C   UNL     1     -35.737  25.854   5.467  0.00  0.00    +0.001 C 
ATOM     13  C   UNL     1     -34.920  24.816   5.909  0.00  0.00    +0.000 C 
ENDROOT
BRANCH   7  17
ATOM     14  O   UNL     1     -35.479  19.775   1.680  0.00  0.00    -0.268 OA
ATOM     15  N   UNL     1     -37.578  20.420   0.830  0.00  0.00    -0.265 N 
ATOM     16  N   UNL     1     -39.133  19.379  -0.639  0.00  0.00    -0.226 NA
ATOM     17  C   UNL     1     -36.417  20.560   1.575  0.00  0.00    +0.269 C 
ATOM     18  C   UNL     1     -37.949  19.326   0.012  0.00  0.00    +0.135 C 
ATOM     19  C   UNL     1     -37.066  18.261  -0.071  0.00  0.00    +0.038 C 
ATOM     20  C   UNL     1     -37.421  17.182  -0.873  0.00  0.00    +0.041 C 
ATOM     21  C   UNL     1     -38.630  17.200  -1.558  0.00  0.00    +0.153 C 
ATOM     22  C   UNL     1     -39.443  18.312  -1.409  0.00  0.00    +0.137 C 
ATOM     23  H   UNL     1     -38.218  21.166   0.875  0.00  0.00    +0.157 HD
BRANCH  21  24
ATOM     24  O   UNL     1     -39.002  16.162  -2.348  0.00  0.00    -0.504 OA
ATOM     25  H   UNL     1     -38.379  15.502  -2.579  0.00  0.00    +0.292 HD
ENDBRANCH  21  24
ENDBRANCH   7  17
BRANCH   8  26
ATOM     26  O   UNL     1     -35.470  20.961   4.350  0.00  0.00    -0.504 OA
ATOM     27  H   UNL     1     -35.975  20.678   5.087  0.00  0.00    +0.292 HD
ENDBRANCH   8  26
TORSDOF 3
ENDMDL
MODEL 4
REMARK VINA RESULT:      -6.5      6.359      8.861
REMARK  Name = 54676301
REMARK  3 active torsions:
REMARK  status: ('A' for Active; 'I' for Inactive)
REMARK    1  A    between atoms: C_7  and  C_17
REMARK    2  A    between atoms: C_8  and  O_26
REMARK    3  A    between atoms: C_21  and  O_24
REMARK                            x       y       z     vdW  Elec       q    Type
REMARK                         _______ _______ _______ _____ _____    ______ ____
ROOT
ATOM      1  S   UNL     1     -34.723  31.037   2.512  0.00  0.00    +0.077 S 
ATOM      2  O   UNL     1     -35.279  31.398   1.222  0.00  0.00    -0.150 OA
ATOM      3  O   UNL     1     -35.524  31.105   3.719  0.00  0.00    -0.150 OA
ATOM      4  N   UNL     1     -33.968  29.488   2.396  0.00  0.00    -0.181 N 
ATOM      5  C   UNL     1     -33.314  32.047   2.800  0.00  0.00    +0.128 C 
ATOM      6  C   UNL     1     -32.262  31.492   3.538  0.00  0.00    +0.054 C 
ATOM      7  C   UNL     1     -33.147  29.165   3.536  0.00  0.00    +0.156 C 
ATOM      8  C   UNL     1     -32.345  30.110   4.068  0.00  0.00    +0.154 C 
ATOM      9  C   UNL     1     -33.271  33.339   2.280  0.00  0.00    +0.020 C 
ATOM     10  C   UNL     1     -33.369  29.133   1.076  0.00  0.00    +0.139 C 
ATOM     11  C   UNL     1     -31.139  32.301   3.761  0.00  0.00    +0.004 C 
ATOM     12  C   UNL     1     -32.143  34.120   2.513  0.00  0.00    +0.001 C 
ATOM     13  C   UNL     1     -31.080  33.603   3.252  0.00  0.00    +0.000 C 
ENDROOT
BRANCH   7  17
ATOM     14  O   UNL     1     -32.191  27.181   4.302  0.00  0.00    -0.268 OA
ATOM     15  N   UNL     1     -34.521  27.290   3.976  0.00  0.00    -0.265 N 
ATOM     16  N   UNL     1     -36.284  25.721   4.266  0.00  0.00    -0.226 NA
ATOM     17  C   UNL     1     -33.220  27.770   3.981  0.00  0.00    +0.269 C 
ATOM     18  C   UNL     1     -34.963  25.996   4.341  0.00  0.00    +0.135 C 
ATOM     19  C   UNL     1     -34.004  25.087   4.757  0.00  0.00    +0.038 C 
ATOM     20  C   UNL     1     -34.428  23.812   5.117  0.00  0.00    +0.041 C 
ATOM     21  C   UNL     1     -35.779  23.491   5.052  0.00  0.00    +0.153 C 
ATOM     22  C   UNL     1     -36.658  24.471   4.624  0.00  0.00    +0.137 C 
ATOM     23  H   UNL     1     -35.217  27.922   3.683  0.00  0.00    +0.157 HD
BRANCH  21  24
ATOM     24  O   UNL     1     -36.221  22.256   5.398  0.00  0.00    -0.504 OA
ATOM     25  H   UNL     1     -36.311  22.026   6.300  0.00  0.00    +0.292 HD
ENDBRANCH  21  24
ENDBRANCH   7  17
BRANCH   8  26
ATOM     26  O   UNL     1     -31.511  29.886   5.147  0.00  0.00    -0.504 OA
ATOM     27  H   UNL     1     -31.850  29.937   6.019  0.00  0.00    +0.292 HD
ENDBRANCH   8  26
TORSDOF 3
ENDMDL
MODEL 5
REMARK VINA RESULT:      -6.4      4.810      7.535
REMARK  Name = 54676301
REMARK  3 active torsions:
REMARK  status: ('A' for Active; 'I' for Inactive)
REMARK    1  A    between atoms: C_7  and  C_17
REMARK    2  A    between atoms: C_8  and  O_26
REMARK    3  A    between atoms: C_21  and  O_24
REMARK                            x       y       z     vdW  Elec       q    Type
REMARK                         _______ _______ _______ _____ _____    ______ ____
ROOT
ATOM      1  S   UNL     1     -36.654  24.747   0.579  0.00  0.00    +0.077 S 
ATOM      2  O   UNL     1     -37.236  25.686  -0.360  0.00  0.00    -0.150 OA
ATOM      3  O   UNL     1     -35.340  24.178   0.353  0.00  0.00    -0.150 OA
ATOM      4  N   UNL     1     -36.741  25.405   2.174  0.00  0.00    -0.181 N 
ATOM      5  C   UNL     1     -37.755  23.388   0.745  0.00  0.00    +0.128 C 
ATOM      6  C   UNL     1     -37.809  22.749   1.989  0.00  0.00    +0.054 C 
ATOM      7  C   UNL     1     -36.450  24.443   3.207  0.00  0.00    +0.156 C 
ATOM      8  C   UNL     1     -36.956  23.195   3.116  0.00  0.00    +0.154 C 
ATOM      9  C   UNL     1     -38.545  23.002  -0.335  0.00  0.00    +0.020 C 
ATOM     10  C   UNL     1     -37.898  26.301   2.465  0.00  0.00    +0.139 C 
ATOM     11  C   UNL     1     -38.693  21.668   2.118  0.00  0.00    +0.004 C 
ATOM     12  C   UNL     1     -39.417  21.927  -0.181  0.00  0.00    +0.001 C 
ATOM     13  C   UNL     1     -39.490  21.261   1.041  0.00  0.00    +0.000 C 
ENDROOT
BRANCH   7  17
ATOM     14  O   UNL     1     -35.850  24.516   5.458  0.00  0.00    -0.268 OA
ATOM     15  N   UNL     1     -34.741  25.914   3.922  0.00  0.00    -0.265 N 
ATOM     16  N   UNL     1     -33.004  27.524   4.140  0.00  0.00    -0.226 NA
ATOM     17  C   UNL     1     -35.654  24.953   4.328  0.00  0.00    +0.269 C 
ATOM     18  C   UNL     1     -33.816  26.618   4.729  0.00  0.00    +0.135 C 
ATOM     19  C   UNL     1     -33.803  26.331   6.085  0.00  0.00    +0.038 C 
ATOM     20  C   UNL     1     -32.898  27.019   6.887  0.00  0.00    +0.041 C 
ATOM     21  C   UNL     1     -32.047  27.958   6.317  0.00  0.00    +0.153 C 
ATOM     22  C   UNL     1     -32.139  28.172   4.952  0.00  0.00    +0.137 C 
ATOM     23  H   UNL     1     -34.736  26.132   2.962  0.00  0.00    +0.157 HD
BRANCH  21  24
ATOM     24  O   UNL     1     -31.155  28.644   7.075  0.00  0.00    -0.504 OA
ATOM     25  H   UNL     1     -31.175  29.580   7.090  0.00  0.00    +0.292 HD
ENDBRANCH  21  24
ENDBRANCH   7  17
BRANCH   8  26
ATOM     26  O   UNL     1     -36.746  22.214   4.068  0.00  0.00    -0.504 OA
ATOM     27  H   UNL     1     -37.267  21.436   4.060  0.00  0.00    +0.292 HD
ENDBRANCH   8  26
TORSDOF 3
ENDMDL
MODEL 6
REMARK VINA RESULT:      -6.3      4.417      8.704
REMARK  Name = 54676301
REMARK  3 active torsions:
REMARK  status: ('A' for Active; 'I' for Inactive)
REMARK    1  A    between atoms: C_7  and  C_17
REMARK    2  A    between atoms: C_8  and  O_26
REMARK    3  A    between atoms: C_21  and  O_24
REMARK                            x       y       z     vdW  Elec       q    Type
REMARK                         _______ _______ _______ _____ _____    ______ ____
ROOT
ATOM      1  S   UNL     1     -35.739  23.468   1.986  0.00  0.00    +0.077 S 
ATOM      2  O   UNL     1     -36.532  22.417   1.377  0.00  0.00    -0.150 OA
ATOM      3  O   UNL     1     -34.416  23.792   1.490  0.00  0.00    -0.150 OA
ATOM      4  N   UNL     1     -36.690  24.906   2.103  0.00  0.00    -0.181 N 
ATOM      5  C   UNL     1     -35.545  23.087   3.690  0.00  0.00    +0.128 C 
ATOM      6  C   UNL     1     -35.464  24.160   4.586  0.00  0.00    +0.054 C 
ATOM      7  C   UNL     1     -36.097  25.918   2.941  0.00  0.00    +0.156 C 
ATOM      8  C   UNL     1     -35.522  25.562   4.109  0.00  0.00    +0.154 C 
ATOM      9  C   UNL     1     -35.500  21.757   4.101  0.00  0.00    +0.020 C 
ATOM     10  C   UNL     1     -38.159  24.724   2.290  0.00  0.00    +0.139 C 
ATOM     11  C   UNL     1     -35.313  23.850   5.946  0.00  0.00    +0.004 C 
ATOM     12  C   UNL     1     -35.353  21.476   5.456  0.00  0.00    +0.001 C 
ATOM     13  C   UNL     1     -35.259  22.519   6.376  0.00  0.00    +0.000 C 
ENDROOT
BRANCH   7  17
ATOM     14  O   UNL     1     -37.181  27.585   1.724  0.00  0.00    -0.268 OA
ATOM     15  N   UNL     1     -35.219  28.114   2.913  0.00  0.00    -0.265 N 
ATOM     16  N   UNL     1     -33.971  30.120   3.190  0.00  0.00    -0.226 NA
ATOM     17  C   UNL     1     -36.237  27.293   2.453  0.00  0.00    +0.269 C 
ATOM     18  C   UNL     1     -35.035  29.492   2.643  0.00  0.00    +0.135 C 
ATOM     19  C   UNL     1     -35.968  30.113   1.829  0.00  0.00    +0.038 C 
ATOM     20  C   UNL     1     -35.796  31.467   1.557  0.00  0.00    +0.041 C 
ATOM     21  C   UNL     1     -34.713  32.147   2.101  0.00  0.00    +0.153 C 
ATOM     22  C   UNL     1     -33.837  31.435   2.904  0.00  0.00    +0.137 C 
ATOM     23  H   UNL     1     -34.546  27.691   3.493  0.00  0.00    +0.157 HD
BRANCH  21  24
ATOM     24  O   UNL     1     -34.520  33.466   1.853  0.00  0.00    -0.504 OA
ATOM     25  H   UNL     1     -33.855  33.738   1.253  0.00  0.00    +0.292 HD
ENDBRANCH  21  24
ENDBRANCH   7  17
BRANCH   8  26
ATOM     26  O   UNL     1     -34.948  26.464   4.984  0.00  0.00    -0.504 OA
ATOM     27  H   UNL     1     -35.471  26.870   5.648  0.00  0.00    +0.292 HD
ENDBRANCH   8  26
TORSDOF 3
ENDMDL
MODEL 7
REMARK VINA RESULT:      -6.3      4.657      9.146
REMARK  Name = 54676301
REMARK  3 active torsions:
REMARK  status: ('A' for Active; 'I' for Inactive)
REMARK    1  A    between atoms: C_7  and  C_17
REMARK    2  A    between atoms: C_8  and  O_26
REMARK    3  A    between atoms: C_21  and  O_24
REMARK                            x       y       z     vdW  Elec       q    Type
REMARK                         _______ _______ _______ _____ _____    ______ ____
ROOT
ATOM      1  S   UNL     1     -36.871  24.418   3.064  0.00  0.00    +0.077 S 
ATOM      2  O   UNL     1     -35.687  25.185   2.728  0.00  0.00    -0.150 OA
ATOM      3  O   UNL     1     -37.350  24.338   4.430  0.00  0.00    -0.150 OA
ATOM      4  N   UNL     1     -38.165  24.878   2.016  0.00  0.00    -0.181 N 
ATOM      5  C   UNL     1     -36.617  22.763   2.534  0.00  0.00    +0.128 C 
ATOM      6  C   UNL     1     -37.739  22.043   2.107  0.00  0.00    +0.054 C 
ATOM      7  C   UNL     1     -39.296  23.985   2.077  0.00  0.00    +0.156 C 
ATOM      8  C   UNL     1     -39.090  22.653   2.119  0.00  0.00    +0.154 C 
ATOM      9  C   UNL     1     -35.332  22.226   2.533  0.00  0.00    +0.020 C 
ATOM     10  C   UNL     1     -37.788  25.313   0.639  0.00  0.00    +0.139 C 
ATOM     11  C   UNL     1     -37.531  20.722   1.682  0.00  0.00    +0.004 C 
ATOM     12  C   UNL     1     -35.152  20.914   2.102  0.00  0.00    +0.001 C 
ATOM     13  C   UNL     1     -36.247  20.164   1.679  0.00  0.00    +0.000 C 
ENDROOT
BRANCH   7  17
ATOM     14  O   UNL     1     -41.475  24.194   1.275  0.00  0.00    -0.268 OA
ATOM     15  N   UNL     1     -40.683  25.726   2.879  0.00  0.00    -0.265 N 
ATOM     16  N   UNL     1     -41.663  27.599   3.968  0.00  0.00    -0.226 NA
ATOM     17  C   UNL     1     -40.608  24.637   2.024  0.00  0.00    +0.269 C 
ATOM     18  C   UNL     1     -41.789  26.585   3.084  0.00  0.00    +0.135 C 
ATOM     19  C   UNL     1     -42.941  26.327   2.359  0.00  0.00    +0.038 C 
ATOM     20  C   UNL     1     -44.034  27.166   2.553  0.00  0.00    +0.041 C 
ATOM     21  C   UNL     1     -43.941  28.221   3.454  0.00  0.00    +0.153 C 
ATOM     22  C   UNL     1     -42.745  28.393   4.130  0.00  0.00    +0.137 C 
ATOM     23  H   UNL     1     -39.874  25.925   3.402  0.00  0.00    +0.157 HD
BRANCH  21  24
ATOM     24  O   UNL     1     -44.991  29.055   3.664  0.00  0.00    -0.504 OA
ATOM     25  H   UNL     1     -45.867  28.737   3.577  0.00  0.00    +0.292 HD
ENDBRANCH  21  24
ENDBRANCH   7  17
BRANCH   8  26
ATOM     26  O   UNL     1     -40.113  21.723   2.159  0.00  0.00    -0.504 OA
ATOM     27  H   UNL     1     -39.914  20.808   2.120  0.00  0.00    +0.292 HD
ENDBRANCH   8  26
TORSDOF 3
ENDMDL
MODEL 8
REMARK VINA RESULT:      -6.3      2.733      3.468
REMARK  Name = 54676301
REMARK  3 active torsions:
REMARK  status: ('A' for Active; 'I' for Inactive)
REMARK    1  A    between atoms: C_7  and  C_17
REMARK    2  A    between atoms: C_8  and  O_26
REMARK    3  A    between atoms: C_21  and  O_24
REMARK                            x       y       z     vdW  Elec       q    Type
REMARK                         _______ _______ _______ _____ _____    ______ ____
ROOT
ATOM      1  S   UNL     1     -39.739  22.181   0.449  0.00  0.00    +0.077 S 
ATOM      2  O   UNL     1     -40.302  22.409  -0.868  0.00  0.00    -0.150 OA
ATOM      3  O   UNL     1     -40.156  21.053   1.258  0.00  0.00    -0.150 OA
ATOM      4  N   UNL     1     -38.015  22.225   0.348  0.00  0.00    -0.181 N 
ATOM      5  C   UNL     1     -40.027  23.616   1.421  0.00  0.00    +0.128 C 
ATOM      6  C   UNL     1     -39.069  23.944   2.387  0.00  0.00    +0.054 C 
ATOM      7  C   UNL     1     -37.368  22.290   1.634  0.00  0.00    +0.156 C 
ATOM      8  C   UNL     1     -37.866  23.101   2.590  0.00  0.00    +0.154 C 
ATOM      9  C   UNL     1     -41.166  24.386   1.198  0.00  0.00    +0.020 C 
ATOM     10  C   UNL     1     -37.428  23.120  -0.692  0.00  0.00    +0.139 C 
ATOM     11  C   UNL     1     -39.302  25.092   3.158  0.00  0.00    +0.004 C 
ATOM     12  C   UNL     1     -41.373  25.522   1.974  0.00  0.00    +0.001 C 
ATOM     13  C   UNL     1     -40.444  25.875   2.952  0.00  0.00    +0.000 C 
ENDROOT
BRANCH   7  17
ATOM     14  O   UNL     1     -35.258  21.849   2.523  0.00  0.00    -0.268 OA
ATOM     15  N   UNL     1     -36.182  20.361   0.950  0.00  0.00    -0.265 N 
ATOM     16  N   UNL     1     -35.407  18.339  -0.034  0.00  0.00    -0.226 NA
ATOM     17  C   UNL     1     -36.149  21.485   1.760  0.00  0.00    +0.269 C 
ATOM     18  C   UNL     1     -35.184  19.366   0.816  0.00  0.00    +0.135 C 
ATOM     19  C   UNL     1     -34.032  19.511   1.571  0.00  0.00    +0.038 C 
ATOM     20  C   UNL     1     -33.044  18.539   1.446  0.00  0.00    +0.041 C 
ATOM     21  C   UNL     1     -33.238  17.468   0.581  0.00  0.00    +0.153 C 
ATOM     22  C   UNL     1     -34.425  17.414  -0.130  0.00  0.00    +0.137 C 
ATOM     23  H   UNL     1     -36.993  20.240   0.405  0.00  0.00    +0.157 HD
BRANCH  21  24
ATOM     24  O   UNL     1     -32.292  16.505   0.438  0.00  0.00    -0.504 OA
ATOM     25  H   UNL     1     -32.302  15.753   0.994  0.00  0.00    +0.292 HD
ENDBRANCH  21  24
ENDBRANCH   7  17
BRANCH   8  26
ATOM     26  O   UNL     1     -37.301  23.243   3.843  0.00  0.00    -0.504 OA
ATOM     27  H   UNL     1     -36.763  22.560   4.193  0.00  0.00    +0.292 HD
ENDBRANCH   8  26
TORSDOF 3
ENDMDL
MODEL 9
REMARK VINA RESULT:      -6.2      4.978      7.137
REMARK  Name = 54676301
REMARK  3 active torsions:
REMARK  status: ('A' for Active; 'I' for Inactive)
REMARK    1  A    between atoms: C_7  and  C_17
REMARK    2  A    between atoms: C_8  and  O_26
REMARK    3  A    between atoms: C_21  and  O_24
REMARK                            x       y       z     vdW  Elec       q    Type
REMARK                         _______ _______ _______ _____ _____    ______ ____
ROOT
ATOM      1  S   UNL     1     -33.691  29.331   2.739  0.00  0.00    +0.077 S 
ATOM      2  O   UNL     1     -33.381  29.965   1.472  0.00  0.00    -0.150 OA
ATOM      3  O   UNL     1     -34.982  29.515   3.374  0.00  0.00    -0.150 OA
ATOM      4  N   UNL     1     -33.321  27.646   2.640  0.00  0.00    -0.181 N 
ATOM      5  C   UNL     1     -32.489  29.843   3.914  0.00  0.00    +0.128 C 
ATOM      6  C   UNL     1     -32.135  28.931   4.915  0.00  0.00    +0.054 C 
ATOM      7  C   UNL     1     -33.326  26.983   3.921  0.00  0.00    +0.156 C 
ATOM      8  C   UNL     1     -32.766  27.591   4.987  0.00  0.00    +0.154 C 
ATOM      9  C   UNL     1     -31.915  31.108   3.810  0.00  0.00    +0.020 C 
ATOM     10  C   UNL     1     -32.192  27.261   1.743  0.00  0.00    +0.139 C 
ATOM     11  C   UNL     1     -31.173  29.343   5.848  0.00  0.00    +0.004 C 
ATOM     12  C   UNL     1     -30.959  31.492   4.746  0.00  0.00    +0.001 C 
ATOM     13  C   UNL     1     -30.590  30.613   5.763  0.00  0.00    +0.000 C 
ENDROOT
BRANCH   7  17
ATOM     14  O   UNL     1     -33.353  24.740   4.555  0.00  0.00    -0.268 OA
ATOM     15  N   UNL     1     -35.064  25.568   3.164  0.00  0.00    -0.265 N 
ATOM     16  N   UNL     1     -36.979  24.573   2.165  0.00  0.00    -0.226 NA
ATOM     17  C   UNL     1     -33.905  25.637   3.923  0.00  0.00    +0.269 C 
ATOM     18  C   UNL     1     -35.882  24.434   2.943  0.00  0.00    +0.135 C 
ATOM     19  C   UNL     1     -35.502  23.245   3.543  0.00  0.00    +0.038 C 
ATOM     20  C   UNL     1     -36.299  22.125   3.331  0.00  0.00    +0.041 C 
ATOM     21  C   UNL     1     -37.435  22.228   2.536  0.00  0.00    +0.153 C 
ATOM     22  C   UNL     1     -37.729  23.462   1.981  0.00  0.00    +0.137 C 
ATOM     23  H   UNL     1     -35.350  26.403   2.729  0.00  0.00    +0.157 HD
BRANCH  21  24
ATOM     24  O   UNL     1     -38.231  21.152   2.312  0.00  0.00    -0.504 OA
ATOM     25  H   UNL     1     -37.890  20.287   2.419  0.00  0.00    +0.292 HD
ENDBRANCH  21  24
ENDBRANCH   7  17
BRANCH   8  26
ATOM     26  O   UNL     1     -32.707  27.024   6.246  0.00  0.00    -0.504 OA
ATOM     27  H   UNL     1     -32.892  27.545   7.003  0.00  0.00    +0.292 HD
ENDBRANCH   8  26
TORSDOF 3
ENDMDL
