MODEL 1
REMARK VINA RESULT:      -6.8      0.000      0.000
REMARK  Name = 54704410
REMARK  12 active torsions:
REMARK  status: ('A' for Active; 'I' for Inactive)
REMARK    1  A    between atoms: C_1  and  C_23
REMARK    2  A    between atoms: C_2  and  N_8
REMARK    3  A    between atoms: N_8  and  C_11
REMARK    4  A    between atoms: C_11  and  C_13
REMARK    5  A    between atoms: C_11  and  C_16
REMARK    6  A    between atoms: C_13  and  O_14
REMARK    7  A    between atoms: C_16  and  C_17
REMARK    8  A    between atoms: C_17  and  C_20
REMARK    9  A    between atoms: C_23  and  C_26
REMARK   10  A    between atoms: C_23  and  C_37
REMARK   11  A    between atoms: C_27  and  O_35
REMARK   12  A    between atoms: C_37  and  C_39
REMARK                            x       y       z     vdW  Elec       q    Type
REMARK                         _______ _______ _______ _____ _____    ______ ____
ROOT
ATOM      1  C   UNL     1     -40.747  26.297   2.093  0.00  0.00    -0.018 C 
ATOM      2  C   UNL     1     -38.903  24.206   2.207  0.00  0.00    +0.054 C 
ATOM      3  C   UNL     1     -40.454  25.691   3.314  0.00  0.00    -0.003 C 
ATOM      4  C   UNL     1     -40.117  25.858   0.928  0.00  0.00    -0.003 C 
ATOM      5  C   UNL     1     -39.533  24.646   3.371  0.00  0.00    +0.015 C 
ATOM      6  C   UNL     1     -39.195  24.812   0.985  0.00  0.00    +0.015 C 
ENDROOT
BRANCH   2   8
ATOM      7  O   UNL     1     -37.454  20.907   1.802  0.00  0.00    -0.275 OA
ATOM      8  N   UNL     1     -37.982  23.160   2.265  0.00  0.00    -0.250 N 
ATOM      9  C   UNL     1     -38.279  21.823   1.827  0.00  0.00    +0.230 C 
ATOM     10  C   UNL     1     -39.696  21.509   1.405  0.00  0.00    +0.095 C 
BRANCH   8  11
ATOM     11  C   UNL     1     -36.589  23.463   2.719  0.00  0.00    +0.179 C 
BRANCH  11  13
ATOM     12  O   UNL     1     -36.526  23.485   5.135  0.00  0.00    -0.248 OA
ATOM     13  C   UNL     1     -36.284  22.886   4.093  0.00  0.00    +0.332 C 
BRANCH  13  14
ATOM     14  O   UNL     1     -35.679  21.675   4.075  0.00  0.00    -0.479 OA
ATOM     15  H   UNL     1     -34.764  21.605   4.265  0.00  0.00    +0.295 HD
ENDBRANCH  13  14
ENDBRANCH  11  13
BRANCH  11  16
ATOM     16  C   UNL     1     -36.301  24.969   2.680  0.00  0.00    +0.041 C 
BRANCH  16  17
ATOM     17  C   UNL     1     -34.959  25.360   3.305  0.00  0.00    +0.087 C 
BRANCH  17  20
ATOM     18  O   UNL     1     -34.313  27.466   4.273  0.00  0.00    -0.275 OA
ATOM     19  N   UNL     1     -36.274  26.493   4.988  0.00  0.00    -0.329 N 
ATOM     20  C   UNL     1     -35.127  26.546   4.229  0.00  0.00    +0.219 C 
ATOM     21  H   UNL     1     -36.477  27.218   5.623  0.00  0.00    +0.145 HD
ATOM     22  H   UNL     1     -36.890  25.731   4.897  0.00  0.00    +0.145 HD
ENDBRANCH  17  20
ENDBRANCH  16  17
ENDBRANCH  11  16
ENDBRANCH   8  11
ENDBRANCH   2   8
BRANCH   1  23
ATOM     23  C   UNL     1     -41.753  27.437   2.030  0.00  0.00    +0.061 C 
BRANCH  23  26
ATOM     24  O   UNL     1     -44.256  27.761   4.852  0.00  0.00    -0.421 OA
ATOM     25  O   UNL     1     -42.361  28.897   4.310  0.00  0.00    -0.245 OA
ATOM     26  C   UNL     1     -42.977  27.123   2.847  0.00  0.00    +0.092 A 
ATOM     27  C   UNL     1     -43.870  26.150   2.580  0.00  0.00    +0.139 A 
ATOM     28  C   UNL     1     -43.154  27.999   4.042  0.00  0.00    +0.345 A 
ATOM     29  C   UNL     1     -45.023  25.927   3.455  0.00  0.00    +0.068 A 
ATOM     30  C   UNL     1     -45.182  26.744   4.570  0.00  0.00    +0.152 A 
ATOM     31  C   UNL     1     -45.983  24.930   3.231  0.00  0.00    +0.006 C 
ATOM     32  C   UNL     1     -46.252  26.597   5.454  0.00  0.00    +0.038 C 
ATOM     33  C   UNL     1     -47.062  24.770   4.107  0.00  0.00    +0.000 C 
ATOM     34  C   UNL     1     -47.196  25.603   5.217  0.00  0.00    +0.003 C 
BRANCH  27  35
ATOM     35  O   UNL     1     -43.797  25.297   1.500  0.00  0.00    -0.506 OA
ATOM     36  H   UNL     1     -44.097  25.580   0.658  0.00  0.00    +0.292 HD
ENDBRANCH  27  35
ENDBRANCH  23  26
BRANCH  23  37
ATOM     37  C   UNL     1     -42.144  27.806   0.586  0.00  0.00    +0.074 C 
BRANCH  37  39
ATOM     38  O   UNL     1     -41.604  30.112   1.097  0.00  0.00    -0.296 OA
ATOM     39  C   UNL     1     -42.002  29.290   0.274  0.00  0.00    +0.152 C 
ATOM     40  C   UNL     1     -42.428  29.721  -1.106  0.00  0.00    +0.072 C 
ENDBRANCH  37  39
ENDBRANCH  23  37
ENDBRANCH   1  23
TORSDOF 12
ENDMDL
MODEL 2
REMARK VINA RESULT:      -6.8      4.439      8.806
REMARK  Name = 54704410
REMARK  12 active torsions:
REMARK  status: ('A' for Active; 'I' for Inactive)
REMARK    1  A    between atoms: C_1  and  C_23
REMARK    2  A    between atoms: C_2  and  N_8
REMARK    3  A    between atoms: N_8  and  C_11
REMARK    4  A    between atoms: C_11  and  C_13
REMARK    5  A    between atoms: C_11  and  C_16
REMARK    6  A    between atoms: C_13  and  O_14
REMARK    7  A    between atoms: C_16  and  C_17
REMARK    8  A    between atoms: C_17  and  C_20
REMARK    9  A    between atoms: C_23  and  C_26
REMARK   10  A    between atoms: C_23  and  C_37
REMARK   11  A    between atoms: C_27  and  O_35
REMARK   12  A    between atoms: C_37  and  C_39
REMARK                            x       y       z     vdW  Elec       q    Type
REMARK                         _______ _______ _______ _____ _____    ______ ____
ROOT
ATOM      1  C   UNL     1     -33.904  25.531   4.359  0.00  0.00    -0.018 C 
ATOM      2  C   UNL     1     -32.378  27.866   4.292  0.00  0.00    +0.054 C 
ATOM      3  C   UNL     1     -33.733  26.286   5.519  0.00  0.00    -0.003 C 
ATOM      4  C   UNL     1     -33.313  25.943   3.165  0.00  0.00    -0.003 C 
ATOM      5  C   UNL     1     -32.970  27.453   5.485  0.00  0.00    +0.015 C 
ATOM      6  C   UNL     1     -32.550  27.111   3.131  0.00  0.00    +0.015 C 
ENDROOT
BRANCH   2   8
ATOM      7  O   UNL     1     -31.503  31.362   3.891  0.00  0.00    -0.275 OA
ATOM      8  N   UNL     1     -31.615  29.033   4.259  0.00  0.00    -0.250 N 
ATOM      9  C   UNL     1     -32.142  30.308   3.853  0.00  0.00    +0.230 C 
ATOM     10  C   UNL     1     -33.554  30.357   3.315  0.00  0.00    +0.095 C 
BRANCH   8  11
ATOM     11  C   UNL     1     -30.205  28.976   4.757  0.00  0.00    +0.179 C 
BRANCH  11  13
ATOM     12  O   UNL     1     -29.230  28.127   2.714  0.00  0.00    -0.248 OA
ATOM     13  C   UNL     1     -29.332  28.042   3.933  0.00  0.00    +0.332 C 
BRANCH  13  14
ATOM     14  O   UNL     1     -28.709  27.075   4.648  0.00  0.00    -0.479 OA
ATOM     15  H   UNL     1     -28.213  27.301   5.410  0.00  0.00    +0.295 HD
ENDBRANCH  13  14
ENDBRANCH  11  13
BRANCH  11  16
ATOM     16  C   UNL     1     -30.150  28.610   6.245  0.00  0.00    +0.041 C 
BRANCH  16  17
ATOM     17  C   UNL     1     -29.619  29.734   7.140  0.00  0.00    +0.087 C 
BRANCH  17  20
ATOM     18  O   UNL     1     -27.828  29.990   8.726  0.00  0.00    -0.275 OA
ATOM     19  N   UNL     1     -28.045  27.969   7.644  0.00  0.00    -0.329 N 
ATOM     20  C   UNL     1     -28.409  29.268   7.919  0.00  0.00    +0.219 C 
ATOM     21  H   UNL     1     -27.268  27.569   8.099  0.00  0.00    +0.145 HD
ATOM     22  H   UNL     1     -28.560  27.441   6.994  0.00  0.00    +0.145 HD
ENDBRANCH  17  20
ENDBRANCH  16  17
ENDBRANCH  11  16
ENDBRANCH   8  11
ENDBRANCH   2   8
BRANCH   1  23
ATOM     23  C   UNL     1     -34.735  24.257   4.396  0.00  0.00    +0.061 C 
BRANCH  23  26
ATOM     24  O   UNL     1     -36.899  23.552   1.370  0.00  0.00    -0.421 OA
ATOM     25  O   UNL     1     -34.876  22.770   2.057  0.00  0.00    -0.245 OA
ATOM     26  C   UNL     1     -35.926  24.362   3.482  0.00  0.00    +0.092 A 
ATOM     27  C   UNL     1     -37.002  25.146   3.683  0.00  0.00    +0.139 A 
ATOM     28  C   UNL     1     -35.840  23.499   2.267  0.00  0.00    +0.345 A 
ATOM     29  C   UNL     1     -38.102  25.177   2.717  0.00  0.00    +0.068 A 
ATOM     30  C   UNL     1     -38.016  24.375   1.584  0.00  0.00    +0.152 A 
ATOM     31  C   UNL     1     -39.245  25.974   2.870  0.00  0.00    +0.006 C 
ATOM     32  C   UNL     1     -39.020  24.345   0.614  0.00  0.00    +0.038 C 
ATOM     33  C   UNL     1     -40.260  25.956   1.908  0.00  0.00    +0.000 C 
ATOM     34  C   UNL     1     -40.148  25.143   0.782  0.00  0.00    +0.003 C 
BRANCH  27  35
ATOM     35  O   UNL     1     -37.176  25.969   4.775  0.00  0.00    -0.506 OA
ATOM     36  H   UNL     1     -37.638  26.780   4.683  0.00  0.00    +0.292 HD
ENDBRANCH  27  35
ENDBRANCH  23  26
BRANCH  23  37
ATOM     37  C   UNL     1     -35.176  23.875   5.822  0.00  0.00    +0.074 C 
BRANCH  37  39
ATOM     38  O   UNL     1     -36.314  21.971   6.796  0.00  0.00    -0.296 OA
ATOM     39  C   UNL     1     -35.484  22.394   5.992  0.00  0.00    +0.152 C 
ATOM     40  C   UNL     1     -34.673  21.446   5.146  0.00  0.00    +0.072 C 
ENDBRANCH  37  39
ENDBRANCH  23  37
ENDBRANCH   1  23
TORSDOF 12
ENDMDL
MODEL 3
REMARK VINA RESULT:      -6.6      5.821     11.715
REMARK  Name = 54704410
REMARK  12 active torsions:
REMARK  status: ('A' for Active; 'I' for Inactive)
REMARK    1  A    between atoms: C_1  and  C_23
REMARK    2  A    between atoms: C_2  and  N_8
REMARK    3  A    between atoms: N_8  and  C_11
REMARK    4  A    between atoms: C_11  and  C_13
REMARK    5  A    between atoms: C_11  and  C_16
REMARK    6  A    between atoms: C_13  and  O_14
REMARK    7  A    between atoms: C_16  and  C_17
REMARK    8  A    between atoms: C_17  and  C_20
REMARK    9  A    between atoms: C_23  and  C_26
REMARK   10  A    between atoms: C_23  and  C_37
REMARK   11  A    between atoms: C_27  and  O_35
REMARK   12  A    between atoms: C_37  and  C_39
REMARK                            x       y       z     vdW  Elec       q    Type
REMARK                         _______ _______ _______ _____ _____    ______ ____
ROOT
ATOM      1  C   UNL     1     -34.091  20.378   0.379  0.00  0.00    -0.018 C 
ATOM      2  C   UNL     1     -35.146  21.953   2.425  0.00  0.00    +0.054 C 
ATOM      3  C   UNL     1     -33.945  21.764   0.338  0.00  0.00    -0.003 C 
ATOM      4  C   UNL     1     -34.764  19.778   1.443  0.00  0.00    -0.003 C 
ATOM      5  C   UNL     1     -34.472  22.551   1.361  0.00  0.00    +0.015 C 
ATOM      6  C   UNL     1     -35.292  20.566   2.467  0.00  0.00    +0.015 C 
ENDROOT
BRANCH   2   8
ATOM      7  O   UNL     1     -37.458  24.048   4.274  0.00  0.00    -0.275 OA
ATOM      8  N   UNL     1     -35.674  22.741   3.448  0.00  0.00    -0.250 N 
ATOM      9  C   UNL     1     -36.943  23.409   3.352  0.00  0.00    +0.230 C 
ATOM     10  C   UNL     1     -37.679  23.358   2.033  0.00  0.00    +0.095 C 
BRANCH   8  11
ATOM     11  C   UNL     1     -34.927  22.822   4.742  0.00  0.00    +0.179 C 
BRANCH  11  13
ATOM     12  O   UNL     1     -36.190  22.231   6.717  0.00  0.00    -0.248 OA
ATOM     13  C   UNL     1     -35.472  21.866   5.792  0.00  0.00    +0.332 C 
BRANCH  13  14
ATOM     14  O   UNL     1     -35.064  20.582   5.654  0.00  0.00    -0.479 OA
ATOM     15  H   UNL     1     -34.157  20.390   5.521  0.00  0.00    +0.295 HD
ENDBRANCH  13  14
ENDBRANCH  11  13
BRANCH  11  16
ATOM     16  C   UNL     1     -34.886  24.258   5.277  0.00  0.00    +0.041 C 
BRANCH  16  17
ATOM     17  C   UNL     1     -34.069  25.220   4.409  0.00  0.00    +0.087 C 
BRANCH  17  20
ATOM     18  O   UNL     1     -34.035  27.602   4.072  0.00  0.00    -0.275 OA
ATOM     19  N   UNL     1     -35.932  26.654   4.968  0.00  0.00    -0.329 N 
ATOM     20  C   UNL     1     -34.653  26.614   4.462  0.00  0.00    +0.219 C 
ATOM     21  H   UNL     1     -36.404  27.516   5.045  0.00  0.00    +0.145 HD
ATOM     22  H   UNL     1     -36.375  25.823   5.253  0.00  0.00    +0.145 HD
ENDBRANCH  17  20
ENDBRANCH  16  17
ENDBRANCH  11  16
ENDBRANCH   8  11
ENDBRANCH   2   8
BRANCH   1  23
ATOM     23  C   UNL     1     -33.516  19.518  -0.738  0.00  0.00    +0.061 C 
BRANCH  23  26
ATOM     24  O   UNL     1     -31.127  16.851   0.493  0.00  0.00    -0.421 OA
ATOM     25  O   UNL     1     -33.366  16.873   0.087  0.00  0.00    -0.245 OA
ATOM     26  C   UNL     1     -32.202  18.908  -0.330  0.00  0.00    +0.092 A 
ATOM     27  C   UNL     1     -31.014  19.541  -0.318  0.00  0.00    +0.139 A 
ATOM     28  C   UNL     1     -32.299  17.479   0.091  0.00  0.00    +0.345 A 
ATOM     29  C   UNL     1     -29.797  18.848   0.111  0.00  0.00    +0.068 A 
ATOM     30  C   UNL     1     -29.892  17.518   0.506  0.00  0.00    +0.152 A 
ATOM     31  C   UNL     1     -28.533  19.454   0.147  0.00  0.00    +0.006 C 
ATOM     32  C   UNL     1     -28.781  16.786   0.929  0.00  0.00    +0.038 C 
ATOM     33  C   UNL     1     -27.410  18.734   0.568  0.00  0.00    +0.000 C 
ATOM     34  C   UNL     1     -27.534  17.402   0.959  0.00  0.00    +0.003 C 
BRANCH  27  35
ATOM     35  O   UNL     1     -30.823  20.853  -0.695  0.00  0.00    -0.506 OA
ATOM     36  H   UNL     1     -31.379  21.241  -1.342  0.00  0.00    +0.292 HD
ENDBRANCH  27  35
ENDBRANCH  23  26
BRANCH  23  37
ATOM     37  C   UNL     1     -33.368  20.288  -2.065  0.00  0.00    +0.074 C 
BRANCH  37  39
ATOM     38  O   UNL     1     -33.098  19.640  -4.383  0.00  0.00    -0.296 OA
ATOM     39  C   UNL     1     -33.643  19.439  -3.299  0.00  0.00    +0.152 C 
ATOM     40  C   UNL     1     -34.672  18.350  -3.140  0.00  0.00    +0.072 C 
ENDBRANCH  37  39
ENDBRANCH  23  37
ENDBRANCH   1  23
TORSDOF 12
ENDMDL
MODEL 4
REMARK VINA RESULT:      -6.5      5.096      9.863
REMARK  Name = 54704410
REMARK  12 active torsions:
REMARK  status: ('A' for Active; 'I' for Inactive)
REMARK    1  A    between atoms: C_1  and  C_23
REMARK    2  A    between atoms: C_2  and  N_8
REMARK    3  A    between atoms: N_8  and  C_11
REMARK    4  A    between atoms: C_11  and  C_13
REMARK    5  A    between atoms: C_11  and  C_16
REMARK    6  A    between atoms: C_13  and  O_14
REMARK    7  A    between atoms: C_16  and  C_17
REMARK    8  A    between atoms: C_17  and  C_20
REMARK    9  A    between atoms: C_23  and  C_26
REMARK   10  A    between atoms: C_23  and  C_37
REMARK   11  A    between atoms: C_27  and  O_35
REMARK   12  A    between atoms: C_37  and  C_39
REMARK                            x       y       z     vdW  Elec       q    Type
REMARK                         _______ _______ _______ _____ _____    ______ ____
ROOT
ATOM      1  C   UNL     1     -34.855  20.504   0.884  0.00  0.00    -0.018 C 
ATOM      2  C   UNL     1     -36.064  22.625   2.234  0.00  0.00    +0.054 C 
ATOM      3  C   UNL     1     -35.267  21.635   0.180  0.00  0.00    -0.003 C 
ATOM      4  C   UNL     1     -35.046  20.434   2.264  0.00  0.00    -0.003 C 
ATOM      5  C   UNL     1     -35.871  22.695   0.854  0.00  0.00    +0.015 C 
ATOM      6  C   UNL     1     -35.651  21.495   2.939  0.00  0.00    +0.015 C 
ENDROOT
BRANCH   2   8
ATOM      7  O   UNL     1     -38.643  24.728   3.675  0.00  0.00    -0.275 OA
ATOM      8  N   UNL     1     -36.669  23.686   2.908  0.00  0.00    -0.250 N 
ATOM      9  C   UNL     1     -38.094  23.838   3.020  0.00  0.00    +0.230 C 
ATOM     10  C   UNL     1     -38.976  22.872   2.263  0.00  0.00    +0.095 C 
BRANCH   8  11
ATOM     11  C   UNL     1     -35.794  24.664   3.626  0.00  0.00    +0.179 C 
BRANCH  11  13
ATOM     12  O   UNL     1     -35.983  23.688   5.830  0.00  0.00    -0.248 OA
ATOM     13  C   UNL     1     -36.053  24.689   5.125  0.00  0.00    +0.332 C 
BRANCH  13  14
ATOM     14  O   UNL     1     -36.412  25.898   5.617  0.00  0.00    -0.479 OA
ATOM     15  H   UNL     1     -35.935  26.666   5.368  0.00  0.00    +0.295 HD
ENDBRANCH  13  14
ENDBRANCH  11  13
BRANCH  11  16
ATOM     16  C   UNL     1     -35.913  26.070   3.026  0.00  0.00    +0.041 C 
BRANCH  16  17
ATOM     17  C   UNL     1     -34.609  26.601   2.425  0.00  0.00    +0.087 C 
BRANCH  17  20
ATOM     18  O   UNL     1     -32.480  26.045   3.398  0.00  0.00    -0.275 OA
ATOM     19  N   UNL     1     -33.833  27.536   4.515  0.00  0.00    -0.329 N 
ATOM     20  C   UNL     1     -33.528  26.680   3.480  0.00  0.00    +0.219 C 
ATOM     21  H   UNL     1     -33.195  27.659   5.255  0.00  0.00    +0.145 HD
ATOM     22  H   UNL     1     -34.687  28.023   4.515  0.00  0.00    +0.145 HD
ENDBRANCH  17  20
ENDBRANCH  16  17
ENDBRANCH  11  16
ENDBRANCH   8  11
ENDBRANCH   2   8
BRANCH   1  23
ATOM     23  C   UNL     1     -34.196  19.347   0.148  0.00  0.00    +0.061 C 
BRANCH  23  26
ATOM     24  O   UNL     1     -35.579  17.863  -3.049  0.00  0.00    -0.421 OA
ATOM     25  O   UNL     1     -33.621  18.899  -2.530  0.00  0.00    -0.245 OA
ATOM     26  C   UNL     1     -35.181  18.646  -0.749  0.00  0.00    +0.092 A 
ATOM     27  C   UNL     1     -36.388  18.181  -0.375  0.00  0.00    +0.139 A 
ATOM     28  C   UNL     1     -34.718  18.491  -2.159  0.00  0.00    +0.345 A 
ATOM     29  C   UNL     1     -37.272  17.522  -1.339  0.00  0.00    +0.068 A 
ATOM     30  C   UNL     1     -36.838  17.383  -2.653  0.00  0.00    +0.152 A 
ATOM     31  C   UNL     1     -38.539  17.020  -1.011  0.00  0.00    +0.006 C 
ATOM     32  C   UNL     1     -37.619  16.768  -3.634  0.00  0.00    +0.038 C 
ATOM     33  C   UNL     1     -39.334  16.402  -1.982  0.00  0.00    +0.000 C 
ATOM     34  C   UNL     1     -38.874  16.276  -3.292  0.00  0.00    +0.003 C 
BRANCH  27  35
ATOM     35  O   UNL     1     -36.899  18.269   0.902  0.00  0.00    -0.506 OA
ATOM     36  H   UNL     1     -37.274  19.074   1.202  0.00  0.00    +0.292 HD
ENDBRANCH  27  35
ENDBRANCH  23  26
BRANCH  23  37
ATOM     37  C   UNL     1     -33.520  18.343   1.101  0.00  0.00    +0.074 C 
BRANCH  37  39
ATOM     38  O   UNL     1     -31.289  17.590   1.674  0.00  0.00    -0.296 OA
ATOM     39  C   UNL     1     -31.998  18.372   1.043  0.00  0.00    +0.152 C 
ATOM     40  C   UNL     1     -31.388  19.459   0.196  0.00  0.00    +0.072 C 
ENDBRANCH  37  39
ENDBRANCH  23  37
ENDBRANCH   1  23
TORSDOF 12
ENDMDL
MODEL 5
REMARK VINA RESULT:      -6.5      5.196     10.621
REMARK  Name = 54704410
REMARK  12 active torsions:
REMARK  status: ('A' for Active; 'I' for Inactive)
REMARK    1  A    between atoms: C_1  and  C_23
REMARK    2  A    between atoms: C_2  and  N_8
REMARK    3  A    between atoms: N_8  and  C_11
REMARK    4  A    between atoms: C_11  and  C_13
REMARK    5  A    between atoms: C_11  and  C_16
REMARK    6  A    between atoms: C_13  and  O_14
REMARK    7  A    between atoms: C_16  and  C_17
REMARK    8  A    between atoms: C_17  and  C_20
REMARK    9  A    between atoms: C_23  and  C_26
REMARK   10  A    between atoms: C_23  and  C_37
REMARK   11  A    between atoms: C_27  and  O_35
REMARK   12  A    between atoms: C_37  and  C_39
REMARK                            x       y       z     vdW  Elec       q    Type
REMARK                         _______ _______ _______ _____ _____    ______ ____
ROOT
ATOM      1  C   UNL     1     -34.432  20.559   0.925  0.00  0.00    -0.018 C 
ATOM      2  C   UNL     1     -36.221  22.303   2.166  0.00  0.00    +0.054 C 
ATOM      3  C   UNL     1     -35.034  20.200   2.131  0.00  0.00    -0.003 C 
ATOM      4  C   UNL     1     -34.725  21.790   0.339  0.00  0.00    -0.003 C 
ATOM      5  C   UNL     1     -35.928  21.072   2.751  0.00  0.00    +0.015 C 
ATOM      6  C   UNL     1     -35.620  22.663   0.959  0.00  0.00    +0.015 C 
ENDROOT
BRANCH   2   8
ATOM      7  O   UNL     1     -39.347  23.844   3.170  0.00  0.00    -0.275 OA
ATOM      8  N   UNL     1     -37.115  23.175   2.787  0.00  0.00    -0.250 N 
ATOM      9  C   UNL     1     -38.536  23.131   2.573  0.00  0.00    +0.230 C 
ATOM     10  C   UNL     1     -39.071  22.178   1.527  0.00  0.00    +0.095 C 
BRANCH   8  11
ATOM     11  C   UNL     1     -36.582  24.144   3.794  0.00  0.00    +0.179 C 
BRANCH  11  13
ATOM     12  O   UNL     1     -35.909  26.111   2.561  0.00  0.00    -0.248 OA
ATOM     13  C   UNL     1     -36.703  25.589   3.337  0.00  0.00    +0.332 C 
BRANCH  13  14
ATOM     14  O   UNL     1     -37.733  26.272   3.890  0.00  0.00    -0.479 OA
ATOM     15  H   UNL     1     -38.261  26.836   3.358  0.00  0.00    +0.295 HD
ENDBRANCH  13  14
ENDBRANCH  11  13
BRANCH  11  16
ATOM     16  C   UNL     1     -35.136  23.811   4.182  0.00  0.00    +0.041 C 
BRANCH  16  17
ATOM     17  C   UNL     1     -34.906  23.711   5.693  0.00  0.00    +0.087 C 
BRANCH  17  20
ATOM     18  O   UNL     1     -36.341  22.094   6.751  0.00  0.00    -0.275 OA
ATOM     19  N   UNL     1     -34.298  21.386   5.961  0.00  0.00    -0.329 N 
ATOM     20  C   UNL     1     -35.270  22.332   6.197  0.00  0.00    +0.219 C 
ATOM     21  H   UNL     1     -34.436  20.455   6.251  0.00  0.00    +0.145 HD
ATOM     22  H   UNL     1     -33.465  21.641   5.503  0.00  0.00    +0.145 HD
ENDBRANCH  17  20
ENDBRANCH  16  17
ENDBRANCH  11  16
ENDBRANCH   8  11
ENDBRANCH   2   8
BRANCH   1  23
ATOM     23  C   UNL     1     -33.455  19.608   0.249  0.00  0.00    +0.061 C 
BRANCH  23  26
ATOM     24  O   UNL     1     -33.998  18.965  -3.443  0.00  0.00    -0.421 OA
ATOM     25  O   UNL     1     -32.571  20.308  -2.287  0.00  0.00    -0.245 OA
ATOM     26  C   UNL     1     -34.064  18.991  -0.982  0.00  0.00    +0.092 A 
ATOM     27  C   UNL     1     -35.055  18.079  -0.992  0.00  0.00    +0.139 A 
ATOM     28  C   UNL     1     -33.478  19.481  -2.263  0.00  0.00    +0.345 A 
ATOM     29  C   UNL     1     -35.580  17.554  -2.255  0.00  0.00    +0.068 A 
ATOM     30  C   UNL     1     -35.033  18.016  -3.447  0.00  0.00    +0.152 A 
ATOM     31  C   UNL     1     -36.611  16.606  -2.330  0.00  0.00    +0.006 C 
ATOM     32  C   UNL     1     -35.477  17.567  -4.693  0.00  0.00    +0.038 C 
ATOM     33  C   UNL     1     -37.066  16.147  -3.570  0.00  0.00    +0.000 C 
ATOM     34  C   UNL     1     -36.500  16.627  -4.750  0.00  0.00    +0.003 C 
BRANCH  27  35
ATOM     35  O   UNL     1     -35.654  17.562   0.136  0.00  0.00    -0.506 OA
ATOM     36  H   UNL     1     -36.548  17.767   0.329  0.00  0.00    +0.292 HD
ENDBRANCH  27  35
ENDBRANCH  23  26
BRANCH  23  37
ATOM     37  C   UNL     1     -32.931  18.516   1.201  0.00  0.00    +0.074 C 
BRANCH  37  39
ATOM     38  O   UNL     1     -31.363  16.706   0.838  0.00  0.00    -0.296 OA
ATOM     39  C   UNL     1     -31.604  17.910   0.768  0.00  0.00    +0.152 C 
ATOM     40  C   UNL     1     -30.558  18.881   0.284  0.00  0.00    +0.072 C 
ENDBRANCH  37  39
ENDBRANCH  23  37
ENDBRANCH   1  23
TORSDOF 12
ENDMDL
MODEL 6
REMARK VINA RESULT:      -6.4      4.693      9.402
REMARK  Name = 54704410
REMARK  12 active torsions:
REMARK  status: ('A' for Active; 'I' for Inactive)
REMARK    1  A    between atoms: C_1  and  C_23
REMARK    2  A    between atoms: C_2  and  N_8
REMARK    3  A    between atoms: N_8  and  C_11
REMARK    4  A    between atoms: C_11  and  C_13
REMARK    5  A    between atoms: C_11  and  C_16
REMARK    6  A    between atoms: C_13  and  O_14
REMARK    7  A    between atoms: C_16  and  C_17
REMARK    8  A    between atoms: C_17  and  C_20
REMARK    9  A    between atoms: C_23  and  C_26
REMARK   10  A    between atoms: C_23  and  C_37
REMARK   11  A    between atoms: C_27  and  O_35
REMARK   12  A    between atoms: C_37  and  C_39
REMARK                            x       y       z     vdW  Elec       q    Type
REMARK                         _______ _______ _______ _____ _____    ______ ____
ROOT
ATOM      1  C   UNL     1     -34.774  21.581   1.413  0.00  0.00    -0.018 C 
ATOM      2  C   UNL     1     -35.732  23.791   2.821  0.00  0.00    +0.054 C 
ATOM      3  C   UNL     1     -35.557  21.396   2.552  0.00  0.00    -0.003 C 
ATOM      4  C   UNL     1     -34.471  22.870   0.977  0.00  0.00    -0.003 C 
ATOM      5  C   UNL     1     -36.036  22.501   3.256  0.00  0.00    +0.015 C 
ATOM      6  C   UNL     1     -34.950  23.976   1.681  0.00  0.00    +0.015 C 
ENDROOT
BRANCH   2   8
ATOM      7  O   UNL     1     -35.961  26.411   5.317  0.00  0.00    -0.275 OA
ATOM      8  N   UNL     1     -36.211  24.895   3.525  0.00  0.00    -0.250 N 
ATOM      9  C   UNL     1     -35.595  25.392   4.725  0.00  0.00    +0.230 C 
ATOM     10  C   UNL     1     -34.452  24.602   5.320  0.00  0.00    +0.095 C 
BRANCH   8  11
ATOM     11  C   UNL     1     -37.368  25.655   2.956  0.00  0.00    +0.179 C 
BRANCH  11  13
ATOM     12  O   UNL     1     -38.991  24.173   1.950  0.00  0.00    -0.248 OA
ATOM     13  C   UNL     1     -38.648  24.835   2.925  0.00  0.00    +0.332 C 
BRANCH  13  14
ATOM     14  O   UNL     1     -39.406  24.927   4.043  0.00  0.00    -0.479 OA
ATOM     15  H   UNL     1     -40.341  24.916   3.977  0.00  0.00    +0.295 HD
ENDBRANCH  13  14
ENDBRANCH  11  13
BRANCH  11  16
ATOM     16  C   UNL     1     -37.041  26.216   1.567  0.00  0.00    +0.041 C 
BRANCH  16  17
ATOM     17  C   UNL     1     -36.716  27.713   1.563  0.00  0.00    +0.087 C 
BRANCH  17  20
ATOM     18  O   UNL     1     -34.315  27.556   1.507  0.00  0.00    -0.275 OA
ATOM     19  N   UNL     1     -35.294  28.672   3.268  0.00  0.00    -0.329 N 
ATOM     20  C   UNL     1     -35.319  27.956   2.092  0.00  0.00    +0.219 C 
ATOM     21  H   UNL     1     -34.433  28.884   3.696  0.00  0.00    +0.145 HD
ATOM     22  H   UNL     1     -36.136  28.972   3.679  0.00  0.00    +0.145 HD
ENDBRANCH  17  20
ENDBRANCH  16  17
ENDBRANCH  11  16
ENDBRANCH   8  11
ENDBRANCH   2   8
BRANCH   1  23
ATOM     23  C   UNL     1     -34.250  20.375   0.646  0.00  0.00    +0.061 C 
BRANCH  23  26
ATOM     24  O   UNL     1     -35.864  19.822  -2.734  0.00  0.00    -0.421 OA
ATOM     25  O   UNL     1     -33.956  20.867  -2.069  0.00  0.00    -0.245 OA
ATOM     26  C   UNL     1     -35.269  19.881  -0.346  0.00  0.00    +0.092 A 
ATOM     27  C   UNL     1     -36.379  19.181  -0.045  0.00  0.00    +0.139 A 
ATOM     28  C   UNL     1     -34.962  20.235  -1.762  0.00  0.00    +0.345 A 
ATOM     29  C   UNL     1     -37.310  18.760  -1.095  0.00  0.00    +0.068 A 
ATOM     30  C   UNL     1     -37.022  19.095  -2.414  0.00  0.00    +0.152 A 
ATOM     31  C   UNL     1     -38.482  18.033  -0.844  0.00  0.00    +0.006 C 
ATOM     32  C   UNL     1     -37.856  18.733  -3.473  0.00  0.00    +0.038 C 
ATOM     33  C   UNL     1     -39.328  17.662  -1.895  0.00  0.00    +0.000 C 
ATOM     34  C   UNL     1     -39.016  18.012  -3.207  0.00  0.00    +0.003 C 
BRANCH  27  35
ATOM     35  O   UNL     1     -36.744  18.801   1.228  0.00  0.00    -0.506 OA
ATOM     36  H   UNL     1     -37.633  18.569   1.413  0.00  0.00    +0.292 HD
ENDBRANCH  27  35
ENDBRANCH  23  26
BRANCH  23  37
ATOM     37  C   UNL     1     -33.795  19.232   1.573  0.00  0.00    +0.074 C 
BRANCH  37  39
ATOM     38  O   UNL     1     -32.037  17.566   1.631  0.00  0.00    -0.296 OA
ATOM     39  C   UNL     1     -32.438  18.648   1.205  0.00  0.00    +0.152 C 
ATOM     40  C   UNL     1     -31.570  19.499   0.314  0.00  0.00    +0.072 C 
ENDBRANCH  37  39
ENDBRANCH  23  37
ENDBRANCH   1  23
TORSDOF 12
ENDMDL
MODEL 7
REMARK VINA RESULT:      -6.3      2.420      8.795
REMARK  Name = 54704410
REMARK  12 active torsions:
REMARK  status: ('A' for Active; 'I' for Inactive)
REMARK    1  A    between atoms: C_1  and  C_23
REMARK    2  A    between atoms: C_2  and  N_8
REMARK    3  A    between atoms: N_8  and  C_11
REMARK    4  A    between atoms: C_11  and  C_13
REMARK    5  A    between atoms: C_11  and  C_16
REMARK    6  A    between atoms: C_13  and  O_14
REMARK    7  A    between atoms: C_16  and  C_17
REMARK    8  A    between atoms: C_17  and  C_20
REMARK    9  A    between atoms: C_23  and  C_26
REMARK   10  A    between atoms: C_23  and  C_37
REMARK   11  A    between atoms: C_27  and  O_35
REMARK   12  A    between atoms: C_37  and  C_39
REMARK                            x       y       z     vdW  Elec       q    Type
REMARK                         _______ _______ _______ _____ _____    ______ ____
ROOT
ATOM      1  C   UNL     1     -37.800  23.982   2.679  0.00  0.00    -0.018 C 
ATOM      2  C   UNL     1     -40.108  25.253   1.763  0.00  0.00    +0.054 C 
ATOM      3  C   UNL     1     -38.434  24.935   3.475  0.00  0.00    -0.003 C 
ATOM      4  C   UNL     1     -38.320  23.664   1.424  0.00  0.00    -0.003 C 
ATOM      5  C   UNL     1     -39.588  25.570   3.017  0.00  0.00    +0.015 C 
ATOM      6  C   UNL     1     -39.474  24.299   0.966  0.00  0.00    +0.015 C 
ENDROOT
BRANCH   2   8
ATOM      7  O   UNL     1     -42.253  27.521  -0.083  0.00  0.00    -0.275 OA
ATOM      8  N   UNL     1     -41.262  25.889   1.306  0.00  0.00    -0.250 N 
ATOM      9  C   UNL     1     -41.240  26.997   0.389  0.00  0.00    +0.230 C 
ATOM     10  C   UNL     1     -39.899  27.579   0.004  0.00  0.00    +0.095 C 
BRANCH   8  11
ATOM     11  C   UNL     1     -42.590  25.337   1.717  0.00  0.00    +0.179 C 
BRANCH  11  13
ATOM     12  O   UNL     1     -44.433  25.075   0.174  0.00  0.00    -0.248 OA
ATOM     13  C   UNL     1     -43.336  24.687   0.561  0.00  0.00    +0.332 C 
BRANCH  13  14
ATOM     14  O   UNL     1     -42.713  23.614   0.019  0.00  0.00    -0.479 OA
ATOM     15  H   UNL     1     -42.778  22.775   0.432  0.00  0.00    +0.295 HD
ENDBRANCH  13  14
ENDBRANCH  11  13
BRANCH  11  16
ATOM     16  C   UNL     1     -43.456  26.404   2.397  0.00  0.00    +0.041 C 
BRANCH  16  17
ATOM     17  C   UNL     1     -42.922  26.861   3.757  0.00  0.00    +0.087 C 
BRANCH  17  20
ATOM     18  O   UNL     1     -42.271  28.954   4.751  0.00  0.00    -0.275 OA
ATOM     19  N   UNL     1     -43.183  28.987   2.637  0.00  0.00    -0.329 N 
ATOM     20  C   UNL     1     -42.756  28.364   3.787  0.00  0.00    +0.219 C 
ATOM     21  H   UNL     1     -43.119  29.967   2.555  0.00  0.00    +0.145 HD
ATOM     22  H   UNL     1     -43.553  28.454   1.897  0.00  0.00    +0.145 HD
ENDBRANCH  17  20
ENDBRANCH  16  17
ENDBRANCH  11  16
ENDBRANCH   8  11
ENDBRANCH   2   8
BRANCH   1  23
ATOM     23  C   UNL     1     -36.540  23.289   3.177  0.00  0.00    +0.061 C 
BRANCH  23  26
ATOM     24  O   UNL     1     -34.650  24.879   6.047  0.00  0.00    -0.421 OA
ATOM     25  O   UNL     1     -36.039  23.083   5.899  0.00  0.00    -0.245 OA
ATOM     26  C   UNL     1     -35.626  24.262   3.873  0.00  0.00    +0.092 A 
ATOM     27  C   UNL     1     -34.983  25.289   3.285  0.00  0.00    +0.139 A 
ATOM     28  C   UNL     1     -35.470  24.013   5.335  0.00  0.00    +0.345 A 
ATOM     29  C   UNL     1     -34.124  26.183   4.065  0.00  0.00    +0.068 A 
ATOM     30  C   UNL     1     -33.983  25.949   5.429  0.00  0.00    +0.152 A 
ATOM     31  C   UNL     1     -33.431  27.268   3.512  0.00  0.00    +0.006 C 
ATOM     32  C   UNL     1     -33.185  26.754   6.244  0.00  0.00    +0.038 C 
ATOM     33  C   UNL     1     -32.627  28.084   4.315  0.00  0.00    +0.000 C 
ATOM     34  C   UNL     1     -32.504  27.827   5.679  0.00  0.00    +0.003 C 
BRANCH  27  35
ATOM     35  O   UNL     1     -35.058  25.595   1.944  0.00  0.00    -0.506 OA
ATOM     36  H   UNL     1     -34.274  25.681   1.437  0.00  0.00    +0.292 HD
ENDBRANCH  27  35
ENDBRANCH  23  26
BRANCH  23  37
ATOM     37  C   UNL     1     -35.789  22.543   2.058  0.00  0.00    +0.074 C 
BRANCH  37  39
ATOM     38  O   UNL     1     -35.426  20.713   3.604  0.00  0.00    -0.296 OA
ATOM     39  C   UNL     1     -35.304  21.157   2.463  0.00  0.00    +0.152 C 
ATOM     40  C   UNL     1     -34.610  20.357   1.391  0.00  0.00    +0.072 C 
ENDBRANCH  37  39
ENDBRANCH  23  37
ENDBRANCH   1  23
TORSDOF 12
ENDMDL
MODEL 8
REMARK VINA RESULT:      -6.3      4.008      8.191
REMARK  Name = 54704410
REMARK  12 active torsions:
REMARK  status: ('A' for Active; 'I' for Inactive)
REMARK    1  A    between atoms: C_1  and  C_23
REMARK    2  A    between atoms: C_2  and  N_8
REMARK    3  A    between atoms: N_8  and  C_11
REMARK    4  A    between atoms: C_11  and  C_13
REMARK    5  A    between atoms: C_11  and  C_16
REMARK    6  A    between atoms: C_13  and  O_14
REMARK    7  A    between atoms: C_16  and  C_17
REMARK    8  A    between atoms: C_17  and  C_20
REMARK    9  A    between atoms: C_23  and  C_26
REMARK   10  A    between atoms: C_23  and  C_37
REMARK   11  A    between atoms: C_27  and  O_35
REMARK   12  A    between atoms: C_37  and  C_39
REMARK                            x       y       z     vdW  Elec       q    Type
REMARK                         _______ _______ _______ _____ _____    ______ ____
ROOT
ATOM      1  C   UNL     1     -34.157  25.145   3.578  0.00  0.00    -0.018 C 
ATOM      2  C   UNL     1     -32.571  27.337   2.898  0.00  0.00    +0.054 C 
ATOM      3  C   UNL     1     -33.789  26.069   4.555  0.00  0.00    -0.003 C 
ATOM      4  C   UNL     1     -33.733  25.317   2.261  0.00  0.00    -0.003 C 
ATOM      5  C   UNL     1     -32.996  27.165   4.216  0.00  0.00    +0.015 C 
ATOM      6  C   UNL     1     -32.939  26.413   1.920  0.00  0.00    +0.015 C 
ENDROOT
BRANCH   2   8
ATOM      7  O   UNL     1     -29.672  29.276   1.906  0.00  0.00    -0.275 OA
ATOM      8  N   UNL     1     -31.777  28.433   2.560  0.00  0.00    -0.250 N 
ATOM      9  C   UNL     1     -30.371  28.331   2.280  0.00  0.00    +0.230 C 
ATOM     10  C   UNL     1     -29.697  26.993   2.488  0.00  0.00    +0.095 C 
BRANCH   8  11
ATOM     11  C   UNL     1     -32.437  29.765   2.390  0.00  0.00    +0.179 C 
BRANCH  11  13
ATOM     12  O   UNL     1     -32.938  30.567   4.615  0.00  0.00    -0.248 OA
ATOM     13  C   UNL     1     -32.254  30.666   3.602  0.00  0.00    +0.332 C 
BRANCH  13  14
ATOM     14  O   UNL     1     -31.305  31.621   3.457  0.00  0.00    -0.479 OA
ATOM     15  H   UNL     1     -31.078  31.931   2.602  0.00  0.00    +0.295 HD
ENDBRANCH  13  14
ENDBRANCH  11  13
BRANCH  11  16
ATOM     16  C   UNL     1     -33.922  29.614   2.038  0.00  0.00    +0.041 C 
BRANCH  16  17
ATOM     17  C   UNL     1     -34.608  30.932   1.666  0.00  0.00    +0.087 C 
BRANCH  17  20
ATOM     18  O   UNL     1     -36.952  31.404   1.938  0.00  0.00    -0.275 OA
ATOM     19  N   UNL     1     -35.712  30.916   3.816  0.00  0.00    -0.329 N 
ATOM     20  C   UNL     1     -35.879  31.116   2.465  0.00  0.00    +0.219 C 
ATOM     21  H   UNL     1     -36.480  31.012   4.426  0.00  0.00    +0.145 HD
ATOM     22  H   UNL     1     -34.827  30.677   4.173  0.00  0.00    +0.145 HD
ENDBRANCH  17  20
ENDBRANCH  16  17
ENDBRANCH  11  16
ENDBRANCH   8  11
ENDBRANCH   2   8
BRANCH   1  23
ATOM     23  C   UNL     1     -35.022  23.949   3.949  0.00  0.00    +0.061 C 
BRANCH  23  26
ATOM     24  O   UNL     1     -37.836  23.058   1.578  0.00  0.00    -0.421 OA
ATOM     25  O   UNL     1     -35.759  22.197   1.926  0.00  0.00    -0.245 OA
ATOM     26  C   UNL     1     -36.378  24.040   3.301  0.00  0.00    +0.092 A 
ATOM     27  C   UNL     1     -37.336  24.934   3.612  0.00  0.00    +0.139 A 
ATOM     28  C   UNL     1     -36.610  23.028   2.230  0.00  0.00    +0.345 A 
ATOM     29  C   UNL     1     -38.619  24.937   2.905  0.00  0.00    +0.068 A 
ATOM     30  C   UNL     1     -38.831  23.994   1.905  0.00  0.00    +0.152 A 
ATOM     31  C   UNL     1     -39.653  25.842   3.182  0.00  0.00    +0.006 C 
ATOM     32  C   UNL     1     -40.024  23.929   1.183  0.00  0.00    +0.038 C 
ATOM     33  C   UNL     1     -40.855  25.790   2.468  0.00  0.00    +0.000 C 
ATOM     34  C   UNL     1     -41.040  24.836   1.469  0.00  0.00    +0.003 C 
BRANCH  27  35
ATOM     35  O   UNL     1     -37.218  25.899   4.588  0.00  0.00    -0.506 OA
ATOM     36  H   UNL     1     -37.295  26.806   4.363  0.00  0.00    +0.292 HD
ENDBRANCH  27  35
ENDBRANCH  23  26
BRANCH  23  37
ATOM     37  C   UNL     1     -35.159  23.763   5.472  0.00  0.00    +0.074 C 
BRANCH  37  39
ATOM     38  O   UNL     1     -36.249  22.095   6.850  0.00  0.00    -0.296 OA
ATOM     39  C   UNL     1     -35.528  22.345   5.886  0.00  0.00    +0.152 C 
ATOM     40  C   UNL     1     -34.916  21.236   5.069  0.00  0.00    +0.072 C 
ENDBRANCH  37  39
ENDBRANCH  23  37
ENDBRANCH   1  23
TORSDOF 12
ENDMDL
MODEL 9
REMARK VINA RESULT:      -6.3      4.786      9.028
REMARK  Name = 54704410
REMARK  12 active torsions:
REMARK  status: ('A' for Active; 'I' for Inactive)
REMARK    1  A    between atoms: C_1  and  C_23
REMARK    2  A    between atoms: C_2  and  N_8
REMARK    3  A    between atoms: N_8  and  C_11
REMARK    4  A    between atoms: C_11  and  C_13
REMARK    5  A    between atoms: C_11  and  C_16
REMARK    6  A    between atoms: C_13  and  O_14
REMARK    7  A    between atoms: C_16  and  C_17
REMARK    8  A    between atoms: C_17  and  C_20
REMARK    9  A    between atoms: C_23  and  C_26
REMARK   10  A    between atoms: C_23  and  C_37
REMARK   11  A    between atoms: C_27  and  O_35
REMARK   12  A    between atoms: C_37  and  C_39
REMARK                            x       y       z     vdW  Elec       q    Type
REMARK                         _______ _______ _______ _____ _____    ______ ____
ROOT
ATOM      1  C   UNL     1     -35.444  26.236   3.410  0.00  0.00    -0.018 C 
ATOM      2  C   UNL     1     -33.444  28.181   3.428  0.00  0.00    +0.054 C 
ATOM      3  C   UNL     1     -35.520  27.322   2.539  0.00  0.00    -0.003 C 
ATOM      4  C   UNL     1     -34.368  26.121   4.290  0.00  0.00    -0.003 C 
ATOM      5  C   UNL     1     -34.520  28.294   2.547  0.00  0.00    +0.015 C 
ATOM      6  C   UNL     1     -33.367  27.094   4.299  0.00  0.00    +0.015 C 
ENDROOT
BRANCH   2   8
ATOM      7  O   UNL     1     -30.360  29.914   2.631  0.00  0.00    -0.275 OA
ATOM      8  N   UNL     1     -32.445  29.154   3.436  0.00  0.00    -0.250 N 
ATOM      9  C   UNL     1     -31.219  29.031   2.695  0.00  0.00    +0.230 C 
ATOM     10  C   UNL     1     -30.947  27.729   1.976  0.00  0.00    +0.095 C 
BRANCH   8  11
ATOM     11  C   UNL     1     -32.698  30.428   4.179  0.00  0.00    +0.179 C 
BRANCH  11  13
ATOM     12  O   UNL     1     -33.771  31.823   2.521  0.00  0.00    -0.248 OA
ATOM     13  C   UNL     1     -32.807  31.631   3.255  0.00  0.00    +0.332 C 
BRANCH  13  14
ATOM     14  O   UNL     1     -31.732  32.455   3.271  0.00  0.00    -0.479 OA
ATOM     15  H   UNL     1     -31.515  32.957   2.510  0.00  0.00    +0.295 HD
ENDBRANCH  13  14
ENDBRANCH  11  13
BRANCH  11  16
ATOM     16  C   UNL     1     -31.641  30.663   5.264  0.00  0.00    +0.041 C 
BRANCH  16  17
ATOM     17  C   UNL     1     -31.714  29.669   6.427  0.00  0.00    +0.087 C 
BRANCH  17  20
ATOM     18  O   UNL     1     -30.257  27.872   5.766  0.00  0.00    -0.275 OA
ATOM     19  N   UNL     1     -29.554  29.284   7.442  0.00  0.00    -0.329 N 
ATOM     20  C   UNL     1     -30.451  28.839   6.499  0.00  0.00    +0.219 C 
ATOM     21  H   UNL     1     -28.699  28.813   7.569  0.00  0.00    +0.145 HD
ATOM     22  H   UNL     1     -29.767  30.074   7.990  0.00  0.00    +0.145 HD
ENDBRANCH  17  20
ENDBRANCH  16  17
ENDBRANCH  11  16
ENDBRANCH   8  11
ENDBRANCH   2   8
BRANCH   1  23
ATOM     23  C   UNL     1     -36.535  25.175   3.402  0.00  0.00    +0.061 C 
BRANCH  23  26
ATOM     24  O   UNL     1     -35.532  21.530   3.608  0.00  0.00    -0.421 OA
ATOM     25  O   UNL     1     -36.457  22.980   5.098  0.00  0.00    -0.245 OA
ATOM     26  C   UNL     1     -35.998  23.850   2.930  0.00  0.00    +0.092 A 
ATOM     27  C   UNL     1     -35.520  23.592   1.698  0.00  0.00    +0.139 A 
ATOM     28  C   UNL     1     -36.023  22.778   3.968  0.00  0.00    +0.345 A 
ATOM     29  C   UNL     1     -35.011  22.263   1.351  0.00  0.00    +0.068 A 
ATOM     30  C   UNL     1     -35.032  21.268   2.323  0.00  0.00    +0.152 A 
ATOM     31  C   UNL     1     -34.499  21.936   0.088  0.00  0.00    +0.006 C 
ATOM     32  C   UNL     1     -34.565  19.976   2.075  0.00  0.00    +0.038 C 
ATOM     33  C   UNL     1     -34.027  20.645  -0.176  0.00  0.00    +0.000 C 
ATOM     34  C   UNL     1     -34.060  19.667   0.816  0.00  0.00    +0.003 C 
BRANCH  27  35
ATOM     35  O   UNL     1     -35.463  24.512   0.673  0.00  0.00    -0.506 OA
ATOM     36  H   UNL     1     -34.711  25.064   0.578  0.00  0.00    +0.292 HD
ENDBRANCH  27  35
ENDBRANCH  23  26
BRANCH  23  37
ATOM     37  C   UNL     1     -37.763  25.591   2.569  0.00  0.00    +0.074 C 
BRANCH  37  39
ATOM     38  O   UNL     1     -39.609  24.580   3.769  0.00  0.00    -0.296 OA
ATOM     39  C   UNL     1     -38.956  24.659   2.729  0.00  0.00    +0.152 C 
ATOM     40  C   UNL     1     -39.278  23.784   1.545  0.00  0.00    +0.072 C 
ENDBRANCH  37  39
ENDBRANCH  23  37
ENDBRANCH   1  23
TORSDOF 12
ENDMDL
