MODEL 1
REMARK VINA RESULT:      -6.2      0.000      0.000
REMARK  Name = 193235
REMARK  10 active torsions:
REMARK  status: ('A' for Active; 'I' for Inactive)
REMARK    1  A    between atoms: C_2  and  O_8
REMARK    2  A    between atoms: C_2  and  C_21
REMARK    3  A    between atoms: C_3  and  O_10
REMARK    4  A    between atoms: C_5  and  O_12
REMARK    5  A    between atoms: C_6  and  O_14
REMARK    6  A    between atoms: O_14  and  C_15
REMARK    7  A    between atoms: C_21  and  C_23
REMARK    8  A    between atoms: C_30  and  O_34
REMARK    9  A    between atoms: C_31  and  O_36
REMARK   10  A    between atoms: C_32  and  O_38
REMARK                            x       y       z     vdW  Elec       q    Type
REMARK                         _______ _______ _______ _____ _____    ______ ____
ROOT
ATOM      1  O   UNL     1     -33.415  29.092   3.995  0.00  0.00    -0.319 OA
ATOM      2  C   UNL     1     -34.630  27.016   3.472  0.00  0.00    +0.139 C 
ATOM      3  C   UNL     1     -33.804  26.284   4.545  0.00  0.00    +0.170 C 
ATOM      4  C   UNL     1     -33.895  28.266   2.923  0.00  0.00    +0.146 C 
ATOM      5  C   UNL     1     -33.283  27.274   5.591  0.00  0.00    +0.210 C 
ATOM      6  C   UNL     1     -32.555  28.443   4.930  0.00  0.00    +0.318 C 
ATOM      7  C   UNL     1     -32.771  28.010   1.918  0.00  0.00    +0.035 C 
ENDROOT
BRANCH   2   8
ATOM      8  O   UNL     1     -35.822  27.483   4.129  0.00  0.00    -0.382 OA
ATOM      9  H   UNL     1     -36.513  27.646   3.467  0.00  0.00    +0.210 HD
ENDBRANCH   2   8
BRANCH   3  10
ATOM     10  O   UNL     1     -32.709  25.601   3.939  0.00  0.00    -0.379 OA
ATOM     11  H   UNL     1     -31.960  25.579   4.555  0.00  0.00    +0.211 HD
ENDBRANCH   3  10
BRANCH   5  12
ATOM     12  O   UNL     1     -32.398  26.612   6.489  0.00  0.00    -0.377 OA
ATOM     13  H   UNL     1     -32.298  27.142   7.295  0.00  0.00    +0.211 HD
ENDBRANCH   5  12
BRANCH   6  14
ATOM     14  O   UNL     1     -32.192  29.366   5.958  0.00  0.00    -0.451 OA
BRANCH  14  15
ATOM     15  C   UNL     1     -30.915  29.858   5.919  0.00  0.00    +0.141 C 
ATOM     16  C   UNL     1     -30.625  30.960   5.121  0.00  0.00    +0.037 C 
ATOM     17  C   UNL     1     -29.919  29.251   6.677  0.00  0.00    +0.037 C 
ATOM     18  C   UNL     1     -29.323  31.461   5.081  0.00  0.00    +0.003 C 
ATOM     19  C   UNL     1     -28.618  29.752   6.637  0.00  0.00    +0.003 C 
ATOM     20  C   UNL     1     -28.320  30.857   5.840  0.00  0.00    +0.000 C 
ENDBRANCH  14  15
ENDBRANCH   6  14
BRANCH   2  21
ATOM     21  C   UNL     1     -35.081  26.063   2.359  0.00  0.00    +0.015 C 
BRANCH  21  23
ATOM     22  N   UNL     1     -37.491  26.209   1.882  0.00  0.00    +0.390 N 
ATOM     23  C   UNL     1     -36.470  25.480   2.667  0.00  0.00    -0.032 C 
ATOM     24  C   UNL     1     -36.469  23.973   2.462  0.00  0.00    -0.039 C 
ATOM     25  C   UNL     1     -37.557  25.732   0.496  0.00  0.00    -0.072 C 
ATOM     26  C   UNL     1     -37.101  23.393   1.349  0.00  0.00    +0.007 C 
ATOM     27  C   UNL     1     -37.874  24.239   0.372  0.00  0.00    +0.006 C 
ATOM     28  C   UNL     1     -38.801  26.190   2.534  0.00  0.00    -0.100 C 
ATOM     29  C   UNL     1     -35.805  23.145   3.382  0.00  0.00    +0.034 C 
ATOM     30  C   UNL     1     -37.070  22.001   1.180  0.00  0.00    +0.171 C 
ATOM     31  C   UNL     1     -35.774  21.763   3.200  0.00  0.00    +0.175 C 
ATOM     32  C   UNL     1     -36.405  21.191   2.099  0.00  0.00    +0.206 C 
ATOM     33  H   UNL     1     -37.196  27.185   1.845  0.00  0.00    -0.079 HD
BRANCH  30  34
ATOM     34  O   UNL     1     -37.694  21.419   0.114  0.00  0.00    -0.469 OA
ATOM     35  C   UNL     1     -39.025  20.951   0.322  0.00  0.00    +0.253 C 
ENDBRANCH  30  34
BRANCH  31  36
ATOM     36  O   UNL     1     -35.122  20.983   4.107  0.00  0.00    -0.468 OA
ATOM     37  C   UNL     1     -35.125  21.425   5.462  0.00  0.00    +0.253 C 
ENDBRANCH  31  36
BRANCH  32  38
ATOM     38  O   UNL     1     -36.380  19.838   1.926  0.00  0.00    -0.465 OA
ATOM     39  C   UNL     1     -35.392  19.317   1.041  0.00  0.00    +0.253 C 
ENDBRANCH  32  38
ENDBRANCH  21  23
ENDBRANCH   2  21
TORSDOF 10
ENDMDL
MODEL 2
REMARK VINA RESULT:      -6.1      2.935      9.549
REMARK  Name = 193235
REMARK  10 active torsions:
REMARK  status: ('A' for Active; 'I' for Inactive)
REMARK    1  A    between atoms: C_2  and  O_8
REMARK    2  A    between atoms: C_2  and  C_21
REMARK    3  A    between atoms: C_3  and  O_10
REMARK    4  A    between atoms: C_5  and  O_12
REMARK    5  A    between atoms: C_6  and  O_14
REMARK    6  A    between atoms: O_14  and  C_15
REMARK    7  A    between atoms: C_21  and  C_23
REMARK    8  A    between atoms: C_30  and  O_34
REMARK    9  A    between atoms: C_31  and  O_36
REMARK   10  A    between atoms: C_32  and  O_38
REMARK                            x       y       z     vdW  Elec       q    Type
REMARK                         _______ _______ _______ _____ _____    ______ ____
ROOT
ATOM      1  O   UNL     1     -34.078  24.487   3.685  0.00  0.00    -0.319 OA
ATOM      2  C   UNL     1     -33.405  26.827   4.046  0.00  0.00    +0.139 C 
ATOM      3  C   UNL     1     -34.883  27.200   4.258  0.00  0.00    +0.170 C 
ATOM      4  C   UNL     1     -33.245  25.546   3.187  0.00  0.00    +0.146 C 
ATOM      5  C   UNL     1     -35.686  25.977   4.715  0.00  0.00    +0.210 C 
ATOM      6  C   UNL     1     -35.467  24.792   3.776  0.00  0.00    +0.318 C 
ATOM      7  C   UNL     1     -33.447  25.704   1.681  0.00  0.00    +0.035 C 
ENDROOT
BRANCH   2   8
ATOM      8  O   UNL     1     -32.872  26.531   5.349  0.00  0.00    -0.382 OA
ATOM      9  H   UNL     1     -32.474  25.646   5.342  0.00  0.00    +0.210 HD
ENDBRANCH   2   8
BRANCH   3  10
ATOM     10  O   UNL     1     -35.437  27.718   3.050  0.00  0.00    -0.379 OA
ATOM     11  H   UNL     1     -35.434  27.026   2.371  0.00  0.00    +0.211 HD
ENDBRANCH   3  10
BRANCH   5  12
ATOM     12  O   UNL     1     -37.073  26.296   4.761  0.00  0.00    -0.377 OA
ATOM     13  H   UNL     1     -37.303  26.616   5.647  0.00  0.00    +0.211 HD
ENDBRANCH   5  12
BRANCH   6  14
ATOM     14  O   UNL     1     -36.164  23.671   4.322  0.00  0.00    -0.451 OA
BRANCH  14  15
ATOM     15  C   UNL     1     -36.452  22.647   3.461  0.00  0.00    +0.141 C 
ATOM     16  C   UNL     1     -37.620  22.689   2.706  0.00  0.00    +0.037 C 
ATOM     17  C   UNL     1     -35.576  21.572   3.349  0.00  0.00    +0.037 C 
ATOM     18  C   UNL     1     -37.915  21.645   1.829  0.00  0.00    +0.003 C 
ATOM     19  C   UNL     1     -35.871  20.528   2.472  0.00  0.00    +0.003 C 
ATOM     20  C   UNL     1     -37.039  20.565   1.712  0.00  0.00    +0.000 C 
ENDBRANCH  14  15
ENDBRANCH   6  14
BRANCH   2  21
ATOM     21  C   UNL     1     -32.598  28.008   3.494  0.00  0.00    +0.015 C 
BRANCH  21  23
ATOM     22  N   UNL     1     -31.444  29.074   5.388  0.00  0.00    +0.390 N 
ATOM     23  C   UNL     1     -32.608  29.186   4.482  0.00  0.00    -0.032 C 
ATOM     24  C   UNL     1     -32.702  30.505   3.732  0.00  0.00    -0.039 C 
ATOM     25  C   UNL     1     -30.212  29.564   4.758  0.00  0.00    -0.072 C 
ATOM     26  C   UNL     1     -31.588  31.354   3.615  0.00  0.00    +0.007 C 
ATOM     27  C   UNL     1     -30.290  31.023   4.304  0.00  0.00    +0.006 C 
ATOM     28  C   UNL     1     -31.691  29.711   6.682  0.00  0.00    -0.100 C 
ATOM     29  C   UNL     1     -33.912  30.876   3.122  0.00  0.00    +0.034 C 
ATOM     30  C   UNL     1     -31.703  32.557   2.904  0.00  0.00    +0.171 C 
ATOM     31  C   UNL     1     -34.013  32.071   2.410  0.00  0.00    +0.175 C 
ATOM     32  C   UNL     1     -32.908  32.911   2.301  0.00  0.00    +0.206 C 
ATOM     33  H   UNL     1     -31.306  28.080   5.572  0.00  0.00    -0.079 HD
BRANCH  30  34
ATOM     34  O   UNL     1     -30.635  33.402   2.796  0.00  0.00    -0.469 OA
ATOM     35  C   UNL     1     -29.823  33.270   1.632  0.00  0.00    +0.253 C 
ENDBRANCH  30  34
BRANCH  31  36
ATOM     36  O   UNL     1     -35.198  32.405   1.827  0.00  0.00    -0.468 OA
ATOM     37  C   UNL     1     -36.280  31.491   1.991  0.00  0.00    +0.253 C 
ENDBRANCH  31  36
BRANCH  32  38
ATOM     38  O   UNL     1     -33.010  34.083   1.612  0.00  0.00    -0.465 OA
ATOM     39  C   UNL     1     -33.388  35.240   2.356  0.00  0.00    +0.253 C 
ENDBRANCH  32  38
ENDBRANCH  21  23
ENDBRANCH   2  21
TORSDOF 10
ENDMDL
MODEL 3
REMARK VINA RESULT:      -6.1      3.050      9.635
REMARK  Name = 193235
REMARK  10 active torsions:
REMARK  status: ('A' for Active; 'I' for Inactive)
REMARK    1  A    between atoms: C_2  and  O_8
REMARK    2  A    between atoms: C_2  and  C_21
REMARK    3  A    between atoms: C_3  and  O_10
REMARK    4  A    between atoms: C_5  and  O_12
REMARK    5  A    between atoms: C_6  and  O_14
REMARK    6  A    between atoms: O_14  and  C_15
REMARK    7  A    between atoms: C_21  and  C_23
REMARK    8  A    between atoms: C_30  and  O_34
REMARK    9  A    between atoms: C_31  and  O_36
REMARK   10  A    between atoms: C_32  and  O_38
REMARK                            x       y       z     vdW  Elec       q    Type
REMARK                         _______ _______ _______ _____ _____    ______ ____
ROOT
ATOM      1  O   UNL     1     -34.007  25.095   3.302  0.00  0.00    -0.319 OA
ATOM      2  C   UNL     1     -33.328  27.437   3.637  0.00  0.00    +0.139 C 
ATOM      3  C   UNL     1     -34.693  27.891   3.089  0.00  0.00    +0.170 C 
ATOM      4  C   UNL     1     -32.933  26.030   3.120  0.00  0.00    +0.146 C 
ATOM      5  C   UNL     1     -35.740  26.787   3.270  0.00  0.00    +0.210 C 
ATOM      6  C   UNL     1     -35.245  25.460   2.698  0.00  0.00    +0.318 C 
ATOM      7  C   UNL     1     -32.411  25.951   1.686  0.00  0.00    +0.035 C 
ENDROOT
BRANCH   2   8
ATOM      8  O   UNL     1     -33.480  27.336   5.064  0.00  0.00    -0.382 OA
ATOM      9  H   UNL     1     -34.402  27.521   5.305  0.00  0.00    +0.210 HD
ENDBRANCH   2   8
BRANCH   3  10
ATOM     10  O   UNL     1     -34.580  28.228   1.708  0.00  0.00    -0.379 OA
ATOM     11  H   UNL     1     -35.465  28.279   1.314  0.00  0.00    +0.211 HD
ENDBRANCH   3  10
BRANCH   5  12
ATOM     12  O   UNL     1     -36.955  27.158   2.625  0.00  0.00    -0.377 OA
ATOM     13  H   UNL     1     -37.281  26.414   2.095  0.00  0.00    +0.211 HD
ENDBRANCH   5  12
BRANCH   6  14
ATOM     14  O   UNL     1     -36.229  24.466   2.994  0.00  0.00    -0.451 OA
BRANCH  14  15
ATOM     15  C   UNL     1     -35.869  23.493   3.887  0.00  0.00    +0.141 C 
ATOM     16  C   UNL     1     -35.777  23.799   5.241  0.00  0.00    +0.037 C 
ATOM     17  C   UNL     1     -35.597  22.207   3.433  0.00  0.00    +0.037 C 
ATOM     18  C   UNL     1     -35.410  22.808   6.151  0.00  0.00    +0.003 C 
ATOM     19  C   UNL     1     -35.231  21.215   4.342  0.00  0.00    +0.003 C 
ATOM     20  C   UNL     1     -35.138  21.515   5.701  0.00  0.00    +0.000 C 
ENDBRANCH  14  15
ENDBRANCH   6  14
BRANCH   2  21
ATOM     21  C   UNL     1     -32.240  28.485   3.380  0.00  0.00    +0.015 C 
BRANCH  21  23
ATOM     22  N   UNL     1     -31.266  29.257   5.503  0.00  0.00    +0.390 N 
ATOM     23  C   UNL     1     -32.265  29.578   4.461  0.00  0.00    -0.032 C 
ATOM     24  C   UNL     1     -32.104  30.951   3.829  0.00  0.00    -0.039 C 
ATOM     25  C   UNL     1     -29.909  29.641   5.096  0.00  0.00    -0.072 C 
ATOM     26  C   UNL     1     -30.899  31.666   3.944  0.00  0.00    +0.007 C 
ATOM     27  C   UNL     1     -29.761  31.129   4.771  0.00  0.00    +0.006 C 
ATOM     28  C   UNL     1     -31.629  29.820   6.805  0.00  0.00    -0.100 C 
ATOM     29  C   UNL     1     -33.164  31.510   3.096  0.00  0.00    +0.034 C 
ATOM     30  C   UNL     1     -30.777  32.924   3.338  0.00  0.00    +0.171 C 
ATOM     31  C   UNL     1     -33.029  32.759   2.491  0.00  0.00    +0.175 C 
ATOM     32  C   UNL     1     -31.835  33.466   2.611  0.00  0.00    +0.206 C 
ATOM     33  H   UNL     1     -31.266  28.243   5.612  0.00  0.00    -0.079 HD
BRANCH  30  34
ATOM     34  O   UNL     1     -29.619  33.639   3.455  0.00  0.00    -0.469 OA
ATOM     35  C   UNL     1     -28.665  33.498   2.405  0.00  0.00    +0.253 C 
ENDBRANCH  30  34
BRANCH  31  36
ATOM     36  O   UNL     1     -34.072  33.277   1.784  0.00  0.00    -0.468 OA
ATOM     37  C   UNL     1     -35.180  32.414   1.540  0.00  0.00    +0.253 C 
ENDBRANCH  31  36
BRANCH  32  38
ATOM     38  O   UNL     1     -31.707  34.690   2.025  0.00  0.00    -0.465 OA
ATOM     39  C   UNL     1     -32.060  35.824   2.814  0.00  0.00    +0.253 C 
ENDBRANCH  32  38
ENDBRANCH  21  23
ENDBRANCH   2  21
TORSDOF 10
ENDMDL
MODEL 4
REMARK VINA RESULT:      -5.9      4.315      7.912
REMARK  Name = 193235
REMARK  10 active torsions:
REMARK  status: ('A' for Active; 'I' for Inactive)
REMARK    1  A    between atoms: C_2  and  O_8
REMARK    2  A    between atoms: C_2  and  C_21
REMARK    3  A    between atoms: C_3  and  O_10
REMARK    4  A    between atoms: C_5  and  O_12
REMARK    5  A    between atoms: C_6  and  O_14
REMARK    6  A    between atoms: O_14  and  C_15
REMARK    7  A    between atoms: C_21  and  C_23
REMARK    8  A    between atoms: C_30  and  O_34
REMARK    9  A    between atoms: C_31  and  O_36
REMARK   10  A    between atoms: C_32  and  O_38
REMARK                            x       y       z     vdW  Elec       q    Type
REMARK                         _______ _______ _______ _____ _____    ______ ____
ROOT
ATOM      1  O   UNL     1     -36.797  22.561   1.125  0.00  0.00    -0.319 OA
ATOM      2  C   UNL     1     -36.407  20.226   0.450  0.00  0.00    +0.139 C 
ATOM      3  C   UNL     1     -35.766  19.956   1.823  0.00  0.00    +0.170 C 
ATOM      4  C   UNL     1     -36.330  21.724   0.056  0.00  0.00    +0.146 C 
ATOM      5  C   UNL     1     -36.281  20.955   2.864  0.00  0.00    +0.210 C 
ATOM      6  C   UNL     1     -36.126  22.393   2.371  0.00  0.00    +0.318 C 
ATOM      7  C   UNL     1     -34.978  22.227  -0.449  0.00  0.00    +0.035 C 
ENDROOT
BRANCH   2   8
ATOM      8  O   UNL     1     -37.802  19.896   0.584  0.00  0.00    -0.382 OA
ATOM      9  H   UNL     1     -38.337  20.692   0.434  0.00  0.00    +0.210 HD
ENDBRANCH   2   8
BRANCH   3  10
ATOM     10  O   UNL     1     -34.346  20.047   1.728  0.00  0.00    -0.379 OA
ATOM     11  H   UNL     1     -33.941  19.571   2.469  0.00  0.00    +0.211 HD
ENDBRANCH   3  10
BRANCH   5  12
ATOM     12  O   UNL     1     -35.571  20.793   4.087  0.00  0.00    -0.377 OA
ATOM     13  H   UNL     1     -35.720  21.567   4.653  0.00  0.00    +0.211 HD
ENDBRANCH   5  12
BRANCH   6  14
ATOM     14  O   UNL     1     -36.718  23.252   3.347  0.00  0.00    -0.451 OA
BRANCH  14  15
ATOM     15  C   UNL     1     -35.893  24.170   3.941  0.00  0.00    +0.141 C 
ATOM     16  C   UNL     1     -36.344  24.892   5.041  0.00  0.00    +0.037 C 
ATOM     17  C   UNL     1     -34.613  24.372   3.437  0.00  0.00    +0.037 C 
ATOM     18  C   UNL     1     -35.504  25.827   5.645  0.00  0.00    +0.003 C 
ATOM     19  C   UNL     1     -33.772  25.307   4.042  0.00  0.00    +0.003 C 
ATOM     20  C   UNL     1     -34.218  26.034   5.146  0.00  0.00    +0.000 C 
ENDBRANCH  14  15
ENDBRANCH   6  14
BRANCH   2  21
ATOM     21  C   UNL     1     -35.835  19.303  -0.632  0.00  0.00    +0.015 C 
BRANCH  21  23
ATOM     22  N   UNL     1     -37.292  17.342  -0.921  0.00  0.00    +0.390 N 
ATOM     23  C   UNL     1     -36.057  17.826  -0.266  0.00  0.00    -0.032 C 
ATOM     24  C   UNL     1     -34.813  17.011  -0.576  0.00  0.00    -0.039 C 
ATOM     25  C   UNL     1     -37.064  16.996  -2.330  0.00  0.00    -0.072 C 
ATOM     26  C   UNL     1     -34.772  16.139  -1.678  0.00  0.00    +0.007 C 
ATOM     27  C   UNL     1     -35.992  15.922  -2.534  0.00  0.00    +0.006 C 
ATOM     28  C   UNL     1     -37.913  16.244  -0.179  0.00  0.00    -0.100 C 
ATOM     29  C   UNL     1     -33.672  17.144   0.234  0.00  0.00    +0.034 C 
ATOM     30  C   UNL     1     -33.604  15.412  -1.946  0.00  0.00    +0.171 C 
ATOM     31  C   UNL     1     -32.513  16.421  -0.047  0.00  0.00    +0.175 C 
ATOM     32  C   UNL     1     -32.479  15.556  -1.137  0.00  0.00    +0.206 C 
ATOM     33  H   UNL     1     -37.957  18.115  -0.911  0.00  0.00    -0.079 HD
BRANCH  30  34
ATOM     34  O   UNL     1     -33.554  14.547  -3.003  0.00  0.00    -0.469 OA
ATOM     35  C   UNL     1     -33.023  15.053  -4.225  0.00  0.00    +0.253 C 
ENDBRANCH  30  34
BRANCH  31  36
ATOM     36  O   UNL     1     -31.421  16.571   0.753  0.00  0.00    -0.468 OA
ATOM     37  C   UNL     1     -30.825  17.865   0.799  0.00  0.00    +0.253 C 
ENDBRANCH  31  36
BRANCH  32  38
ATOM     38  O   UNL     1     -31.347  14.844  -1.406  0.00  0.00    -0.465 OA
ATOM     39  C   UNL     1     -31.211  13.580  -0.759  0.00  0.00    +0.253 C 
ENDBRANCH  32  38
ENDBRANCH  21  23
ENDBRANCH   2  21
TORSDOF 10
ENDMDL
MODEL 5
REMARK VINA RESULT:      -5.9      2.657      4.956
REMARK  Name = 193235
REMARK  10 active torsions:
REMARK  status: ('A' for Active; 'I' for Inactive)
REMARK    1  A    between atoms: C_2  and  O_8
REMARK    2  A    between atoms: C_2  and  C_21
REMARK    3  A    between atoms: C_3  and  O_10
REMARK    4  A    between atoms: C_5  and  O_12
REMARK    5  A    between atoms: C_6  and  O_14
REMARK    6  A    between atoms: O_14  and  C_15
REMARK    7  A    between atoms: C_21  and  C_23
REMARK    8  A    between atoms: C_30  and  O_34
REMARK    9  A    between atoms: C_31  and  O_36
REMARK   10  A    between atoms: C_32  and  O_38
REMARK                            x       y       z     vdW  Elec       q    Type
REMARK                         _______ _______ _______ _____ _____    ______ ____
ROOT
ATOM      1  O   UNL     1     -33.709  25.523   4.706  0.00  0.00    -0.319 OA
ATOM      2  C   UNL     1     -35.525  24.848   3.186  0.00  0.00    +0.139 C 
ATOM      3  C   UNL     1     -35.364  26.180   2.433  0.00  0.00    +0.170 C 
ATOM      4  C   UNL     1     -35.021  24.943   4.650  0.00  0.00    +0.146 C 
ATOM      5  C   UNL     1     -33.951  26.741   2.625  0.00  0.00    +0.210 C 
ATOM      6  C   UNL     1     -33.583  26.811   4.106  0.00  0.00    +0.318 C 
ATOM      7  C   UNL     1     -35.945  25.645   5.645  0.00  0.00    +0.035 C 
ENDROOT
BRANCH   2   8
ATOM      8  O   UNL     1     -34.681  23.898   2.511  0.00  0.00    -0.382 OA
ATOM      9  H   UNL     1     -34.781  23.026   2.925  0.00  0.00    +0.210 HD
ENDBRANCH   2   8
BRANCH   3  10
ATOM     10  O   UNL     1     -36.326  27.125   2.896  0.00  0.00    -0.379 OA
ATOM     11  H   UNL     1     -35.909  27.725   3.534  0.00  0.00    +0.211 HD
ENDBRANCH   3  10
BRANCH   5  12
ATOM     12  O   UNL     1     -33.862  28.042   2.052  0.00  0.00    -0.377 OA
ATOM     13  H   UNL     1     -33.979  27.981   1.092  0.00  0.00    +0.211 HD
ENDBRANCH   5  12
BRANCH   6  14
ATOM     14  O   UNL     1     -32.225  27.244   4.196  0.00  0.00    -0.451 OA
BRANCH  14  15
ATOM     15  C   UNL     1     -31.991  28.389   4.909  0.00  0.00    +0.141 C 
ATOM     16  C   UNL     1     -31.861  28.325   6.293  0.00  0.00    +0.037 C 
ATOM     17  C   UNL     1     -31.886  29.606   4.245  0.00  0.00    +0.037 C 
ATOM     18  C   UNL     1     -31.623  29.491   7.020  0.00  0.00    +0.003 C 
ATOM     19  C   UNL     1     -31.648  30.773   4.972  0.00  0.00    +0.003 C 
ATOM     20  C   UNL     1     -31.516  30.715   6.359  0.00  0.00    +0.000 C 
ENDBRANCH  14  15
ENDBRANCH   6  14
BRANCH   2  21
ATOM     21  C   UNL     1     -36.958  24.315   3.091  0.00  0.00    +0.015 C 
BRANCH  21  23
ATOM     22  N   UNL     1     -37.246  22.479   1.479  0.00  0.00    +0.390 N 
ATOM     23  C   UNL     1     -37.311  23.948   1.640  0.00  0.00    -0.032 C 
ATOM     24  C   UNL     1     -38.640  24.571   1.245  0.00  0.00    -0.039 C 
ATOM     25  C   UNL     1     -38.459  21.820   1.979  0.00  0.00    -0.072 C 
ATOM     26  C   UNL     1     -39.801  23.788   1.123  0.00  0.00    +0.007 C 
ATOM     27  C   UNL     1     -39.744  22.293   1.295  0.00  0.00    +0.006 C 
ATOM     28  C   UNL     1     -36.937  22.091   0.101  0.00  0.00    -0.100 C 
ATOM     29  C   UNL     1     -38.722  25.956   1.021  0.00  0.00    +0.034 C 
ATOM     30  C   UNL     1     -41.014  24.395   0.770  0.00  0.00    +0.171 C 
ATOM     31  C   UNL     1     -39.936  26.550   0.679  0.00  0.00    +0.175 C 
ATOM     32  C   UNL     1     -41.083  25.770   0.555  0.00  0.00    +0.206 C 
ATOM     33  H   UNL     1     -36.472  22.150   2.056  0.00  0.00    -0.079 HD
BRANCH  30  34
ATOM     34  O   UNL     1     -42.148  23.646   0.630  0.00  0.00    -0.469 OA
ATOM     35  C   UNL     1     -42.500  23.250  -0.693  0.00  0.00    +0.253 C 
ENDBRANCH  30  34
BRANCH  31  36
ATOM     36  O   UNL     1     -39.987  27.895   0.470  0.00  0.00    -0.468 OA
ATOM     37  C   UNL     1     -39.011  28.451  -0.408  0.00  0.00    +0.253 C 
ENDBRANCH  31  36
BRANCH  32  38
ATOM     38  O   UNL     1     -42.267  26.352   0.212  0.00  0.00    -0.465 OA
ATOM     39  C   UNL     1     -43.091  26.817   1.279  0.00  0.00    +0.253 C 
ENDBRANCH  32  38
ENDBRANCH  21  23
ENDBRANCH   2  21
TORSDOF 10
ENDMDL
MODEL 6
REMARK VINA RESULT:      -5.9      1.695      2.619
REMARK  Name = 193235
REMARK  10 active torsions:
REMARK  status: ('A' for Active; 'I' for Inactive)
REMARK    1  A    between atoms: C_2  and  O_8
REMARK    2  A    between atoms: C_2  and  C_21
REMARK    3  A    between atoms: C_3  and  O_10
REMARK    4  A    between atoms: C_5  and  O_12
REMARK    5  A    between atoms: C_6  and  O_14
REMARK    6  A    between atoms: O_14  and  C_15
REMARK    7  A    between atoms: C_21  and  C_23
REMARK    8  A    between atoms: C_30  and  O_34
REMARK    9  A    between atoms: C_31  and  O_36
REMARK   10  A    between atoms: C_32  and  O_38
REMARK                            x       y       z     vdW  Elec       q    Type
REMARK                         _______ _______ _______ _____ _____    ______ ____
ROOT
ATOM      1  O   UNL     1     -34.689  27.683   4.129  0.00  0.00    -0.319 OA
ATOM      2  C   UNL     1     -36.338  26.083   3.243  0.00  0.00    +0.139 C 
ATOM      3  C   UNL     1     -35.422  24.926   3.679  0.00  0.00    +0.170 C 
ATOM      4  C   UNL     1     -35.547  27.397   3.013  0.00  0.00    +0.146 C 
ATOM      5  C   UNL     1     -34.502  25.369   4.822  0.00  0.00    +0.210 C 
ATOM      6  C   UNL     1     -33.760  26.655   4.465  0.00  0.00    +0.318 C 
ATOM      7  C   UNL     1     -34.757  27.498   1.709  0.00  0.00    +0.035 C 
ENDROOT
BRANCH   2   8
ATOM      8  O   UNL     1     -37.239  26.320   4.340  0.00  0.00    -0.382 OA
ATOM      9  H   UNL     1     -37.924  25.631   4.349  0.00  0.00    +0.210 HD
ENDBRANCH   2   8
BRANCH   3  10
ATOM     10  O   UNL     1     -34.639  24.477   2.575  0.00  0.00    -0.379 OA
ATOM     11  H   UNL     1     -33.752  24.237   2.885  0.00  0.00    +0.211 HD
ENDBRANCH   3  10
BRANCH   5  12
ATOM     12  O   UNL     1     -33.559  24.342   5.113  0.00  0.00    -0.377 OA
ATOM     13  H   UNL     1     -33.276  23.919   4.287  0.00  0.00    +0.211 HD
ENDBRANCH   5  12
BRANCH   6  14
ATOM     14  O   UNL     1     -33.007  27.054   5.611  0.00  0.00    -0.451 OA
BRANCH  14  15
ATOM     15  C   UNL     1     -32.133  28.095   5.442  0.00  0.00    +0.141 C 
ATOM     16  C   UNL     1     -31.855  28.942   6.509  0.00  0.00    +0.037 C 
ATOM     17  C   UNL     1     -31.533  28.296   4.203  0.00  0.00    +0.037 C 
ATOM     18  C   UNL     1     -30.966  30.003   6.337  0.00  0.00    +0.003 C 
ATOM     19  C   UNL     1     -30.643  29.357   4.031  0.00  0.00    +0.003 C 
ATOM     20  C   UNL     1     -30.359  30.209   5.097  0.00  0.00    +0.000 C 
ENDBRANCH  14  15
ENDBRANCH   6  14
BRANCH   2  21
ATOM     21  C   UNL     1     -37.200  25.697   2.036  0.00  0.00    +0.015 C 
BRANCH  21  23
ATOM     22  N   UNL     1     -39.629  26.007   2.272  0.00  0.00    +0.390 N 
ATOM     23  C   UNL     1     -38.520  25.052   2.489  0.00  0.00    -0.032 C 
ATOM     24  C   UNL     1     -38.706  23.700   1.819  0.00  0.00    -0.039 C 
ATOM     25  C   UNL     1     -40.074  26.019   0.873  0.00  0.00    -0.072 C 
ATOM     26  C   UNL     1     -39.640  23.527   0.783  0.00  0.00    +0.007 C 
ATOM     27  C   UNL     1     -40.546  24.655   0.364  0.00  0.00    +0.006 C 
ATOM     28  C   UNL     1     -40.739  25.779   3.200  0.00  0.00    -0.100 C 
ATOM     29  C   UNL     1     -37.918  22.609   2.220  0.00  0.00    +0.034 C 
ATOM     30  C   UNL     1     -39.778  22.271   0.175  0.00  0.00    +0.171 C 
ATOM     31  C   UNL     1     -38.059  21.366   1.603  0.00  0.00    +0.175 C 
ATOM     32  C   UNL     1     -38.988  21.198   0.580  0.00  0.00    +0.206 C 
ATOM     33  H   UNL     1     -39.264  26.937   2.475  0.00  0.00    -0.079 HD
BRANCH  30  34
ATOM     34  O   UNL     1     -40.693  22.081  -0.822  0.00  0.00    -0.469 OA
ATOM     35  C   UNL     1     -40.261  22.349  -2.153  0.00  0.00    +0.253 C 
ENDBRANCH  30  34
BRANCH  31  36
ATOM     36  O   UNL     1     -37.280  20.325   2.010  0.00  0.00    -0.468 OA
ATOM     37  C   UNL     1     -35.918  20.616   2.316  0.00  0.00    +0.253 C 
ENDBRANCH  31  36
BRANCH  32  38
ATOM     38  O   UNL     1     -39.129  19.980  -0.017  0.00  0.00    -0.465 OA
ATOM     39  C   UNL     1     -38.158  19.624  -0.998  0.00  0.00    +0.253 C 
ENDBRANCH  32  38
ENDBRANCH  21  23
ENDBRANCH   2  21
TORSDOF 10
ENDMDL
MODEL 7
REMARK VINA RESULT:      -5.7      2.411      9.963
REMARK  Name = 193235
REMARK  10 active torsions:
REMARK  status: ('A' for Active; 'I' for Inactive)
REMARK    1  A    between atoms: C_2  and  O_8
REMARK    2  A    between atoms: C_2  and  C_21
REMARK    3  A    between atoms: C_3  and  O_10
REMARK    4  A    between atoms: C_5  and  O_12
REMARK    5  A    between atoms: C_6  and  O_14
REMARK    6  A    between atoms: O_14  and  C_15
REMARK    7  A    between atoms: C_21  and  C_23
REMARK    8  A    between atoms: C_30  and  O_34
REMARK    9  A    between atoms: C_31  and  O_36
REMARK   10  A    between atoms: C_32  and  O_38
REMARK                            x       y       z     vdW  Elec       q    Type
REMARK                         _______ _______ _______ _____ _____    ______ ____
ROOT
ATOM      1  O   UNL     1     -37.058  21.013  -0.018  0.00  0.00    -0.319 OA
ATOM      2  C   UNL     1     -35.477  22.012   1.582  0.00  0.00    +0.139 C 
ATOM      3  C   UNL     1     -34.851  20.623   1.803  0.00  0.00    +0.170 C 
ATOM      4  C   UNL     1     -36.944  21.919   1.091  0.00  0.00    +0.146 C 
ATOM      5  C   UNL     1     -35.101  19.722   0.589  0.00  0.00    +0.210 C 
ATOM      6  C   UNL     1     -36.583  19.691   0.221  0.00  0.00    +0.318 C 
ATOM      7  C   UNL     1     -37.998  21.585   2.147  0.00  0.00    +0.035 C 
ENDROOT
BRANCH   2   8
ATOM      8  O   UNL     1     -34.717  22.633   0.529  0.00  0.00    -0.382 OA
ATOM      9  H   UNL     1     -34.968  23.569   0.460  0.00  0.00    +0.210 HD
ENDBRANCH   2   8
BRANCH   3  10
ATOM     10  O   UNL     1     -35.398  20.019   2.973  0.00  0.00    -0.379 OA
ATOM     11  H   UNL     1     -34.836  19.277   3.247  0.00  0.00    +0.211 HD
ENDBRANCH   3  10
BRANCH   5  12
ATOM     12  O   UNL     1     -34.653  18.398   0.865  0.00  0.00    -0.377 OA
ATOM     13  H   UNL     1     -33.748  18.429   1.213  0.00  0.00    +0.211 HD
ENDBRANCH   5  12
BRANCH   6  14
ATOM     14  O   UNL     1     -36.718  18.917  -0.973  0.00  0.00    -0.451 OA
BRANCH  14  15
ATOM     15  C   UNL     1     -37.714  17.978  -0.988  0.00  0.00    +0.141 C 
ATOM     16  C   UNL     1     -38.916  18.259  -1.629  0.00  0.00    +0.037 C 
ATOM     17  C   UNL     1     -37.516  16.752  -0.361  0.00  0.00    +0.037 C 
ATOM     18  C   UNL     1     -39.932  17.303  -1.644  0.00  0.00    +0.003 C 
ATOM     19  C   UNL     1     -38.531  15.796  -0.376  0.00  0.00    +0.003 C 
ATOM     20  C   UNL     1     -39.739  16.071  -1.018  0.00  0.00    +0.000 C 
ENDBRANCH  14  15
ENDBRANCH   6  14
BRANCH   2  21
ATOM     21  C   UNL     1     -35.327  22.901   2.822  0.00  0.00    +0.015 C 
BRANCH  21  23
ATOM     22  N   UNL     1     -36.896  24.765   3.169  0.00  0.00    +0.390 N 
ATOM     23  C   UNL     1     -35.646  24.367   2.485  0.00  0.00    -0.032 C 
ATOM     24  C   UNL     1     -34.448  25.253   2.789  0.00  0.00    -0.039 C 
ATOM     25  C   UNL     1     -36.664  25.100   4.579  0.00  0.00    -0.072 C 
ATOM     26  C   UNL     1     -34.442  26.107   3.905  0.00  0.00    +0.007 C 
ATOM     27  C   UNL     1     -35.657  26.234   4.785  0.00  0.00    +0.006 C 
ATOM     28  C   UNL     1     -37.596  25.835   2.456  0.00  0.00    -0.100 C 
ATOM     29  C   UNL     1     -33.316  25.203   1.959  0.00  0.00    +0.034 C 
ATOM     30  C   UNL     1     -33.316  26.900   4.166  0.00  0.00    +0.171 C 
ATOM     31  C   UNL     1     -32.198  25.991   2.233  0.00  0.00    +0.175 C 
ATOM     32  C   UNL     1     -32.198  26.839   3.337  0.00  0.00    +0.206 C 
ATOM     33  H   UNL     1     -37.513  23.952   3.156  0.00  0.00    -0.079 HD
BRANCH  30  34
ATOM     34  O   UNL     1     -33.300  27.749   5.237  0.00  0.00    -0.469 OA
ATOM     35  C   UNL     1     -32.609  27.304   6.402  0.00  0.00    +0.253 C 
ENDBRANCH  30  34
BRANCH  31  36
ATOM     36  O   UNL     1     -31.113  25.921   1.412  0.00  0.00    -0.468 OA
ATOM     37  C   UNL     1     -31.297  26.333   0.060  0.00  0.00    +0.253 C 
ENDBRANCH  31  36
BRANCH  32  38
ATOM     38  O   UNL     1     -31.107  27.614   3.599  0.00  0.00    -0.465 OA
ATOM     39  C   UNL     1     -31.065  28.900   2.983  0.00  0.00    +0.253 C 
ENDBRANCH  32  38
ENDBRANCH  21  23
ENDBRANCH   2  21
TORSDOF 10
ENDMDL
MODEL 8
REMARK VINA RESULT:      -5.7      4.509      8.452
REMARK  Name = 193235
REMARK  10 active torsions:
REMARK  status: ('A' for Active; 'I' for Inactive)
REMARK    1  A    between atoms: C_2  and  O_8
REMARK    2  A    between atoms: C_2  and  C_21
REMARK    3  A    between atoms: C_3  and  O_10
REMARK    4  A    between atoms: C_5  and  O_12
REMARK    5  A    between atoms: C_6  and  O_14
REMARK    6  A    between atoms: O_14  and  C_15
REMARK    7  A    between atoms: C_21  and  C_23
REMARK    8  A    between atoms: C_30  and  O_34
REMARK    9  A    between atoms: C_31  and  O_36
REMARK   10  A    between atoms: C_32  and  O_38
REMARK                            x       y       z     vdW  Elec       q    Type
REMARK                         _______ _______ _______ _____ _____    ______ ____
ROOT
ATOM      1  O   UNL     1     -34.911  21.939   0.825  0.00  0.00    -0.319 OA
ATOM      2  C   UNL     1     -36.165  19.884   0.307  0.00  0.00    +0.139 C 
ATOM      3  C   UNL     1     -37.210  20.277   1.367  0.00  0.00    +0.170 C 
ATOM      4  C   UNL     1     -34.783  20.528   0.586  0.00  0.00    +0.146 C 
ATOM      5  C   UNL     1     -37.205  21.793   1.591  0.00  0.00    +0.210 C 
ATOM      6  C   UNL     1     -35.794  22.302   1.883  0.00  0.00    +0.318 C 
ATOM      7  C   UNL     1     -33.941  19.887   1.689  0.00  0.00    +0.035 C 
ENDROOT
BRANCH   2   8
ATOM      8  O   UNL     1     -36.637  20.420  -0.942  0.00  0.00    -0.382 OA
ATOM      9  H   UNL     1     -37.025  19.706  -1.474  0.00  0.00    +0.210 HD
ENDBRANCH   2   8
BRANCH   3  10
ATOM     10  O   UNL     1     -36.940  19.606   2.596  0.00  0.00    -0.379 OA
ATOM     11  H   UNL     1     -37.757  19.538   3.113  0.00  0.00    +0.211 HD
ENDBRANCH   3  10
BRANCH   5  12
ATOM     12  O   UNL     1     -38.064  22.127   2.677  0.00  0.00    -0.377 OA
ATOM     13  H   UNL     1     -38.960  22.288   2.344  0.00  0.00    +0.211 HD
ENDBRANCH   5  12
BRANCH   6  14
ATOM     14  O   UNL     1     -35.858  23.726   1.979  0.00  0.00    -0.451 OA
BRANCH  14  15
ATOM     15  C   UNL     1     -35.480  24.280   3.173  0.00  0.00    +0.141 C 
ATOM     16  C   UNL     1     -35.510  25.661   3.332  0.00  0.00    +0.037 C 
ATOM     17  C   UNL     1     -35.069  23.456   4.216  0.00  0.00    +0.037 C 
ATOM     18  C   UNL     1     -35.125  26.226   4.548  0.00  0.00    +0.003 C 
ATOM     19  C   UNL     1     -34.684  24.020   5.432  0.00  0.00    +0.003 C 
ATOM     20  C   UNL     1     -34.713  25.405   5.598  0.00  0.00    +0.000 C 
ENDBRANCH  14  15
ENDBRANCH   6  14
BRANCH   2  21
ATOM     21  C   UNL     1     -36.081  18.363   0.135  0.00  0.00    +0.015 C 
BRANCH  21  23
ATOM     22  N   UNL     1     -35.102  17.685  -2.019  0.00  0.00    +0.390 N 
ATOM     23  C   UNL     1     -36.377  17.960  -1.319  0.00  0.00    -0.032 C 
ATOM     24  C   UNL     1     -37.381  16.820  -1.359  0.00  0.00    -0.039 C 
ATOM     25  C   UNL     1     -34.590  16.344  -1.713  0.00  0.00    -0.072 C 
ATOM     26  C   UNL     1     -36.980  15.511  -1.679  0.00  0.00    +0.007 C 
ATOM     27  C   UNL     1     -35.558  15.216  -2.078  0.00  0.00    +0.006 C 
ATOM     28  C   UNL     1     -35.205  17.919  -3.460  0.00  0.00    -0.100 C 
ATOM     29  C   UNL     1     -38.728  17.066  -1.047  0.00  0.00    +0.034 C 
ATOM     30  C   UNL     1     -37.927  14.478  -1.693  0.00  0.00    +0.171 C 
ATOM     31  C   UNL     1     -39.661  16.029  -1.056  0.00  0.00    +0.175 C 
ATOM     32  C   UNL     1     -39.260  14.735  -1.377  0.00  0.00    +0.206 C 
ATOM     33  H   UNL     1     -34.418  18.352  -1.662  0.00  0.00    -0.079 HD
BRANCH  30  34
ATOM     34  O   UNL     1     -37.558  13.204  -2.019  0.00  0.00    -0.469 OA
ATOM     35  C   UNL     1     -37.747  12.804  -3.374  0.00  0.00    +0.253 C 
ENDBRANCH  30  34
BRANCH  31  36
ATOM     36  O   UNL     1     -40.960  16.295  -0.747  0.00  0.00    -0.468 OA
ATOM     37  C   UNL     1     -41.777  16.825  -1.788  0.00  0.00    +0.253 C 
ENDBRANCH  31  36
BRANCH  32  38
ATOM     38  O   UNL     1     -40.175  13.723  -1.394  0.00  0.00    -0.465 OA
ATOM     39  C   UNL     1     -40.430  13.062  -0.156  0.00  0.00    +0.253 C 
ENDBRANCH  32  38
ENDBRANCH  21  23
ENDBRANCH   2  21
TORSDOF 10
ENDMDL
MODEL 9
REMARK VINA RESULT:      -5.7      3.621      7.392
REMARK  Name = 193235
REMARK  10 active torsions:
REMARK  status: ('A' for Active; 'I' for Inactive)
REMARK    1  A    between atoms: C_2  and  O_8
REMARK    2  A    between atoms: C_2  and  C_21
REMARK    3  A    between atoms: C_3  and  O_10
REMARK    4  A    between atoms: C_5  and  O_12
REMARK    5  A    between atoms: C_6  and  O_14
REMARK    6  A    between atoms: O_14  and  C_15
REMARK    7  A    between atoms: C_21  and  C_23
REMARK    8  A    between atoms: C_30  and  O_34
REMARK    9  A    between atoms: C_31  and  O_36
REMARK   10  A    between atoms: C_32  and  O_38
REMARK                            x       y       z     vdW  Elec       q    Type
REMARK                         _______ _______ _______ _____ _____    ______ ____
ROOT
ATOM      1  O   UNL     1     -35.255  23.065   2.519  0.00  0.00    -0.319 OA
ATOM      2  C   UNL     1     -36.176  21.139   1.293  0.00  0.00    +0.139 C 
ATOM      3  C   UNL     1     -37.582  21.751   1.426  0.00  0.00    +0.170 C 
ATOM      4  C   UNL     1     -35.218  21.634   2.407  0.00  0.00    +0.146 C 
ATOM      5  C   UNL     1     -37.493  23.268   1.615  0.00  0.00    +0.210 C 
ATOM      6  C   UNL     1     -36.543  23.627   2.756  0.00  0.00    +0.318 C 
ATOM      7  C   UNL     1     -35.390  20.998   3.787  0.00  0.00    +0.035 C 
ENDROOT
BRANCH   2   8
ATOM      8  O   UNL     1     -35.647  21.612   0.041  0.00  0.00    -0.382 OA
ATOM      9  H   UNL     1     -35.277  22.501   0.162  0.00  0.00    +0.210 HD
ENDBRANCH   2   8
BRANCH   3  10
ATOM     10  O   UNL     1     -38.269  21.166   2.531  0.00  0.00    -0.379 OA
ATOM     11  H   UNL     1     -39.206  21.055   2.307  0.00  0.00    +0.211 HD
ENDBRANCH   3  10
BRANCH   5  12
ATOM     12  O   UNL     1     -38.786  23.801   1.889  0.00  0.00    -0.377 OA
ATOM     13  H   UNL     1     -39.265  23.200   2.481  0.00  0.00    +0.211 HD
ENDBRANCH   5  12
BRANCH   6  14
ATOM     14  O   UNL     1     -36.437  25.051   2.802  0.00  0.00    -0.451 OA
BRANCH  14  15
ATOM     15  C   UNL     1     -35.522  25.572   3.677  0.00  0.00    +0.141 C 
ATOM     16  C   UNL     1     -35.661  25.336   5.041  0.00  0.00    +0.037 C 
ATOM     17  C   UNL     1     -34.463  26.334   3.195  0.00  0.00    +0.037 C 
ATOM     18  C   UNL     1     -34.730  25.867   5.933  0.00  0.00    +0.003 C 
ATOM     19  C   UNL     1     -33.532  26.865   4.087  0.00  0.00    +0.003 C 
ATOM     20  C   UNL     1     -33.665  26.631   5.456  0.00  0.00    +0.000 C 
ENDBRANCH  14  15
ENDBRANCH   6  14
BRANCH   2  21
ATOM     21  C   UNL     1     -36.232  19.610   1.201  0.00  0.00    +0.015 C 
BRANCH  21  23
ATOM     22  N   UNL     1     -34.524  18.864  -0.405  0.00  0.00    +0.390 N 
ATOM     23  C   UNL     1     -35.969  19.138  -0.238  0.00  0.00    -0.032 C 
ATOM     24  C   UNL     1     -36.880  17.972  -0.588  0.00  0.00    -0.039 C 
ATOM     25  C   UNL     1     -34.151  17.550   0.133  0.00  0.00    -0.072 C 
ATOM     26  C   UNL     1     -36.380  16.661  -0.674  0.00  0.00    +0.007 C 
ATOM     27  C   UNL     1     -34.909  16.384  -0.507  0.00  0.00    +0.006 C 
ATOM     28  C   UNL     1     -34.090  19.033  -1.793  0.00  0.00    -0.100 C 
ATOM     29  C   UNL     1     -38.249  18.199  -0.805  0.00  0.00    +0.034 C 
ATOM     30  C   UNL     1     -37.249  15.606  -0.984  0.00  0.00    +0.171 C 
ATOM     31  C   UNL     1     -39.106  17.140  -1.106  0.00  0.00    +0.175 C 
ATOM     32  C   UNL     1     -38.606  15.843  -1.194  0.00  0.00    +0.206 C 
ATOM     33  H   UNL     1     -34.024  19.562   0.145  0.00  0.00    -0.079 HD
BRANCH  30  34
ATOM     34  O   UNL     1     -36.777  14.328  -1.089  0.00  0.00    -0.469 OA
ATOM     35  C   UNL     1     -36.447  13.867  -2.397  0.00  0.00    +0.253 C 
ENDBRANCH  30  34
BRANCH  31  36
ATOM     36  O   UNL     1     -40.429  17.388  -1.310  0.00  0.00    -0.468 OA
ATOM     37  C   UNL     1     -40.767  18.244  -2.399  0.00  0.00    +0.253 C 
ENDBRANCH  31  36
BRANCH  32  38
ATOM     38  O   UNL     1     -39.443  14.810  -1.496  0.00  0.00    -0.465 OA
ATOM     39  C   UNL     1     -40.127  14.193  -0.407  0.00  0.00    +0.253 C 
ENDBRANCH  32  38
ENDBRANCH  21  23
ENDBRANCH   2  21
TORSDOF 10
ENDMDL
