MODEL 1
REMARK VINA RESULT:      -5.9      0.000      0.000
REMARK  Name = 195969
REMARK  7 active torsions:
REMARK  status: ('A' for Active; 'I' for Inactive)
REMARK    1  A    between atoms: C_1  and  C_8
REMARK    2  A    between atoms: C_1  and  N_14
REMARK    3  A    between atoms: C_1  and  C_24
REMARK    4  A    between atoms: C_4  and  C_10
REMARK    5  A    between atoms: C_10  and  C_12
REMARK    6  A    between atoms: C_15  and  C_19
REMARK    7  A    between atoms: C_24  and  C_27
REMARK                            x       y       z     vdW  Elec       q    Type
REMARK                         _______ _______ _______ _____ _____    ______ ____
ROOT
ATOM      1  C   UNL     1     -35.697  20.243   1.150  0.00  0.00    +0.155 C 
ENDROOT
BRANCH   1   8
ATOM      2  O   UNL     1     -35.253  20.482   3.477  0.00  0.00    -0.273 OA
ATOM      3  N   UNL     1     -35.330  22.419   2.213  0.00  0.00    -0.273 N 
ATOM      4  C   UNL     1     -34.898  23.324   3.268  0.00  0.00    +0.134 C 
ATOM      5  C   UNL     1     -34.524  24.613   2.545  0.00  0.00    +0.029 C 
ATOM      6  C   UNL     1     -35.501  23.128   0.948  0.00  0.00    +0.094 C 
ATOM      7  C   UNL     1     -35.426  24.603   1.313  0.00  0.00    +0.024 C 
ATOM      8  C   UNL     1     -35.403  21.046   2.392  0.00  0.00    +0.244 C 
BRANCH   4  10
ATOM      9  O   UNL     1     -37.217  23.496   3.753  0.00  0.00    -0.293 OA
ATOM     10  C   UNL     1     -36.066  23.521   4.188  0.00  0.00    +0.185 C 
BRANCH  10  12
ATOM     11 CL   UNL     1     -35.489  22.206   6.479  0.00  0.00    -0.105 Cl
ATOM     12  C   UNL     1     -35.725  23.748   5.643  0.00  0.00    +0.161 C 
ENDBRANCH  10  12
ENDBRANCH   4  10
ENDBRANCH   1   8
BRANCH   1  14
ATOM     13  O   UNL     1     -34.757  18.667  -1.100  0.00  0.00    -0.273 OA
ATOM     14  N   UNL     1     -34.682  19.230   1.159  0.00  0.00    -0.297 N 
ATOM     15  C   UNL     1     -34.293  18.521   0.028  0.00  0.00    +0.241 C 
ATOM     16  H   UNL     1     -34.236  19.025   2.012  0.00  0.00    +0.150 HD
BRANCH  15  19
ATOM     17  O   UNL     1     -30.444  18.212  -1.802  0.00  0.00    -0.275 OA
ATOM     18  N   UNL     1     -32.449  17.399  -0.905  0.00  0.00    -0.298 N 
ATOM     19  C   UNL     1     -33.199  17.542   0.310  0.00  0.00    +0.149 C 
ATOM     20  C   UNL     1     -32.180  18.069   1.304  0.00  0.00    +0.039 C 
ATOM     21  C   UNL     1     -31.161  18.812   0.441  0.00  0.00    +0.087 C 
ATOM     22  C   UNL     1     -31.257  18.117  -0.895  0.00  0.00    +0.223 C 
ATOM     23  H   UNL     1     -32.746  16.849  -1.666  0.00  0.00    +0.150 HD
ENDBRANCH  15  19
ENDBRANCH   1  14
BRANCH   1  24
ATOM     24  C   UNL     1     -37.112  19.683   1.207  0.00  0.00    +0.071 C 
BRANCH  24  27
ATOM     25  N   UNL     1     -38.840  21.248   2.181  0.00  0.00    -0.319 N 
ATOM     26  N   UNL     1     -39.588  22.394   0.433  0.00  0.00    -0.315 N 
ATOM     27  C   UNL     1     -38.151  20.773   1.100  0.00  0.00    +0.040 C 
ATOM     28  C   UNL     1     -38.632  21.496   0.033  0.00  0.00    +0.069 C 
ATOM     29  C   UNL     1     -39.690  22.218   1.733  0.00  0.00    +0.182 C 
ATOM     30  H   UNL     1     -38.741  20.944   3.113  0.00  0.00    +0.148 HD
ATOM     31  H   UNL     1     -40.088  23.030  -0.128  0.00  0.00    +0.148 HD
ENDBRANCH  24  27
ENDBRANCH   1  24
TORSDOF 7
ENDMDL
MODEL 2
REMARK VINA RESULT:      -5.9      5.064      8.049
REMARK  Name = 195969
REMARK  7 active torsions:
REMARK  status: ('A' for Active; 'I' for Inactive)
REMARK    1  A    between atoms: C_1  and  C_8
REMARK    2  A    between atoms: C_1  and  N_14
REMARK    3  A    between atoms: C_1  and  C_24
REMARK    4  A    between atoms: C_4  and  C_10
REMARK    5  A    between atoms: C_10  and  C_12
REMARK    6  A    between atoms: C_15  and  C_19
REMARK    7  A    between atoms: C_24  and  C_27
REMARK                            x       y       z     vdW  Elec       q    Type
REMARK                         _______ _______ _______ _____ _____    ______ ____
ROOT
ATOM      1  C   UNL     1     -34.345  25.927   4.121  0.00  0.00    +0.155 C 
ENDROOT
BRANCH   1   8
ATOM      2  O   UNL     1     -36.434  26.616   5.032  0.00  0.00    -0.273 OA
ATOM      3  N   UNL     1     -36.412  25.971   2.810  0.00  0.00    -0.273 N 
ATOM      4  C   UNL     1     -37.790  26.341   2.515  0.00  0.00    +0.134 C 
ATOM      5  C   UNL     1     -37.875  26.340   0.994  0.00  0.00    +0.029 C 
ATOM      6  C   UNL     1     -35.729  25.490   1.612  0.00  0.00    +0.094 C 
ATOM      7  C   UNL     1     -36.832  25.304   0.580  0.00  0.00    +0.024 C 
ATOM      8  C   UNL     1     -35.824  26.209   4.042  0.00  0.00    +0.244 C 
BRANCH   4  10
ATOM      9  O   UNL     1     -38.181  24.293   3.653  0.00  0.00    -0.293 OA
ATOM     10  C   UNL     1     -38.670  25.290   3.123  0.00  0.00    +0.185 C 
BRANCH  10  12
ATOM     11 CL   UNL     1     -40.881  24.572   1.742  0.00  0.00    -0.105 Cl
ATOM     12  C   UNL     1     -40.158  25.545   3.031  0.00  0.00    +0.161 C 
ENDBRANCH  10  12
ENDBRANCH   4  10
ENDBRANCH   1   8
BRANCH   1  14
ATOM     13  O   UNL     1     -31.720  26.774   3.216  0.00  0.00    -0.273 OA
ATOM     14  N   UNL     1     -33.761  27.232   4.240  0.00  0.00    -0.297 N 
ATOM     15  C   UNL     1     -32.490  27.551   3.775  0.00  0.00    +0.241 C 
ATOM     16  H   UNL     1     -34.289  27.940   4.673  0.00  0.00    +0.150 HD
BRANCH  15  19
ATOM     17  O   UNL     1     -31.681  29.550   7.463  0.00  0.00    -0.275 OA
ATOM     18  N   UNL     1     -32.598  29.319   5.320  0.00  0.00    -0.298 N 
ATOM     19  C   UNL     1     -32.137  28.985   4.003  0.00  0.00    +0.149 C 
ATOM     20  C   UNL     1     -30.639  29.217   4.074  0.00  0.00    +0.039 C 
ATOM     21  C   UNL     1     -30.293  28.999   5.547  0.00  0.00    +0.087 C 
ATOM     22  C   UNL     1     -31.576  29.338   6.264  0.00  0.00    +0.223 C 
ATOM     23  H   UNL     1     -33.539  29.516   5.534  0.00  0.00    +0.150 HD
ENDBRANCH  15  19
ENDBRANCH   1  14
BRANCH   1  24
ATOM     24  C   UNL     1     -34.044  25.019   5.307  0.00  0.00    +0.071 C 
BRANCH  24  27
ATOM     25  N   UNL     1     -34.894  23.025   4.010  0.00  0.00    -0.319 N 
ATOM     26  N   UNL     1     -35.904  21.768   5.537  0.00  0.00    -0.315 N 
ATOM     27  C   UNL     1     -34.760  23.694   5.194  0.00  0.00    +0.040 C 
ATOM     28  C   UNL     1     -35.392  22.899   6.121  0.00  0.00    +0.069 C 
ATOM     29  C   UNL     1     -35.587  21.875   4.264  0.00  0.00    +0.182 C 
ATOM     30  H   UNL     1     -34.553  23.318   3.133  0.00  0.00    +0.148 HD
ATOM     31  H   UNL     1     -36.398  21.037   5.973  0.00  0.00    +0.148 HD
ENDBRANCH  24  27
ENDBRANCH   1  24
TORSDOF 7
ENDMDL
MODEL 3
REMARK VINA RESULT:      -5.8      4.100      6.976
REMARK  Name = 195969
REMARK  7 active torsions:
REMARK  status: ('A' for Active; 'I' for Inactive)
REMARK    1  A    between atoms: C_1  and  C_8
REMARK    2  A    between atoms: C_1  and  N_14
REMARK    3  A    between atoms: C_1  and  C_24
REMARK    4  A    between atoms: C_4  and  C_10
REMARK    5  A    between atoms: C_10  and  C_12
REMARK    6  A    between atoms: C_15  and  C_19
REMARK    7  A    between atoms: C_24  and  C_27
REMARK                            x       y       z     vdW  Elec       q    Type
REMARK                         _______ _______ _______ _____ _____    ______ ____
ROOT
ATOM      1  C   UNL     1     -38.505  24.052   2.487  0.00  0.00    +0.155 C 
ENDROOT
BRANCH   1   8
ATOM      2  O   UNL     1     -40.353  24.718   3.832  0.00  0.00    -0.273 OA
ATOM      3  N   UNL     1     -40.248  25.573   1.684  0.00  0.00    -0.273 N 
ATOM      4  C   UNL     1     -41.374  26.487   1.813  0.00  0.00    +0.134 C 
ATOM      5  C   UNL     1     -41.252  27.426   0.619  0.00  0.00    +0.029 C 
ATOM      6  C   UNL     1     -39.607  25.708   0.379  0.00  0.00    +0.094 C 
ATOM      7  C   UNL     1     -40.561  26.567  -0.438  0.00  0.00    +0.024 C 
ATOM      8  C   UNL     1     -39.784  24.808   2.743  0.00  0.00    +0.244 C 
BRANCH   4  10
ATOM      9  O   UNL     1     -42.641  24.599   1.124  0.00  0.00    -0.293 OA
ATOM     10  C   UNL     1     -42.624  25.661   1.745  0.00  0.00    +0.185 C 
BRANCH  10  12
ATOM     11 CL   UNL     1     -43.324  27.032   3.969  0.00  0.00    -0.105 Cl
ATOM     12  C   UNL     1     -43.823  26.223   2.476  0.00  0.00    +0.161 C 
ENDBRANCH  10  12
ENDBRANCH   4  10
ENDBRANCH   1   8
BRANCH   1  14
ATOM     13  O   UNL     1     -36.534  26.121   2.997  0.00  0.00    -0.273 OA
ATOM     14  N   UNL     1     -37.748  24.258   3.688  0.00  0.00    -0.297 N 
ATOM     15  C   UNL     1     -36.820  25.281   3.846  0.00  0.00    +0.241 C 
ATOM     16  H   UNL     1     -37.894  23.642   4.441  0.00  0.00    +0.150 HD
BRANCH  15  19
ATOM     17  O   UNL     1     -34.671  22.150   5.803  0.00  0.00    -0.275 OA
ATOM     18  N   UNL     1     -36.192  23.924   5.661  0.00  0.00    -0.298 N 
ATOM     19  C   UNL     1     -36.192  25.284   5.202  0.00  0.00    +0.149 C 
ATOM     20  C   UNL     1     -34.721  25.653   5.168  0.00  0.00    +0.039 C 
ATOM     21  C   UNL     1     -34.003  24.322   4.945  0.00  0.00    +0.087 C 
ATOM     22  C   UNL     1     -34.952  23.308   5.532  0.00  0.00    +0.223 C 
ATOM     23  H   UNL     1     -36.988  23.475   6.029  0.00  0.00    +0.150 HD
ENDBRANCH  15  19
ENDBRANCH   1  14
BRANCH   1  24
ATOM     24  C   UNL     1     -38.806  22.585   2.205  0.00  0.00    +0.071 C 
BRANCH  24  27
ATOM     25  N   UNL     1     -37.347  20.526   2.320  0.00  0.00    -0.319 N 
ATOM     26  N   UNL     1     -35.533  21.074   1.161  0.00  0.00    -0.315 N 
ATOM     27  C   UNL     1     -37.552  21.807   1.889  0.00  0.00    +0.040 C 
ATOM     28  C   UNL     1     -36.418  22.123   1.176  0.00  0.00    +0.069 C 
ATOM     29  C   UNL     1     -36.123  20.128   1.860  0.00  0.00    +0.182 C 
ATOM     30  H   UNL     1     -37.968  19.989   2.864  0.00  0.00    +0.148 HD
ATOM     31  H   UNL     1     -34.652  21.037   0.724  0.00  0.00    +0.148 HD
ENDBRANCH  24  27
ENDBRANCH   1  24
TORSDOF 7
ENDMDL
MODEL 4
REMARK VINA RESULT:      -5.8      3.661      6.462
REMARK  Name = 195969
REMARK  7 active torsions:
REMARK  status: ('A' for Active; 'I' for Inactive)
REMARK    1  A    between atoms: C_1  and  C_8
REMARK    2  A    between atoms: C_1  and  N_14
REMARK    3  A    between atoms: C_1  and  C_24
REMARK    4  A    between atoms: C_4  and  C_10
REMARK    5  A    between atoms: C_10  and  C_12
REMARK    6  A    between atoms: C_15  and  C_19
REMARK    7  A    between atoms: C_24  and  C_27
REMARK                            x       y       z     vdW  Elec       q    Type
REMARK                         _______ _______ _______ _____ _____    ______ ____
ROOT
ATOM      1  C   UNL     1     -37.723  23.140   2.235  0.00  0.00    +0.155 C 
ENDROOT
BRANCH   1   8
ATOM      2  O   UNL     1     -39.141  24.476   3.604  0.00  0.00    -0.273 OA
ATOM      3  N   UNL     1     -39.198  24.870   1.324  0.00  0.00    -0.273 N 
ATOM      4  C   UNL     1     -40.061  26.041   1.378  0.00  0.00    +0.134 C 
ATOM      5  C   UNL     1     -39.930  26.686   0.004  0.00  0.00    +0.029 C 
ATOM      6  C   UNL     1     -38.760  24.602  -0.043  0.00  0.00    +0.094 C 
ATOM      7  C   UNL     1     -39.622  25.504  -0.914  0.00  0.00    +0.024 C 
ATOM      8  C   UNL     1     -38.748  24.222   2.464  0.00  0.00    +0.244 C 
BRANCH   4  10
ATOM      9  O   UNL     1     -41.793  24.417   1.292  0.00  0.00    -0.293 OA
ATOM     10  C   UNL     1     -41.456  25.551   1.631  0.00  0.00    +0.185 C 
BRANCH  10  12
ATOM     11 CL   UNL     1     -41.860  26.837   3.975  0.00  0.00    -0.105 Cl
ATOM     12  C   UNL     1     -42.384  26.531   2.312  0.00  0.00    +0.161 C 
ENDBRANCH  10  12
ENDBRANCH   4  10
ENDBRANCH   1   8
BRANCH   1  14
ATOM     13  O   UNL     1     -34.931  23.919   2.065  0.00  0.00    -0.273 OA
ATOM     14  N   UNL     1     -36.800  23.319   3.318  0.00  0.00    -0.297 N 
ATOM     15  C   UNL     1     -35.473  23.696   3.144  0.00  0.00    +0.241 C 
ATOM     16  H   UNL     1     -37.124  23.168   4.235  0.00  0.00    +0.150 HD
BRANCH  15  19
ATOM     17  O   UNL     1     -33.922  27.232   4.972  0.00  0.00    -0.275 OA
ATOM     18  N   UNL     1     -33.892  24.986   4.313  0.00  0.00    -0.298 N 
ATOM     19  C   UNL     1     -34.739  23.835   4.439  0.00  0.00    +0.149 C 
ATOM     20  C   UNL     1     -35.654  24.185   5.598  0.00  0.00    +0.039 C 
ATOM     21  C   UNL     1     -35.716  25.712   5.582  0.00  0.00    +0.087 C 
ATOM     22  C   UNL     1     -34.406  26.110   4.949  0.00  0.00    +0.223 C 
ATOM     23  H   UNL     1     -33.035  24.979   3.826  0.00  0.00    +0.150 HD
ENDBRANCH  15  19
ENDBRANCH   1  14
BRANCH   1  24
ATOM     24  C   UNL     1     -38.392  21.772   2.230  0.00  0.00    +0.071 C 
BRANCH  24  27
ATOM     25  N   UNL     1     -37.841  20.005   0.510  0.00  0.00    -0.319 N 
ATOM     26  N   UNL     1     -35.841  19.254   1.118  0.00  0.00    -0.315 N 
ATOM     27  C   UNL     1     -37.499  20.714   1.627  0.00  0.00    +0.040 C 
ATOM     28  C   UNL     1     -36.261  20.232   1.983  0.00  0.00    +0.069 C 
ATOM     29  C   UNL     1     -36.817  19.141   0.242  0.00  0.00    +0.182 C 
ATOM     30  H   UNL     1     -38.674  20.099  -0.007  0.00  0.00    +0.148 HD
ATOM     31  H   UNL     1     -34.997  18.748   1.145  0.00  0.00    +0.148 HD
ENDBRANCH  24  27
ENDBRANCH   1  24
TORSDOF 7
ENDMDL
MODEL 5
REMARK VINA RESULT:      -5.7      2.756      6.720
REMARK  Name = 195969
REMARK  7 active torsions:
REMARK  status: ('A' for Active; 'I' for Inactive)
REMARK    1  A    between atoms: C_1  and  C_8
REMARK    2  A    between atoms: C_1  and  N_14
REMARK    3  A    between atoms: C_1  and  C_24
REMARK    4  A    between atoms: C_4  and  C_10
REMARK    5  A    between atoms: C_10  and  C_12
REMARK    6  A    between atoms: C_15  and  C_19
REMARK    7  A    between atoms: C_24  and  C_27
REMARK                            x       y       z     vdW  Elec       q    Type
REMARK                         _______ _______ _______ _____ _____    ______ ____
ROOT
ATOM      1  C   UNL     1     -36.039  22.421   3.126  0.00  0.00    +0.155 C 
ENDROOT
BRANCH   1   8
ATOM      2  O   UNL     1     -35.194  20.207   3.371  0.00  0.00    -0.273 OA
ATOM      3  N   UNL     1     -35.233  21.092   1.233  0.00  0.00    -0.273 N 
ATOM      4  C   UNL     1     -34.827  19.876   0.542  0.00  0.00    +0.134 C 
ATOM      5  C   UNL     1     -35.146  20.138  -0.925  0.00  0.00    +0.029 C 
ATOM      6  C   UNL     1     -35.525  22.164   0.285  0.00  0.00    +0.094 C 
ATOM      7  C   UNL     1     -35.010  21.654  -1.053  0.00  0.00    +0.024 C 
ATOM      8  C   UNL     1     -35.453  21.133   2.601  0.00  0.00    +0.244 C 
BRANCH   4  10
ATOM      9  O   UNL     1     -32.565  20.597   0.447  0.00  0.00    -0.293 OA
ATOM     10  C   UNL     1     -33.354  19.710   0.770  0.00  0.00    +0.185 C 
BRANCH  10  12
ATOM     11 CL   UNL     1     -31.227  18.065   1.063  0.00  0.00    -0.105 Cl
ATOM     12  C   UNL     1     -32.931  18.404   1.405  0.00  0.00    +0.161 C 
ENDBRANCH  10  12
ENDBRANCH   4  10
ENDBRANCH   1   8
BRANCH   1  14
ATOM     13  O   UNL     1     -37.984  24.406   2.290  0.00  0.00    -0.273 OA
ATOM     14  N   UNL     1     -37.451  22.239   2.955  0.00  0.00    -0.297 N 
ATOM     15  C   UNL     1     -38.313  23.252   2.549  0.00  0.00    +0.241 C 
ATOM     16  H   UNL     1     -37.831  21.349   3.136  0.00  0.00    +0.150 HD
BRANCH  15  19
ATOM     17  O   UNL     1     -40.949  23.560  -0.799  0.00  0.00    -0.275 OA
ATOM     18  N   UNL     1     -40.363  23.645   1.467  0.00  0.00    -0.298 N 
ATOM     19  C   UNL     1     -39.729  22.789   2.428  0.00  0.00    +0.149 C 
ATOM     20  C   UNL     1     -39.844  21.406   1.813  0.00  0.00    +0.039 C 
ATOM     21  C   UNL     1     -39.903  21.667   0.308  0.00  0.00    +0.087 C 
ATOM     22  C   UNL     1     -40.489  23.054   0.214  0.00  0.00    +0.223 C 
ATOM     23  H   UNL     1     -40.677  24.555   1.673  0.00  0.00    +0.150 HD
ENDBRANCH  15  19
ENDBRANCH   1  14
BRANCH   1  24
ATOM     24  C   UNL     1     -35.626  22.634   4.577  0.00  0.00    +0.071 C 
BRANCH  24  27
ATOM     25  N   UNL     1     -36.630  24.891   5.108  0.00  0.00    -0.319 N 
ATOM     26  N   UNL     1     -34.872  26.213   5.417  0.00  0.00    -0.315 N 
ATOM     27  C   UNL     1     -35.530  24.101   4.921  0.00  0.00    +0.040 C 
ATOM     28  C   UNL     1     -34.458  24.940   5.117  0.00  0.00    +0.069 C 
ATOM     29  C   UNL     1     -36.186  26.150   5.403  0.00  0.00    +0.182 C 
ATOM     30  H   UNL     1     -37.570  24.605   5.041  0.00  0.00    +0.148 HD
ATOM     31  H   UNL     1     -34.311  27.000   5.602  0.00  0.00    +0.148 HD
ENDBRANCH  24  27
ENDBRANCH   1  24
TORSDOF 7
ENDMDL
MODEL 6
REMARK VINA RESULT:      -5.7      2.474      5.974
REMARK  Name = 195969
REMARK  7 active torsions:
REMARK  status: ('A' for Active; 'I' for Inactive)
REMARK    1  A    between atoms: C_1  and  C_8
REMARK    2  A    between atoms: C_1  and  N_14
REMARK    3  A    between atoms: C_1  and  C_24
REMARK    4  A    between atoms: C_4  and  C_10
REMARK    5  A    between atoms: C_10  and  C_12
REMARK    6  A    between atoms: C_15  and  C_19
REMARK    7  A    between atoms: C_24  and  C_27
REMARK                            x       y       z     vdW  Elec       q    Type
REMARK                         _______ _______ _______ _____ _____    ______ ____
ROOT
ATOM      1  C   UNL     1     -35.448  20.479   2.162  0.00  0.00    +0.155 C 
ENDROOT
BRANCH   1   8
ATOM      2  O   UNL     1     -34.401  22.074   0.736  0.00  0.00    -0.273 OA
ATOM      3  N   UNL     1     -33.403  19.992   0.905  0.00  0.00    -0.273 N 
ATOM      4  C   UNL     1     -32.213  20.314   0.130  0.00  0.00    +0.134 C 
ATOM      5  C   UNL     1     -31.238  19.181   0.426  0.00  0.00    +0.029 C 
ATOM      6  C   UNL     1     -33.334  18.633   1.436  0.00  0.00    +0.094 C 
ATOM      7  C   UNL     1     -32.152  17.994   0.722  0.00  0.00    +0.024 C 
ATOM      8  C   UNL     1     -34.374  20.934   1.205  0.00  0.00    +0.244 C 
BRANCH   4  10
ATOM      9  O   UNL     1     -33.324  19.442  -1.781  0.00  0.00    -0.293 OA
ATOM     10  C   UNL     1     -32.619  20.335  -1.314  0.00  0.00    +0.185 C 
BRANCH  10  12
ATOM     11 CL   UNL     1     -31.417  22.745  -1.065  0.00  0.00    -0.105 Cl
ATOM     12  C   UNL     1     -32.104  21.504  -2.124  0.00  0.00    +0.161 C 
ENDBRANCH  10  12
ENDBRANCH   4  10
ENDBRANCH   1   8
BRANCH   1  14
ATOM     13  O   UNL     1     -35.008  20.896   5.001  0.00  0.00    -0.273 OA
ATOM     14  N   UNL     1     -35.737  21.659   2.925  0.00  0.00    -0.297 N 
ATOM     15  C   UNL     1     -35.492  21.772   4.289  0.00  0.00    +0.241 C 
ATOM     16  H   UNL     1     -36.130  22.431   2.458  0.00  0.00    +0.150 HD
BRANCH  15  19
ATOM     17  O   UNL     1     -33.142  25.337   4.437  0.00  0.00    -0.275 OA
ATOM     18  N   UNL     1     -34.644  23.739   5.259  0.00  0.00    -0.298 N 
ATOM     19  C   UNL     1     -35.863  23.114   4.832  0.00  0.00    +0.149 C 
ATOM     20  C   UNL     1     -36.395  24.053   3.764  0.00  0.00    +0.039 C 
ATOM     21  C   UNL     1     -35.146  24.732   3.203  0.00  0.00    +0.087 C 
ATOM     22  C   UNL     1     -34.172  24.684   4.354  0.00  0.00    +0.223 C 
ATOM     23  H   UNL     1     -34.189  23.521   6.105  0.00  0.00    +0.150 HD
ENDBRANCH  15  19
ENDBRANCH   1  14
BRANCH   1  24
ATOM     24  C   UNL     1     -36.649  19.946   1.393  0.00  0.00    +0.071 C 
BRANCH  24  27
ATOM     25  N   UNL     1     -38.789  21.016   2.206  0.00  0.00    -0.319 N 
ATOM     26  N   UNL     1     -39.160  22.663   0.764  0.00  0.00    -0.315 N 
ATOM     27  C   UNL     1     -37.758  20.967   1.309  0.00  0.00    +0.040 C 
ATOM     28  C   UNL     1     -38.010  21.994   0.429  0.00  0.00    +0.069 C 
ATOM     29  C   UNL     1     -39.605  22.049   1.839  0.00  0.00    +0.182 C 
ATOM     30  H   UNL     1     -38.919  20.415   2.976  0.00  0.00    +0.148 HD
ATOM     31  H   UNL     1     -39.563  23.434   0.302  0.00  0.00    +0.148 HD
ENDBRANCH  24  27
ENDBRANCH   1  24
TORSDOF 7
ENDMDL
MODEL 7
REMARK VINA RESULT:      -5.7      1.827      2.417
REMARK  Name = 195969
REMARK  7 active torsions:
REMARK  status: ('A' for Active; 'I' for Inactive)
REMARK    1  A    between atoms: C_1  and  C_8
REMARK    2  A    between atoms: C_1  and  N_14
REMARK    3  A    between atoms: C_1  and  C_24
REMARK    4  A    between atoms: C_4  and  C_10
REMARK    5  A    between atoms: C_10  and  C_12
REMARK    6  A    between atoms: C_15  and  C_19
REMARK    7  A    between atoms: C_24  and  C_27
REMARK                            x       y       z     vdW  Elec       q    Type
REMARK                         _______ _______ _______ _____ _____    ______ ____
ROOT
ATOM      1  C   UNL     1     -35.424  20.232   1.155  0.00  0.00    +0.155 C 
ENDROOT
BRANCH   1   8
ATOM      2  O   UNL     1     -35.179  20.486   3.510  0.00  0.00    -0.273 OA
ATOM      3  N   UNL     1     -35.215  22.419   2.237  0.00  0.00    -0.273 N 
ATOM      4  C   UNL     1     -34.900  23.339   3.321  0.00  0.00    +0.134 C 
ATOM      5  C   UNL     1     -34.510  24.638   2.627  0.00  0.00    +0.029 C 
ATOM      6  C   UNL     1     -35.306  23.122   0.960  0.00  0.00    +0.094 C 
ATOM      7  C   UNL     1     -35.308  24.599   1.326  0.00  0.00    +0.024 C 
ATOM      8  C   UNL     1     -35.258  21.045   2.415  0.00  0.00    +0.244 C 
BRANCH   4  10
ATOM      9  O   UNL     1     -37.255  23.426   3.618  0.00  0.00    -0.293 OA
ATOM     10  C   UNL     1     -36.144  23.498   4.143  0.00  0.00    +0.185 C 
BRANCH  10  12
ATOM     11 CL   UNL     1     -35.476  22.253   6.448  0.00  0.00    -0.105 Cl
ATOM     12  C   UNL     1     -35.931  23.749   5.618  0.00  0.00    +0.161 C 
ENDBRANCH  10  12
ENDBRANCH   4  10
ENDBRANCH   1   8
BRANCH   1  14
ATOM     13  O   UNL     1     -32.586  20.252   0.544  0.00  0.00    -0.273 OA
ATOM     14  N   UNL     1     -34.488  19.159   1.325  0.00  0.00    -0.297 N 
ATOM     15  C   UNL     1     -33.139  19.257   1.004  0.00  0.00    +0.241 C 
ATOM     16  H   UNL     1     -34.819  18.306   1.688  0.00  0.00    +0.150 HD
BRANCH  15  19
ATOM     17  O   UNL     1     -32.544  15.841  -1.493  0.00  0.00    -0.275 OA
ATOM     18  N   UNL     1     -32.985  16.962   0.516  0.00  0.00    -0.298 N 
ATOM     19  C   UNL     1     -32.383  18.002   1.301  0.00  0.00    +0.149 C 
ATOM     20  C   UNL     1     -30.950  18.047   0.804  0.00  0.00    +0.039 C 
ATOM     21  C   UNL     1     -31.034  17.540  -0.636  0.00  0.00    +0.087 C 
ATOM     22  C   UNL     1     -32.253  16.651  -0.626  0.00  0.00    +0.223 C 
ATOM     23  H   UNL     1     -33.827  16.514   0.760  0.00  0.00    +0.150 HD
ENDBRANCH  15  19
ENDBRANCH   1  14
BRANCH   1  24
ATOM     24  C   UNL     1     -36.866  19.762   1.017  0.00  0.00    +0.071 C 
BRANCH  24  27
ATOM     25  N   UNL     1     -37.330  17.353   0.412  0.00  0.00    -0.319 N 
ATOM     26  N   UNL     1     -37.050  17.278  -1.790  0.00  0.00    -0.315 N 
ATOM     27  C   UNL     1     -36.992  18.622   0.034  0.00  0.00    +0.040 C 
ATOM     28  C   UNL     1     -36.824  18.550  -1.329  0.00  0.00    +0.069 C 
ATOM     29  C   UNL     1     -37.353  16.581  -0.715  0.00  0.00    +0.182 C 
ATOM     30  H   UNL     1     -37.522  17.050   1.330  0.00  0.00    +0.148 HD
ATOM     31  H   UNL     1     -36.999  16.956  -2.719  0.00  0.00    +0.148 HD
ENDBRANCH  24  27
ENDBRANCH   1  24
TORSDOF 7
ENDMDL
MODEL 8
REMARK VINA RESULT:      -5.6      2.924      6.579
REMARK  Name = 195969
REMARK  7 active torsions:
REMARK  status: ('A' for Active; 'I' for Inactive)
REMARK    1  A    between atoms: C_1  and  C_8
REMARK    2  A    between atoms: C_1  and  N_14
REMARK    3  A    between atoms: C_1  and  C_24
REMARK    4  A    between atoms: C_4  and  C_10
REMARK    5  A    between atoms: C_10  and  C_12
REMARK    6  A    between atoms: C_15  and  C_19
REMARK    7  A    between atoms: C_24  and  C_27
REMARK                            x       y       z     vdW  Elec       q    Type
REMARK                         _______ _______ _______ _____ _____    ______ ____
ROOT
ATOM      1  C   UNL     1     -35.597  22.469   1.479  0.00  0.00    +0.155 C 
ENDROOT
BRANCH   1   8
ATOM      2  O   UNL     1     -34.126  22.991  -0.320  0.00  0.00    -0.273 OA
ATOM      3  N   UNL     1     -33.891  20.910   0.667  0.00  0.00    -0.273 N 
ATOM      4  C   UNL     1     -32.694  20.515  -0.061  0.00  0.00    +0.134 C 
ATOM      5  C   UNL     1     -32.152  19.314   0.706  0.00  0.00    +0.029 C 
ATOM      6  C   UNL     1     -34.268  19.898   1.650  0.00  0.00    +0.094 C 
ATOM      7  C   UNL     1     -33.403  18.691   1.320  0.00  0.00    +0.024 C 
ATOM      8  C   UNL     1     -34.471  22.161   0.524  0.00  0.00    +0.244 C 
BRANCH   4  10
ATOM      9  O   UNL     1     -34.315  19.996  -1.718  0.00  0.00    -0.293 OA
ATOM     10  C   UNL     1     -33.123  20.141  -1.448  0.00  0.00    +0.185 C 
BRANCH  10  12
ATOM     11 CL   UNL     1     -31.873  18.261  -2.938  0.00  0.00    -0.105 Cl
ATOM     12  C   UNL     1     -32.009  19.958  -2.455  0.00  0.00    +0.161 C 
ENDBRANCH  10  12
ENDBRANCH   4  10
ENDBRANCH   1   8
BRANCH   1  14
ATOM     13  O   UNL     1     -36.434  22.731   4.246  0.00  0.00    -0.273 OA
ATOM     14  N   UNL     1     -34.958  23.228   2.515  0.00  0.00    -0.297 N 
ATOM     15  C   UNL     1     -35.431  23.297   3.820  0.00  0.00    +0.241 C 
ATOM     16  H   UNL     1     -34.140  23.727   2.289  0.00  0.00    +0.150 HD
BRANCH  15  19
ATOM     17  O   UNL     1     -34.937  27.541   3.825  0.00  0.00    -0.275 OA
ATOM     18  N   UNL     1     -34.227  25.313   3.953  0.00  0.00    -0.298 N 
ATOM     19  C   UNL     1     -34.564  24.137   4.703  0.00  0.00    +0.149 C 
ATOM     20  C   UNL     1     -35.305  24.679   5.911  0.00  0.00    +0.039 C 
ATOM     21  C   UNL     1     -35.914  25.992   5.422  0.00  0.00    +0.087 C 
ATOM     22  C   UNL     1     -34.980  26.424   4.318  0.00  0.00    +0.223 C 
ATOM     23  H   UNL     1     -33.535  25.331   3.252  0.00  0.00    +0.150 HD
ENDBRANCH  15  19
ENDBRANCH   1  14
BRANCH   1  24
ATOM     24  C   UNL     1     -36.703  23.233   0.762  0.00  0.00    +0.071 C 
BRANCH  24  27
ATOM     25  N   UNL     1     -38.265  21.739   2.070  0.00  0.00    -0.319 N 
ATOM     26  N   UNL     1     -40.288  22.281   1.330  0.00  0.00    -0.315 N 
ATOM     27  C   UNL     1     -38.072  22.714   1.132  0.00  0.00    +0.040 C 
ATOM     28  C   UNL     1     -39.335  23.032   0.690  0.00  0.00    +0.069 C 
ATOM     29  C   UNL     1     -39.610  21.512   2.155  0.00  0.00    +0.182 C 
ATOM     30  H   UNL     1     -37.563  21.283   2.589  0.00  0.00    +0.148 HD
ATOM     31  H   UNL     1     -41.264  22.311   1.202  0.00  0.00    +0.148 HD
ENDBRANCH  24  27
ENDBRANCH   1  24
TORSDOF 7
ENDMDL
MODEL 9
REMARK VINA RESULT:      -5.6      4.078      7.337
REMARK  Name = 195969
REMARK  7 active torsions:
REMARK  status: ('A' for Active; 'I' for Inactive)
REMARK    1  A    between atoms: C_1  and  C_8
REMARK    2  A    between atoms: C_1  and  N_14
REMARK    3  A    between atoms: C_1  and  C_24
REMARK    4  A    between atoms: C_4  and  C_10
REMARK    5  A    between atoms: C_10  and  C_12
REMARK    6  A    between atoms: C_15  and  C_19
REMARK    7  A    between atoms: C_24  and  C_27
REMARK                            x       y       z     vdW  Elec       q    Type
REMARK                         _______ _______ _______ _____ _____    ______ ____
ROOT
ATOM      1  C   UNL     1     -35.654  26.164   3.130  0.00  0.00    +0.155 C 
ENDROOT
BRANCH   1   8
ATOM      2  O   UNL     1     -35.228  24.452   1.530  0.00  0.00    -0.273 OA
ATOM      3  N   UNL     1     -35.562  23.789   3.722  0.00  0.00    -0.273 N 
ATOM      4  C   UNL     1     -35.242  22.383   3.522  0.00  0.00    +0.134 C 
ATOM      5  C   UNL     1     -35.043  21.826   4.926  0.00  0.00    +0.029 C 
ATOM      6  C   UNL     1     -35.832  24.073   5.129  0.00  0.00    +0.094 C 
ATOM      7  C   UNL     1     -35.945  22.706   5.788  0.00  0.00    +0.024 C 
ATOM      8  C   UNL     1     -35.457  24.729   2.709  0.00  0.00    +0.244 C 
BRANCH   4  10
ATOM      9  O   UNL     1     -37.494  22.350   2.764  0.00  0.00    -0.293 OA
ATOM     10  C   UNL     1     -36.419  21.755   2.837  0.00  0.00    +0.185 C 
BRANCH  10  12
ATOM     11 CL   UNL     1     -34.492  20.169   1.796  0.00  0.00    -0.105 Cl
ATOM     12  C   UNL     1     -36.187  20.375   2.263  0.00  0.00    +0.161 C 
ENDBRANCH  10  12
ENDBRANCH   4  10
ENDBRANCH   1   8
BRANCH   1  14
ATOM     13  O   UNL     1     -33.925  27.035   5.293  0.00  0.00    -0.273 OA
ATOM     14  N   UNL     1     -34.340  26.728   3.022  0.00  0.00    -0.297 N 
ATOM     15  C   UNL     1     -33.579  27.119   4.118  0.00  0.00    +0.241 C 
ATOM     16  H   UNL     1     -33.955  26.844   2.124  0.00  0.00    +0.150 HD
BRANCH  15  19
ATOM     17  O   UNL     1     -32.614  30.869   2.313  0.00  0.00    -0.275 OA
ATOM     18  N   UNL     1     -32.454  28.555   2.634  0.00  0.00    -0.298 N 
ATOM     19  C   UNL     1     -32.238  27.651   3.727  0.00  0.00    +0.149 C 
ATOM     20  C   UNL     1     -31.617  28.525   4.801  0.00  0.00    +0.039 C 
ATOM     21  C   UNL     1     -32.152  29.925   4.503  0.00  0.00    +0.087 C 
ATOM     22  C   UNL     1     -32.423  29.891   3.020  0.00  0.00    +0.223 C 
ATOM     23  H   UNL     1     -32.609  28.260   1.707  0.00  0.00    +0.150 HD
ENDBRANCH  15  19
ENDBRANCH   1  14
BRANCH   1  24
ATOM     24  C   UNL     1     -36.679  26.842   2.230  0.00  0.00    +0.071 C 
BRANCH  24  27
ATOM     25  N   UNL     1     -38.725  26.050   3.482  0.00  0.00    -0.319 N 
ATOM     26  N   UNL     1     -39.985  25.092   1.925  0.00  0.00    -0.315 N 
ATOM     27  C   UNL     1     -38.029  26.169   2.313  0.00  0.00    +0.040 C 
ATOM     28  C   UNL     1     -38.827  25.569   1.366  0.00  0.00    +0.069 C 
ATOM     29  C   UNL     1     -39.892  25.397   3.201  0.00  0.00    +0.182 C 
ATOM     30  H   UNL     1     -38.438  26.376   4.367  0.00  0.00    +0.148 HD
ATOM     31  H   UNL     1     -40.723  24.624   1.472  0.00  0.00    +0.148 HD
ENDBRANCH  24  27
ENDBRANCH   1  24
TORSDOF 7
ENDMDL
