MODEL 1
REMARK VINA RESULT:      -6.3      0.000      0.000
REMARK  Name = 5375662
REMARK  9 active torsions:
REMARK  status: ('A' for Active; 'I' for Inactive)
REMARK    1  A    between atoms: N_1  and  C1*_12
REMARK    2  A    between atoms: C2*_11  and  O2*_15
REMARK    3  A    between atoms: C3*_13  and  O3*_17
REMARK    4  A    between atoms: C4*_14  and  C5*_19
REMARK    5  A    between atoms: C5*_19  and  O5*_20
REMARK    6  A    between atoms: N_22  and  C_24
REMARK    7  A    between atoms: C_24  and  C_25
REMARK    8  A    between atoms: C_26  and  C_28
REMARK    9  A    between atoms: C_28  and  O_29
REMARK                            x       y       z     vdW  Elec       q    Type
REMARK                         _______ _______ _______ _____ _____    ______ ____
ROOT
ATOM      1  N   UNL     1     -32.545  27.951   3.874  0.00  0.00    -0.247 N 
ATOM      2  N   UNL     1     -33.818  27.134   2.234  0.00  0.00    -0.242 NA
ATOM      3  N   UNL     1     -33.482  26.748   5.765  0.00  0.00    -0.228 NA
ATOM      4  N   UNL     1     -35.293  25.268   5.067  0.00  0.00    -0.228 NA
ATOM      5  C   UNL     1     -33.405  27.069   4.465  0.00  0.00    +0.152 C 
ATOM      6  C   UNL     1     -32.834  27.956   2.534  0.00  0.00    +0.223 C 
ATOM      7  C   UNL     1     -34.185  26.573   3.432  0.00  0.00    +0.140 C 
ATOM      8  C   UNL     1     -35.158  25.638   3.771  0.00  0.00    +0.146 C 
ATOM      9  C   UNL     1     -34.457  25.838   5.970  0.00  0.00    +0.253 C 
ATOM     10  N   UNL     1     -35.992  25.082   2.786  0.00  0.00    -0.313 N 
ATOM     11  H   UNL     1     -35.873  25.369   1.853  0.00  0.00    +0.149 HD
ENDROOT
BRANCH   1  14
ATOM     12  O4* UNL     1     -30.407  27.889   4.887  0.00  0.00    -0.333 OA
ATOM     13  C2* UNL     1     -31.984  29.423   5.815  0.00  0.00    +0.187 C 
ATOM     14  C1* UNL     1     -31.511  28.745   4.535  0.00  0.00    +0.225 C 
ATOM     15  C3* UNL     1     -30.711  29.449   6.635  0.00  0.00    +0.171 C 
ATOM     16  C4* UNL     1     -30.084  28.114   6.269  0.00  0.00    +0.175 C 
BRANCH  13  17
ATOM     17  O2* UNL     1     -32.456  30.731   5.546  0.00  0.00    -0.378 OA
ATOM     18  H2* UNL     1     -32.084  31.042   4.706  0.00  0.00    +0.211 HD
ENDBRANCH  13  17
BRANCH  15  19
ATOM     19  O3* UNL     1     -31.001  29.539   8.016  0.00  0.00    -0.379 OA
ATOM     20  H3* UNL     1     -30.224  29.266   8.528  0.00  0.00    +0.211 HD
ENDBRANCH  15  19
BRANCH  16  21
ATOM     21  C5* UNL     1     -28.577  28.086   6.448  0.00  0.00    +0.169 C 
BRANCH  21  22
ATOM     22  O5* UNL     1     -28.276  28.264   7.822  0.00  0.00    -0.379 OA
ATOM     23  H5* UNL     1     -27.850  29.127   7.950  0.00  0.00    +0.211 HD
ENDBRANCH  21  22
ENDBRANCH  16  21
ENDBRANCH   1  14
BRANCH  10  24
ATOM     24  C   UNL     1     -37.010  24.117   3.080  0.00  0.00    +0.115 C 
BRANCH  24  25
ATOM     25  C   UNL     1     -36.579  22.780   2.561  0.00  0.00    -0.011 C 
ATOM     26  C   UNL     1     -35.901  21.821   3.221  0.00  0.00    -0.018 C 
ATOM     27  C   UNL     1     -35.439  21.929   4.648  0.00  0.00    +0.029 C 
BRANCH  26  28
ATOM     28  C   UNL     1     -35.520  20.541   2.519  0.00  0.00    +0.159 C 
BRANCH  28  29
ATOM     29  O   UNL     1     -36.650  19.681   2.454  0.00  0.00    -0.378 OA
ATOM     30  H   UNL     1     -36.906  19.554   1.528  0.00  0.00    +0.211 HD
ENDBRANCH  28  29
ENDBRANCH  26  28
ENDBRANCH  24  25
ENDBRANCH  10  24
TORSDOF 9
ENDMDL
MODEL 2
REMARK VINA RESULT:      -6.2      1.704      8.115
REMARK  Name = 5375662
REMARK  9 active torsions:
REMARK  status: ('A' for Active; 'I' for Inactive)
REMARK    1  A    between atoms: N_1  and  C1*_12
REMARK    2  A    between atoms: C2*_11  and  O2*_15
REMARK    3  A    between atoms: C3*_13  and  O3*_17
REMARK    4  A    between atoms: C4*_14  and  C5*_19
REMARK    5  A    between atoms: C5*_19  and  O5*_20
REMARK    6  A    between atoms: N_22  and  C_24
REMARK    7  A    between atoms: C_24  and  C_25
REMARK    8  A    between atoms: C_26  and  C_28
REMARK    9  A    between atoms: C_28  and  O_29
REMARK                            x       y       z     vdW  Elec       q    Type
REMARK                         _______ _______ _______ _____ _____    ______ ____
ROOT
ATOM      1  N   UNL     1     -35.847  24.595   4.282  0.00  0.00    -0.247 N 
ATOM      2  N   UNL     1     -35.319  26.425   5.445  0.00  0.00    -0.242 NA
ATOM      3  N   UNL     1     -34.244  24.780   2.466  0.00  0.00    -0.228 NA
ATOM      4  N   UNL     1     -32.852  26.770   2.710  0.00  0.00    -0.228 NA
ATOM      5  C   UNL     1     -34.825  25.194   3.603  0.00  0.00    +0.152 C 
ATOM      6  C   UNL     1     -36.109  25.373   5.381  0.00  0.00    +0.223 C 
ATOM      7  C   UNL     1     -34.511  26.326   4.340  0.00  0.00    +0.140 C 
ATOM      8  C   UNL     1     -33.482  27.127   3.855  0.00  0.00    +0.146 C 
ATOM      9  C   UNL     1     -33.266  25.634   2.097  0.00  0.00    +0.253 C 
ATOM     10  N   UNL     1     -33.098  28.293   4.540  0.00  0.00    -0.313 N 
ATOM     11  H   UNL     1     -33.573  28.529   5.368  0.00  0.00    +0.149 HD
ENDROOT
BRANCH   1  14
ATOM     12  O4* UNL     1     -35.568  22.365   3.541  0.00  0.00    -0.333 OA
ATOM     13  C2* UNL     1     -37.500  23.521   2.745  0.00  0.00    +0.187 C 
ATOM     14  C1* UNL     1     -36.539  23.361   3.917  0.00  0.00    +0.225 C 
ATOM     15  C3* UNL     1     -37.432  22.151   2.105  0.00  0.00    +0.171 C 
ATOM     16  C4* UNL     1     -35.962  21.805   2.277  0.00  0.00    +0.175 C 
BRANCH  13  17
ATOM     17  O2* UNL     1     -38.807  23.816   3.203  0.00  0.00    -0.378 OA
ATOM     18  H2* UNL     1     -39.328  24.189   2.474  0.00  0.00    +0.211 HD
ENDBRANCH  13  17
BRANCH  15  19
ATOM     19  O3* UNL     1     -37.807  22.209   0.743  0.00  0.00    -0.379 OA
ATOM     20  H3* UNL     1     -38.235  21.377   0.488  0.00  0.00    +0.211 HD
ENDBRANCH  15  19
BRANCH  16  21
ATOM     21  C5* UNL     1     -35.690  20.311   2.279  0.00  0.00    +0.169 C 
BRANCH  21  22
ATOM     22  O5* UNL     1     -36.916  19.623   2.453  0.00  0.00    -0.379 OA
ATOM     23  H5* UNL     1     -37.583  19.995   1.853  0.00  0.00    +0.211 HD
ENDBRANCH  21  22
ENDBRANCH  16  21
ENDBRANCH   1  14
BRANCH  10  24
ATOM     24  C   UNL     1     -32.047  29.154   4.085  0.00  0.00    +0.115 C 
BRANCH  24  25
ATOM     25  C   UNL     1     -30.787  28.817   4.821  0.00  0.00    -0.011 C 
ATOM     26  C   UNL     1     -30.511  29.032   6.122  0.00  0.00    -0.018 C 
ATOM     27  C   UNL     1     -31.455  29.674   7.101  0.00  0.00    +0.029 C 
BRANCH  26  28
ATOM     28  C   UNL     1     -29.163  28.653   6.685  0.00  0.00    +0.159 C 
BRANCH  28  29
ATOM     29  O   UNL     1     -29.130  27.255   6.937  0.00  0.00    -0.378 OA
ATOM     30  H   UNL     1     -28.775  26.795   6.161  0.00  0.00    +0.211 HD
ENDBRANCH  28  29
ENDBRANCH  26  28
ENDBRANCH  24  25
ENDBRANCH  10  24
TORSDOF 9
ENDMDL
MODEL 3
REMARK VINA RESULT:      -6.1      1.168      2.008
REMARK  Name = 5375662
REMARK  9 active torsions:
REMARK  status: ('A' for Active; 'I' for Inactive)
REMARK    1  A    between atoms: N_1  and  C1*_12
REMARK    2  A    between atoms: C2*_11  and  O2*_15
REMARK    3  A    between atoms: C3*_13  and  O3*_17
REMARK    4  A    between atoms: C4*_14  and  C5*_19
REMARK    5  A    between atoms: C5*_19  and  O5*_20
REMARK    6  A    between atoms: N_22  and  C_24
REMARK    7  A    between atoms: C_24  and  C_25
REMARK    8  A    between atoms: C_26  and  C_28
REMARK    9  A    between atoms: C_28  and  O_29
REMARK                            x       y       z     vdW  Elec       q    Type
REMARK                         _______ _______ _______ _____ _____    ______ ____
ROOT
ATOM      1  N   UNL     1     -32.495  27.588   5.364  0.00  0.00    -0.247 N 
ATOM      2  N   UNL     1     -34.059  26.190   6.124  0.00  0.00    -0.242 NA
ATOM      3  N   UNL     1     -32.922  27.431   2.977  0.00  0.00    -0.228 NA
ATOM      4  N   UNL     1     -34.765  25.903   2.505  0.00  0.00    -0.228 NA
ATOM      5  C   UNL     1     -33.154  27.122   4.262  0.00  0.00    +0.152 C 
ATOM      6  C   UNL     1     -33.074  26.998   6.458  0.00  0.00    +0.223 C 
ATOM      7  C   UNL     1     -34.120  26.258   4.754  0.00  0.00    +0.140 C 
ATOM      8  C   UNL     1     -34.944  25.638   3.821  0.00  0.00    +0.146 C 
ATOM      9  C   UNL     1     -33.779  26.771   2.170  0.00  0.00    +0.253 C 
ATOM     10  N   UNL     1     -35.951  24.747   4.232  0.00  0.00    -0.313 N 
ATOM     11  H   UNL     1     -36.059  24.573   5.194  0.00  0.00    +0.149 HD
ENDROOT
BRANCH   1  14
ATOM     12  O4* UNL     1     -30.167  27.847   5.028  0.00  0.00    -0.333 OA
ATOM     13  C2* UNL     1     -31.152  29.181   6.746  0.00  0.00    +0.187 C 
ATOM     14  C1* UNL     1     -31.381  28.535   5.385  0.00  0.00    +0.225 C 
ATOM     15  C3* UNL     1     -29.654  29.403   6.730  0.00  0.00    +0.171 C 
ATOM     16  C4* UNL     1     -29.167  28.154   6.014  0.00  0.00    +0.175 C 
BRANCH  13  17
ATOM     17  O2* UNL     1     -31.858  30.404   6.847  0.00  0.00    -0.378 OA
ATOM     18  H2* UNL     1     -31.255  31.100   7.152  0.00  0.00    +0.211 HD
ENDBRANCH  13  17
BRANCH  15  19
ATOM     19  O3* UNL     1     -29.142  29.495   8.045  0.00  0.00    -0.379 OA
ATOM     20  H3* UNL     1     -28.214  29.773   8.013  0.00  0.00    +0.211 HD
ENDBRANCH  15  19
BRANCH  16  21
ATOM     21  C5* UNL     1     -27.822  28.336   5.332  0.00  0.00    +0.169 C 
BRANCH  21  22
ATOM     22  O5* UNL     1     -26.969  29.073   6.192  0.00  0.00    -0.379 OA
ATOM     23  H5* UNL     1     -27.277  28.982   7.108  0.00  0.00    +0.211 HD
ENDBRANCH  21  22
ENDBRANCH  16  21
ENDBRANCH   1  14
BRANCH  10  24
ATOM     24  C   UNL     1     -36.827  24.081   3.314  0.00  0.00    +0.115 C 
BRANCH  24  25
ATOM     25  C   UNL     1     -36.493  22.621   3.294  0.00  0.00    -0.011 C 
ATOM     26  C   UNL     1     -35.666  21.976   2.448  0.00  0.00    -0.018 C 
ATOM     27  C   UNL     1     -34.903  22.636   1.332  0.00  0.00    +0.029 C 
BRANCH  26  28
ATOM     28  C   UNL     1     -35.479  20.484   2.559  0.00  0.00    +0.159 C 
BRANCH  28  29
ATOM     29  O   UNL     1     -36.749  19.851   2.638  0.00  0.00    -0.378 OA
ATOM     30  H   UNL     1     -37.442  20.489   2.409  0.00  0.00    +0.211 HD
ENDBRANCH  28  29
ENDBRANCH  26  28
ENDBRANCH  24  25
ENDBRANCH  10  24
TORSDOF 9
ENDMDL
MODEL 4
REMARK VINA RESULT:      -6.1      1.655      8.141
REMARK  Name = 5375662
REMARK  9 active torsions:
REMARK  status: ('A' for Active; 'I' for Inactive)
REMARK    1  A    between atoms: N_1  and  C1*_12
REMARK    2  A    between atoms: C2*_11  and  O2*_15
REMARK    3  A    between atoms: C3*_13  and  O3*_17
REMARK    4  A    between atoms: C4*_14  and  C5*_19
REMARK    5  A    between atoms: C5*_19  and  O5*_20
REMARK    6  A    between atoms: N_22  and  C_24
REMARK    7  A    between atoms: C_24  and  C_25
REMARK    8  A    between atoms: C_26  and  C_28
REMARK    9  A    between atoms: C_28  and  O_29
REMARK                            x       y       z     vdW  Elec       q    Type
REMARK                         _______ _______ _______ _____ _____    ______ ____
ROOT
ATOM      1  N   UNL     1     -34.593  23.978   2.590  0.00  0.00    -0.247 N 
ATOM      2  N   UNL     1     -33.782  25.815   1.618  0.00  0.00    -0.242 NA
ATOM      3  N   UNL     1     -34.480  24.656   4.920  0.00  0.00    -0.228 NA
ATOM      4  N   UNL     1     -33.581  26.914   5.144  0.00  0.00    -0.228 NA
ATOM      5  C   UNL     1     -34.310  24.849   3.603  0.00  0.00    +0.152 C 
ATOM      6  C   UNL     1     -34.257  24.604   1.417  0.00  0.00    +0.223 C 
ATOM      7  C   UNL     1     -33.810  25.982   2.980  0.00  0.00    +0.140 C 
ATOM      8  C   UNL     1     -33.438  27.040   3.803  0.00  0.00    +0.146 C 
ATOM      9  C   UNL     1     -34.086  25.746   5.612  0.00  0.00    +0.253 C 
ATOM     10  N   UNL     1     -32.922  28.227   3.255  0.00  0.00    -0.313 N 
ATOM     11  H   UNL     1     -32.829  28.292   2.278  0.00  0.00    +0.149 HD
ENDROOT
BRANCH   1  14
ATOM     12  O4* UNL     1     -35.072  21.963   1.445  0.00  0.00    -0.333 OA
ATOM     13  C2* UNL     1     -36.607  22.609   3.156  0.00  0.00    +0.187 C 
ATOM     14  C1* UNL     1     -35.147  22.632   2.719  0.00  0.00    +0.225 C 
ATOM     15  C3* UNL     1     -37.112  21.356   2.472  0.00  0.00    +0.171 C 
ATOM     16  C4* UNL     1     -36.365  21.408   1.149  0.00  0.00    +0.175 C 
BRANCH  13  17
ATOM     17  O2* UNL     1     -36.708  22.508   4.565  0.00  0.00    -0.378 OA
ATOM     18  H2* UNL     1     -36.167  23.202   4.977  0.00  0.00    +0.211 HD
ENDBRANCH  13  17
BRANCH  15  19
ATOM     19  O3* UNL     1     -38.513  21.407   2.292  0.00  0.00    -0.379 OA
ATOM     20  H3* UNL     1     -38.955  21.171   3.122  0.00  0.00    +0.211 HD
ENDBRANCH  15  19
BRANCH  16  21
ATOM     21  C5* UNL     1     -36.194  20.046   0.499  0.00  0.00    +0.169 C 
BRANCH  21  22
ATOM     22  O5* UNL     1     -36.842  19.072   1.300  0.00  0.00    -0.379 OA
ATOM     23  H5* UNL     1     -36.252  18.312   1.425  0.00  0.00    +0.211 HD
ENDBRANCH  21  22
ENDBRANCH  16  21
ENDBRANCH   1  14
BRANCH  10  24
ATOM     24  C   UNL     1     -32.523  29.348   4.056  0.00  0.00    +0.115 C 
BRANCH  24  25
ATOM     25  C   UNL     1     -31.175  29.070   4.646  0.00  0.00    -0.011 C 
ATOM     26  C   UNL     1     -30.812  29.144   5.941  0.00  0.00    -0.018 C 
ATOM     27  C   UNL     1     -31.733  29.533   7.065  0.00  0.00    +0.029 C 
BRANCH  26  28
ATOM     28  C   UNL     1     -29.388  28.860   6.348  0.00  0.00    +0.159 C 
BRANCH  28  29
ATOM     29  O   UNL     1     -29.294  27.536   6.856  0.00  0.00    -0.378 OA
ATOM     30  H   UNL     1     -28.696  27.525   7.620  0.00  0.00    +0.211 HD
ENDBRANCH  28  29
ENDBRANCH  26  28
ENDBRANCH  24  25
ENDBRANCH  10  24
TORSDOF 9
ENDMDL
MODEL 5
REMARK VINA RESULT:      -6.0      3.130      8.289
REMARK  Name = 5375662
REMARK  9 active torsions:
REMARK  status: ('A' for Active; 'I' for Inactive)
REMARK    1  A    between atoms: N_1  and  C1*_12
REMARK    2  A    between atoms: C2*_11  and  O2*_15
REMARK    3  A    between atoms: C3*_13  and  O3*_17
REMARK    4  A    between atoms: C4*_14  and  C5*_19
REMARK    5  A    between atoms: C5*_19  and  O5*_20
REMARK    6  A    between atoms: N_22  and  C_24
REMARK    7  A    between atoms: C_24  and  C_25
REMARK    8  A    between atoms: C_26  and  C_28
REMARK    9  A    between atoms: C_28  and  O_29
REMARK                            x       y       z     vdW  Elec       q    Type
REMARK                         _______ _______ _______ _____ _____    ______ ____
ROOT
ATOM      1  N   UNL     1     -34.504  26.250   4.491  0.00  0.00    -0.247 N 
ATOM      2  N   UNL     1     -33.793  27.635   2.893  0.00  0.00    -0.242 NA
ATOM      3  N   UNL     1     -33.084  26.971   6.326  0.00  0.00    -0.228 NA
ATOM      4  N   UNL     1     -31.600  28.783   5.641  0.00  0.00    -0.228 NA
ATOM      5  C   UNL     1     -33.532  27.022   5.063  0.00  0.00    +0.152 C 
ATOM      6  C   UNL     1     -34.623  26.655   3.187  0.00  0.00    +0.223 C 
ATOM      7  C   UNL     1     -33.105  27.874   4.056  0.00  0.00    +0.140 C 
ATOM      8  C   UNL     1     -32.101  28.780   4.383  0.00  0.00    +0.146 C 
ATOM      9  C   UNL     1     -32.117  27.892   6.522  0.00  0.00    +0.253 C 
ATOM     10  N   UNL     1     -31.609  29.681   3.423  0.00  0.00    -0.313 N 
ATOM     11  H   UNL     1     -31.990  29.657   2.516  0.00  0.00    +0.149 HD
ENDROOT
BRANCH   1  14
ATOM     12  O4* UNL     1     -34.392  24.108   5.491  0.00  0.00    -0.333 OA
ATOM     13  C2* UNL     1     -36.373  24.607   4.255  0.00  0.00    +0.187 C 
ATOM     14  C1* UNL     1     -35.275  25.190   5.137  0.00  0.00    +0.225 C 
ATOM     15  C3* UNL     1     -36.430  23.175   4.744  0.00  0.00    +0.171 C 
ATOM     16  C4* UNL     1     -34.962  22.882   5.003  0.00  0.00    +0.175 C 
BRANCH  13  17
ATOM     17  O2* UNL     1     -37.600  25.280   4.470  0.00  0.00    -0.378 OA
ATOM     18  H2* UNL     1     -38.259  24.650   4.805  0.00  0.00    +0.211 HD
ENDBRANCH  13  17
BRANCH  15  19
ATOM     19  O3* UNL     1     -36.975  22.324   3.755  0.00  0.00    -0.379 OA
ATOM     20  H3* UNL     1     -36.634  21.425   3.878  0.00  0.00    +0.211 HD
ENDBRANCH  15  19
BRANCH  16  21
ATOM     21  C5* UNL     1     -34.738  21.779   6.024  0.00  0.00    +0.169 C 
BRANCH  21  22
ATOM     22  O5* UNL     1     -35.461  20.629   5.619  0.00  0.00    -0.379 OA
ATOM     23  H5* UNL     1     -36.008  20.315   6.357  0.00  0.00    +0.211 HD
ENDBRANCH  21  22
ENDBRANCH  16  21
ENDBRANCH   1  14
BRANCH  10  24
ATOM     24  C   UNL     1     -30.576  30.634   3.705  0.00  0.00    +0.115 C 
BRANCH  24  25
ATOM     25  C   UNL     1     -31.164  32.012   3.683  0.00  0.00    -0.011 C 
ATOM     26  C   UNL     1     -30.718  33.087   3.005  0.00  0.00    -0.018 C 
ATOM     27  C   UNL     1     -29.504  33.093   2.117  0.00  0.00    +0.029 C 
BRANCH  26  28
ATOM     28  C   UNL     1     -31.426  34.412   3.134  0.00  0.00    +0.159 C 
BRANCH  28  29
ATOM     29  O   UNL     1     -30.474  35.434   3.402  0.00  0.00    -0.378 OA
ATOM     30  H   UNL     1     -29.631  35.031   3.661  0.00  0.00    +0.211 HD
ENDBRANCH  28  29
ENDBRANCH  26  28
ENDBRANCH  24  25
ENDBRANCH  10  24
TORSDOF 9
ENDMDL
MODEL 6
REMARK VINA RESULT:      -6.0      4.300      6.823
REMARK  Name = 5375662
REMARK  9 active torsions:
REMARK  status: ('A' for Active; 'I' for Inactive)
REMARK    1  A    between atoms: N_1  and  C1*_12
REMARK    2  A    between atoms: C2*_11  and  O2*_15
REMARK    3  A    between atoms: C3*_13  and  O3*_17
REMARK    4  A    between atoms: C4*_14  and  C5*_19
REMARK    5  A    between atoms: C5*_19  and  O5*_20
REMARK    6  A    between atoms: N_22  and  C_24
REMARK    7  A    between atoms: C_24  and  C_25
REMARK    8  A    between atoms: C_26  and  C_28
REMARK    9  A    between atoms: C_28  and  O_29
REMARK                            x       y       z     vdW  Elec       q    Type
REMARK                         _______ _______ _______ _____ _____    ______ ____
ROOT
ATOM      1  N   UNL     1     -35.666  23.005   2.766  0.00  0.00    -0.247 N 
ATOM      2  N   UNL     1     -35.422  20.861   3.333  0.00  0.00    -0.242 NA
ATOM      3  N   UNL     1     -34.676  22.962   0.548  0.00  0.00    -0.228 NA
ATOM      4  N   UNL     1     -33.902  20.722  -0.035  0.00  0.00    -0.228 NA
ATOM      5  C   UNL     1     -35.057  22.398   1.704  0.00  0.00    +0.152 C 
ATOM      6  C   UNL     1     -35.864  22.040   3.720  0.00  0.00    +0.223 C 
ATOM      7  C   UNL     1     -34.916  21.070   2.075  0.00  0.00    +0.140 C 
ATOM      8  C   UNL     1     -34.312  20.220   1.153  0.00  0.00    +0.146 C 
ATOM      9  C   UNL     1     -34.107  22.043  -0.261  0.00  0.00    +0.253 C 
ATOM     10  N   UNL     1     -34.130  18.858   1.447  0.00  0.00    -0.313 N 
ATOM     11  H   UNL     1     -34.438  18.520   2.318  0.00  0.00    +0.149 HD
ENDROOT
BRANCH   1  14
ATOM     12  O4* UNL     1     -34.852  25.226   2.815  0.00  0.00    -0.333 OA
ATOM     13  C2* UNL     1     -36.756  24.757   4.176  0.00  0.00    +0.187 C 
ATOM     14  C1* UNL     1     -36.040  24.413   2.876  0.00  0.00    +0.225 C 
ATOM     15  C3* UNL     1     -36.318  26.189   4.398  0.00  0.00    +0.171 C 
ATOM     16  C4* UNL     1     -34.875  26.145   3.920  0.00  0.00    +0.175 C 
BRANCH  13  17
ATOM     17  O2* UNL     1     -38.160  24.662   4.017  0.00  0.00    -0.378 OA
ATOM     18  H2* UNL     1     -38.387  24.773   3.080  0.00  0.00    +0.211 HD
ENDBRANCH  13  17
BRANCH  15  19
ATOM     19  O3* UNL     1     -36.414  26.543   5.764  0.00  0.00    -0.379 OA
ATOM     20  H3* UNL     1     -36.578  25.748   6.294  0.00  0.00    +0.211 HD
ENDBRANCH  15  19
BRANCH  16  21
ATOM     21  C5* UNL     1     -34.348  27.495   3.467  0.00  0.00    +0.169 C 
BRANCH  21  22
ATOM     22  O5* UNL     1     -35.404  28.439   3.520  0.00  0.00    -0.379 OA
ATOM     23  H5* UNL     1     -35.867  28.360   4.369  0.00  0.00    +0.211 HD
ENDBRANCH  21  22
ENDBRANCH  16  21
ENDBRANCH   1  14
BRANCH  10  24
ATOM     24  C   UNL     1     -33.515  17.939   0.535  0.00  0.00    +0.115 C 
BRANCH  24  25
ATOM     25  C   UNL     1     -32.139  17.610   1.028  0.00  0.00    -0.011 C 
ATOM     26  C   UNL     1     -30.963  18.048   0.539  0.00  0.00    -0.018 C 
ATOM     27  C   UNL     1     -30.819  18.980  -0.633  0.00  0.00    +0.029 C 
BRANCH  26  28
ATOM     28  C   UNL     1     -29.666  17.578   1.148  0.00  0.00    +0.159 C 
BRANCH  28  29
ATOM     29  O   UNL     1     -29.370  16.268   0.683  0.00  0.00    -0.378 OA
ATOM     30  H   UNL     1     -30.043  15.994   0.041  0.00  0.00    +0.211 HD
ENDBRANCH  28  29
ENDBRANCH  26  28
ENDBRANCH  24  25
ENDBRANCH  10  24
TORSDOF 9
ENDMDL
MODEL 7
REMARK VINA RESULT:      -6.0      1.750      8.765
REMARK  Name = 5375662
REMARK  9 active torsions:
REMARK  status: ('A' for Active; 'I' for Inactive)
REMARK    1  A    between atoms: N_1  and  C1*_12
REMARK    2  A    between atoms: C2*_11  and  O2*_15
REMARK    3  A    between atoms: C3*_13  and  O3*_17
REMARK    4  A    between atoms: C4*_14  and  C5*_19
REMARK    5  A    between atoms: C5*_19  and  O5*_20
REMARK    6  A    between atoms: N_22  and  C_24
REMARK    7  A    between atoms: C_24  and  C_25
REMARK    8  A    between atoms: C_26  and  C_28
REMARK    9  A    between atoms: C_28  and  O_29
REMARK                            x       y       z     vdW  Elec       q    Type
REMARK                         _______ _______ _______ _____ _____    ______ ____
ROOT
ATOM      1  N   UNL     1     -35.154  24.115   3.273  0.00  0.00    -0.247 N 
ATOM      2  N   UNL     1     -34.253  24.773   5.205  0.00  0.00    -0.242 NA
ATOM      3  N   UNL     1     -34.638  26.047   1.895  0.00  0.00    -0.228 NA
ATOM      4  N   UNL     1     -33.433  27.747   3.166  0.00  0.00    -0.228 NA
ATOM      5  C   UNL     1     -34.626  25.353   3.043  0.00  0.00    +0.152 C 
ATOM      6  C   UNL     1     -34.906  23.811   4.587  0.00  0.00    +0.223 C 
ATOM      7  C   UNL     1     -34.071  25.743   4.252  0.00  0.00    +0.140 C 
ATOM      8  C   UNL     1     -33.458  26.991   4.289  0.00  0.00    +0.146 C 
ATOM      9  C   UNL     1     -34.017  27.235   2.054  0.00  0.00    +0.253 C 
ATOM     10  N   UNL     1     -32.868  27.465   5.474  0.00  0.00    -0.313 N 
ATOM     11  H   UNL     1     -32.900  26.896   6.275  0.00  0.00    +0.149 HD
ENDROOT
BRANCH   1  14
ATOM     12  O4* UNL     1     -37.276  23.447   2.466  0.00  0.00    -0.333 OA
ATOM     13  C2* UNL     1     -35.567  21.780   2.481  0.00  0.00    +0.187 C 
ATOM     14  C1* UNL     1     -35.855  23.266   2.311  0.00  0.00    +0.225 C 
ATOM     15  C3* UNL     1     -36.871  21.161   2.025  0.00  0.00    +0.171 C 
ATOM     16  C4* UNL     1     -37.887  22.150   2.572  0.00  0.00    +0.175 C 
BRANCH  13  17
ATOM     17  O2* UNL     1     -34.485  21.380   1.659  0.00  0.00    -0.378 OA
ATOM     18  H2* UNL     1     -34.380  22.016   0.933  0.00  0.00    +0.211 HD
ENDBRANCH  13  17
BRANCH  15  19
ATOM     19  O3* UNL     1     -37.038  19.869   2.574  0.00  0.00    -0.379 OA
ATOM     20  H3* UNL     1     -36.859  19.896   3.526  0.00  0.00    +0.211 HD
ENDBRANCH  15  19
BRANCH  16  21
ATOM     21  C5* UNL     1     -39.202  22.146   1.813  0.00  0.00    +0.169 C 
BRANCH  21  22
ATOM     22  O5* UNL     1     -39.934  20.986   2.172  0.00  0.00    -0.379 OA
ATOM     23  H5* UNL     1     -39.396  20.197   1.995  0.00  0.00    +0.211 HD
ENDBRANCH  21  22
ENDBRANCH  16  21
ENDBRANCH   1  14
BRANCH  10  24
ATOM     24  C   UNL     1     -32.224  28.742   5.568  0.00  0.00    +0.115 C 
BRANCH  24  25
ATOM     25  C   UNL     1     -30.942  28.587   6.328  0.00  0.00    -0.011 C 
ATOM     26  C   UNL     1     -29.852  29.376   6.274  0.00  0.00    -0.018 C 
ATOM     27  C   UNL     1     -29.725  30.599   5.407  0.00  0.00    +0.029 C 
BRANCH  26  28
ATOM     28  C   UNL     1     -28.630  29.041   7.092  0.00  0.00    +0.159 C 
BRANCH  28  29
ATOM     29  O   UNL     1     -28.880  29.335   8.460  0.00  0.00    -0.378 OA
ATOM     30  H   UNL     1     -28.508  30.204   8.677  0.00  0.00    +0.211 HD
ENDBRANCH  28  29
ENDBRANCH  26  28
ENDBRANCH  24  25
ENDBRANCH  10  24
TORSDOF 9
ENDMDL
MODEL 8
REMARK VINA RESULT:      -6.0      2.226      8.739
REMARK  Name = 5375662
REMARK  9 active torsions:
REMARK  status: ('A' for Active; 'I' for Inactive)
REMARK    1  A    between atoms: N_1  and  C1*_12
REMARK    2  A    between atoms: C2*_11  and  O2*_15
REMARK    3  A    between atoms: C3*_13  and  O3*_17
REMARK    4  A    between atoms: C4*_14  and  C5*_19
REMARK    5  A    between atoms: C5*_19  and  O5*_20
REMARK    6  A    between atoms: N_22  and  C_24
REMARK    7  A    between atoms: C_24  and  C_25
REMARK    8  A    between atoms: C_26  and  C_28
REMARK    9  A    between atoms: C_28  and  O_29
REMARK                            x       y       z     vdW  Elec       q    Type
REMARK                         _______ _______ _______ _____ _____    ______ ____
ROOT
ATOM      1  N   UNL     1     -35.833  24.704   3.507  0.00  0.00    -0.247 N 
ATOM      2  N   UNL     1     -35.599  25.789   5.442  0.00  0.00    -0.242 NA
ATOM      3  N   UNL     1     -33.725  25.284   2.448  0.00  0.00    -0.228 NA
ATOM      4  N   UNL     1     -32.371  26.713   3.891  0.00  0.00    -0.228 NA
ATOM      5  C   UNL     1     -34.614  25.317   3.453  0.00  0.00    +0.152 C 
ATOM      6  C   UNL     1     -36.387  25.019   4.721  0.00  0.00    +0.223 C 
ATOM      7  C   UNL     1     -34.487  25.984   4.662  0.00  0.00    +0.140 C 
ATOM      8  C   UNL     1     -33.313  26.701   4.864  0.00  0.00    +0.146 C 
ATOM      9  C   UNL     1     -32.633  26.013   2.759  0.00  0.00    +0.253 C 
ATOM     10  N   UNL     1     -33.101  27.405   6.062  0.00  0.00    -0.313 N 
ATOM     11  H   UNL     1     -33.801  27.380   6.752  0.00  0.00    +0.149 HD
ENDROOT
BRANCH   1  14
ATOM     12  O4* UNL     1     -37.868  23.825   2.679  0.00  0.00    -0.333 OA
ATOM     13  C2* UNL     1     -35.941  22.431   2.471  0.00  0.00    +0.187 C 
ATOM     14  C1* UNL     1     -36.443  23.870   2.473  0.00  0.00    +0.225 C 
ATOM     15  C3* UNL     1     -37.161  21.682   1.979  0.00  0.00    +0.171 C 
ATOM     16  C4* UNL     1     -38.285  22.450   2.656  0.00  0.00    +0.175 C 
BRANCH  13  17
ATOM     17  O2* UNL     1     -34.847  22.282   1.585  0.00  0.00    -0.378 OA
ATOM     18  H2* UNL     1     -34.025  22.511   2.047  0.00  0.00    +0.211 HD
ENDBRANCH  13  17
BRANCH  15  19
ATOM     19  O3* UNL     1     -37.123  20.328   2.386  0.00  0.00    -0.379 OA
ATOM     20  H3* UNL     1     -36.488  20.226   3.111  0.00  0.00    +0.211 HD
ENDBRANCH  15  19
BRANCH  16  21
ATOM     21  C5* UNL     1     -39.615  22.335   1.932  0.00  0.00    +0.169 C 
BRANCH  21  22
ATOM     22  O5* UNL     1     -40.132  21.030   2.127  0.00  0.00    -0.379 OA
ATOM     23  H5* UNL     1     -40.366  20.912   3.062  0.00  0.00    +0.211 HD
ENDBRANCH  21  22
ENDBRANCH  16  21
ENDBRANCH   1  14
BRANCH  10  24
ATOM     24  C   UNL     1     -31.910  28.160   6.323  0.00  0.00    +0.115 C 
BRANCH  24  25
ATOM     25  C   UNL     1     -31.999  29.474   5.609  0.00  0.00    -0.011 C 
ATOM     26  C   UNL     1     -30.997  30.330   5.333  0.00  0.00    -0.018 C 
ATOM     27  C   UNL     1     -29.557  30.110   5.709  0.00  0.00    +0.029 C 
BRANCH  26  28
ATOM     28  C   UNL     1     -31.284  31.633   4.629  0.00  0.00    +0.159 C 
BRANCH  28  29
ATOM     29  O   UNL     1     -30.060  32.239   4.234  0.00  0.00    -0.378 OA
ATOM     30  H   UNL     1     -29.319  31.667   4.489  0.00  0.00    +0.211 HD
ENDBRANCH  28  29
ENDBRANCH  26  28
ENDBRANCH  24  25
ENDBRANCH  10  24
TORSDOF 9
ENDMDL
MODEL 9
REMARK VINA RESULT:      -5.9      2.328      3.458
REMARK  Name = 5375662
REMARK  9 active torsions:
REMARK  status: ('A' for Active; 'I' for Inactive)
REMARK    1  A    between atoms: N_1  and  C1*_12
REMARK    2  A    between atoms: C2*_11  and  O2*_15
REMARK    3  A    between atoms: C3*_13  and  O3*_17
REMARK    4  A    between atoms: C4*_14  and  C5*_19
REMARK    5  A    between atoms: C5*_19  and  O5*_20
REMARK    6  A    between atoms: N_22  and  C_24
REMARK    7  A    between atoms: C_24  and  C_25
REMARK    8  A    between atoms: C_26  and  C_28
REMARK    9  A    between atoms: C_28  and  O_29
REMARK                            x       y       z     vdW  Elec       q    Type
REMARK                         _______ _______ _______ _____ _____    ______ ____
ROOT
ATOM      1  N   UNL     1     -34.204  26.771   4.425  0.00  0.00    -0.247 N 
ATOM      2  N   UNL     1     -35.815  25.557   5.379  0.00  0.00    -0.242 NA
ATOM      3  N   UNL     1     -35.293  27.329   2.326  0.00  0.00    -0.228 NA
ATOM      4  N   UNL     1     -37.533  26.368   2.206  0.00  0.00    -0.228 NA
ATOM      5  C   UNL     1     -35.239  26.747   3.534  0.00  0.00    +0.152 C 
ATOM      6  C   UNL     1     -34.598  26.042   5.517  0.00  0.00    +0.223 C 
ATOM      7  C   UNL     1     -36.228  25.991   4.144  0.00  0.00    +0.140 C 
ATOM      8  C   UNL     1     -37.410  25.809   3.433  0.00  0.00    +0.146 C 
ATOM      9  C   UNL     1     -36.482  27.084   1.736  0.00  0.00    +0.253 C 
ATOM     10  N   UNL     1     -38.465  25.057   3.978  0.00  0.00    -0.313 N 
ATOM     11  H   UNL     1     -38.349  24.662   4.871  0.00  0.00    +0.149 HD
ENDROOT
BRANCH   1  14
ATOM     12  O4* UNL     1     -32.203  27.419   5.508  0.00  0.00    -0.333 OA
ATOM     13  C2* UNL     1     -33.037  28.901   3.833  0.00  0.00    +0.187 C 
ATOM     14  C1* UNL     1     -32.917  27.443   4.257  0.00  0.00    +0.225 C 
ATOM     15  C3* UNL     1     -31.812  29.510   4.480  0.00  0.00    +0.171 C 
ATOM     16  C4* UNL     1     -31.754  28.754   5.797  0.00  0.00    +0.175 C 
BRANCH  13  17
ATOM     17  O2* UNL     1     -32.993  29.019   2.422  0.00  0.00    -0.378 OA
ATOM     18  H2* UNL     1     -33.882  28.876   2.059  0.00  0.00    +0.211 HD
ENDBRANCH  13  17
BRANCH  15  19
ATOM     19  O3* UNL     1     -31.980  30.901   4.674  0.00  0.00    -0.379 OA
ATOM     20  H3* UNL     1     -32.022  31.094   5.623  0.00  0.00    +0.211 HD
ENDBRANCH  15  19
BRANCH  16  21
ATOM     21  C5* UNL     1     -30.361  28.700   6.401  0.00  0.00    +0.169 C 
BRANCH  21  22
ATOM     22  O5* UNL     1     -30.063  27.358   6.745  0.00  0.00    -0.379 OA
ATOM     23  H5* UNL     1     -29.837  27.309   7.687  0.00  0.00    +0.211 HD
ENDBRANCH  21  22
ENDBRANCH  16  21
ENDBRANCH   1  14
BRANCH  10  24
ATOM     24  C   UNL     1     -39.703  24.838   3.289  0.00  0.00    +0.115 C 
BRANCH  24  25
ATOM     25  C   UNL     1     -39.647  23.512   2.594  0.00  0.00    -0.011 C 
ATOM     26  C   UNL     1     -40.011  23.231   1.328  0.00  0.00    -0.018 C 
ATOM     27  C   UNL     1     -40.559  24.236   0.353  0.00  0.00    +0.029 C 
BRANCH  26  28
ATOM     28  C   UNL     1     -39.916  21.818   0.807  0.00  0.00    +0.159 C 
BRANCH  28  29
ATOM     29  O   UNL     1     -40.254  20.907   1.844  0.00  0.00    -0.378 OA
ATOM     30  H   UNL     1     -39.494  20.336   2.033  0.00  0.00    +0.211 HD
ENDBRANCH  28  29
ENDBRANCH  26  28
ENDBRANCH  24  25
ENDBRANCH  10  24
TORSDOF 9
ENDMDL
