MODEL 1
REMARK VINA RESULT:      -7.8      0.000      0.000
REMARK  Name = 53480454
REMARK  8 active torsions:
REMARK  status: ('A' for Active; 'I' for Inactive)
REMARK    1  A    between atoms: C_12  and  O_20
REMARK    2  A    between atoms: C_19  and  O_22
REMARK    3  A    between atoms: O_22  and  C_24
REMARK    4  A    between atoms: C_25  and  O_29
REMARK    5  A    between atoms: C_26  and  O_31
REMARK    6  A    between atoms: C_27  and  C_36
REMARK    7  A    between atoms: C_28  and  O_33
REMARK    8  A    between atoms: C_36  and  O_37
REMARK                            x       y       z     vdW  Elec       q    Type
REMARK                         _______ _______ _______ _____ _____    ______ ____
ROOT
ATOM      1  C   UNL     1     -32.742  20.208   0.587  0.00  0.00    +0.000 C 
ATOM      2  C   UNL     1     -31.638  20.163  -0.520  0.00  0.00    +0.000 C 
ATOM      3  C   UNL     1     -33.937  21.152   0.186  0.00  0.00    +0.000 C 
ATOM      4  C   UNL     1     -30.493  19.271  -0.030  0.00  0.00    +0.002 C 
ATOM      5  C   UNL     1     -30.947  17.828   0.265  0.00  0.00    +0.025 C 
ATOM      6  C   UNL     1     -33.336  22.562  -0.119  0.00  0.00    +0.002 C 
ATOM      7  C   UNL     1     -33.169  18.788   1.042  0.00  0.00    +0.000 C 
ATOM      8  C   UNL     1     -31.981  17.875   1.398  0.00  0.00    +0.002 C 
ATOM      9  C   UNL     1     -31.142  21.572  -0.872  0.00  0.00    +0.000 C 
ATOM     10  C   UNL     1     -29.262  19.086  -0.913  0.00  0.00    +0.003 C 
ATOM     11  C   UNL     1     -32.284  22.520  -1.234  0.00  0.00    +0.000 C 
ATOM     12  C   UNL     1     -29.587  17.217   0.659  0.00  0.00    +0.110 C 
ATOM     13  C   UNL     1     -34.932  21.309   1.370  0.00  0.00    +0.002 C 
ATOM     14  C   UNL     1     -28.597  17.809  -0.363  0.00  0.00    +0.029 C 
ATOM     15  C   UNL     1     -34.412  23.623  -0.405  0.00  0.00    +0.030 C 
ATOM     16  C   UNL     1     -34.710  20.573  -1.028  0.00  0.00    +0.000 C 
ATOM     17  C   UNL     1     -31.550  17.082  -0.953  0.00  0.00    +0.002 C 
ATOM     18  C   UNL     1     -36.004  22.380   1.134  0.00  0.00    +0.030 C 
ATOM     19  C   UNL     1     -35.414  23.734   0.746  0.00  0.00    +0.118 C 
ENDROOT
BRANCH  12  20
ATOM     20  O   UNL     1     -29.568  15.802   0.669  0.00  0.00    -0.384 OA
ATOM     21  H   UNL     1     -30.478  15.468   0.711  0.00  0.00    +0.210 HD
ENDBRANCH  12  20
BRANCH  19  22
ATOM     22  O   UNL     1     -34.767  24.285   1.893  0.00  0.00    -0.331 OA
BRANCH  22  24
ATOM     23  O   UNL     1     -34.502  26.234   3.220  0.00  0.00    -0.317 OA
ATOM     24  C   UNL     1     -35.268  25.584   2.197  0.00  0.00    +0.266 C 
ATOM     25  C   UNL     1     -36.747  25.482   2.589  0.00  0.00    +0.196 C 
ATOM     26  C   UNL     1     -36.898  24.853   3.979  0.00  0.00    +0.172 C 
ATOM     27  C   UNL     1     -34.577  25.588   4.489  0.00  0.00    +0.245 C 
ATOM     28  C   UNL     1     -36.010  25.549   5.015  0.00  0.00    +0.178 C 
BRANCH  25  29
ATOM     29  O   UNL     1     -37.318  26.790   2.587  0.00  0.00    -0.378 OA
ATOM     30  H   UNL     1     -38.070  26.814   1.976  0.00  0.00    +0.211 HD
ENDBRANCH  25  29
BRANCH  26  31
ATOM     31  O   UNL     1     -38.262  24.883   4.379  0.00  0.00    -0.379 OA
ATOM     32  H   UNL     1     -38.648  23.999   4.278  0.00  0.00    +0.211 HD
ENDBRANCH  26  31
BRANCH  28  33
ATOM     33  O   UNL     1     -36.470  26.883   5.234  0.00  0.00    -0.379 OA
ATOM     34  H   UNL     1     -36.717  26.992   6.167  0.00  0.00    +0.211 HD
ENDBRANCH  28  33
BRANCH  27  36
ATOM     35  O   UNL     1     -33.840  26.491   6.603  0.00  0.00    -0.247 OA
ATOM     36  C   UNL     1     -33.683  26.370   5.397  0.00  0.00    +0.344 C 
BRANCH  36  37
ATOM     37  O   UNL     1     -32.668  26.935   4.699  0.00  0.00    -0.478 OA
ATOM     38  H   UNL     1     -32.792  27.763   4.279  0.00  0.00    +0.295 HD
ENDBRANCH  36  37
ENDBRANCH  27  36
ENDBRANCH  22  24
ENDBRANCH  19  22
TORSDOF 8
ENDMDL
MODEL 2
REMARK VINA RESULT:      -7.7      1.450      2.813
REMARK  Name = 53480454
REMARK  8 active torsions:
REMARK  status: ('A' for Active; 'I' for Inactive)
REMARK    1  A    between atoms: C_12  and  O_20
REMARK    2  A    between atoms: C_19  and  O_22
REMARK    3  A    between atoms: O_22  and  C_24
REMARK    4  A    between atoms: C_25  and  O_29
REMARK    5  A    between atoms: C_26  and  O_31
REMARK    6  A    between atoms: C_27  and  C_36
REMARK    7  A    between atoms: C_28  and  O_33
REMARK    8  A    between atoms: C_36  and  O_37
REMARK                            x       y       z     vdW  Elec       q    Type
REMARK                         _______ _______ _______ _____ _____    ______ ____
ROOT
ATOM      1  C   UNL     1     -32.144  19.584   0.666  0.00  0.00    +0.000 C 
ATOM      2  C   UNL     1     -31.355  19.903  -0.647  0.00  0.00    +0.000 C 
ATOM      3  C   UNL     1     -33.658  20.004   0.558  0.00  0.00    +0.000 C 
ATOM      4  C   UNL     1     -29.887  19.515  -0.439  0.00  0.00    +0.002 C 
ATOM      5  C   UNL     1     -29.708  18.019  -0.113  0.00  0.00    +0.025 C 
ATOM      6  C   UNL     1     -33.694  21.523   0.191  0.00  0.00    +0.002 C 
ATOM      7  C   UNL     1     -31.915  18.125   1.143  0.00  0.00    +0.000 C 
ATOM      8  C   UNL     1     -30.428  17.728   1.210  0.00  0.00    +0.002 C 
ATOM      9  C   UNL     1     -31.496  21.380  -1.037  0.00  0.00    +0.000 C 
ATOM     10  C   UNL     1     -28.885  19.760  -1.564  0.00  0.00    +0.003 C 
ATOM     11  C   UNL     1     -32.955  21.826  -1.118  0.00  0.00    +0.000 C 
ATOM     12  C   UNL     1     -28.168  17.968  -0.033  0.00  0.00    +0.110 C 
ATOM     13  C   UNL     1     -34.373  19.832   1.927  0.00  0.00    +0.002 C 
ATOM     14  C   UNL     1     -27.699  18.841  -1.214  0.00  0.00    +0.029 C 
ATOM     15  C   UNL     1     -35.119  22.101   0.176  0.00  0.00    +0.030 C 
ATOM     16  C   UNL     1     -34.396  19.134  -0.493  0.00  0.00    +0.000 C 
ATOM     17  C   UNL     1     -30.231  17.055  -1.209  0.00  0.00    +0.002 C 
ATOM     18  C   UNL     1     -35.788  20.424   1.960  0.00  0.00    +0.030 C 
ATOM     19  C   UNL     1     -35.830  21.883   1.512  0.00  0.00    +0.118 C 
ENDROOT
BRANCH  12  20
ATOM     20  O   UNL     1     -27.629  16.660  -0.083  0.00  0.00    -0.384 OA
ATOM     21  H   UNL     1     -27.960  16.204  -0.872  0.00  0.00    +0.210 HD
ENDBRANCH  12  20
BRANCH  19  22
ATOM     22  O   UNL     1     -35.210  22.679   2.522  0.00  0.00    -0.331 OA
BRANCH  22  24
ATOM     23  O   UNL     1     -37.181  23.491   3.562  0.00  0.00    -0.317 OA
ATOM     24  C   UNL     1     -35.990  22.706   3.713  0.00  0.00    +0.266 C 
ATOM     25  C   UNL     1     -35.131  23.216   4.876  0.00  0.00    +0.196 C 
ATOM     26  C   UNL     1     -34.876  24.722   4.742  0.00  0.00    +0.172 C 
ATOM     27  C   UNL     1     -36.929  24.878   3.347  0.00  0.00    +0.245 C 
ATOM     28  C   UNL     1     -36.177  25.500   4.521  0.00  0.00    +0.178 C 
BRANCH  25  29
ATOM     29  O   UNL     1     -35.808  22.950   6.104  0.00  0.00    -0.378 OA
ATOM     30  H   UNL     1     -35.172  22.971   6.835  0.00  0.00    +0.211 HD
ENDBRANCH  25  29
BRANCH  26  31
ATOM     31  O   UNL     1     -34.188  25.201   5.891  0.00  0.00    -0.379 OA
ATOM     32  H   UNL     1     -33.402  24.656   6.048  0.00  0.00    +0.211 HD
ENDBRANCH  26  31
BRANCH  28  33
ATOM     33  O   UNL     1     -36.990  25.433   5.693  0.00  0.00    -0.379 OA
ATOM     34  H   UNL     1     -37.903  25.672   5.469  0.00  0.00    +0.211 HD
ENDBRANCH  28  33
BRANCH  27  36
ATOM     35  O   UNL     1     -38.500  26.475   2.446  0.00  0.00    -0.247 OA
ATOM     36  C   UNL     1     -38.271  25.510   3.162  0.00  0.00    +0.344 C 
BRANCH  36  37
ATOM     37  O   UNL     1     -39.209  24.869   3.901  0.00  0.00    -0.478 OA
ATOM     38  H   UNL     1     -40.061  24.715   3.545  0.00  0.00    +0.295 HD
ENDBRANCH  36  37
ENDBRANCH  27  36
ENDBRANCH  22  24
ENDBRANCH  19  22
TORSDOF 8
ENDMDL
MODEL 3
REMARK VINA RESULT:      -7.4      1.372      2.541
REMARK  Name = 53480454
REMARK  8 active torsions:
REMARK  status: ('A' for Active; 'I' for Inactive)
REMARK    1  A    between atoms: C_12  and  O_20
REMARK    2  A    between atoms: C_19  and  O_22
REMARK    3  A    between atoms: O_22  and  C_24
REMARK    4  A    between atoms: C_25  and  O_29
REMARK    5  A    between atoms: C_26  and  O_31
REMARK    6  A    between atoms: C_27  and  C_36
REMARK    7  A    between atoms: C_28  and  O_33
REMARK    8  A    between atoms: C_36  and  O_37
REMARK                            x       y       z     vdW  Elec       q    Type
REMARK                         _______ _______ _______ _____ _____    ______ ____
ROOT
ATOM      1  C   UNL     1     -33.499  20.362   1.047  0.00  0.00    +0.000 C 
ATOM      2  C   UNL     1     -32.527  20.481  -0.173  0.00  0.00    +0.000 C 
ATOM      3  C   UNL     1     -34.812  21.205   0.835  0.00  0.00    +0.000 C 
ATOM      4  C   UNL     1     -31.258  19.680   0.136  0.00  0.00    +0.002 C 
ATOM      5  C   UNL     1     -31.544  18.186   0.388  0.00  0.00    +0.025 C 
ATOM      6  C   UNL     1     -34.379  22.681   0.555  0.00  0.00    +0.002 C 
ATOM      7  C   UNL     1     -33.742  18.885   1.456  0.00  0.00    +0.000 C 
ATOM      8  C   UNL     1     -32.444  18.075   1.625  0.00  0.00    +0.002 C 
ATOM      9  C   UNL     1     -32.203  21.948  -0.488  0.00  0.00    +0.000 C 
ATOM     10  C   UNL     1     -30.122  19.660  -0.884  0.00  0.00    +0.003 C 
ATOM     11  C   UNL     1     -33.459  22.798  -0.666  0.00  0.00    +0.000 C 
ATOM     12  C   UNL     1     -30.099  17.690   0.595  0.00  0.00    +0.110 C 
ATOM     13  C   UNL     1     -35.678  21.204   2.127  0.00  0.00    +0.002 C 
ATOM     14  C   UNL     1     -29.287  18.427  -0.488  0.00  0.00    +0.029 C 
ATOM     15  C   UNL     1     -35.572  23.646   0.453  0.00  0.00    +0.030 C 
ATOM     16  C   UNL     1     -35.660  20.618  -0.323  0.00  0.00    +0.000 C 
ATOM     17  C   UNL     1     -32.210  17.449  -0.802  0.00  0.00    +0.002 C 
ATOM     18  C   UNL     1     -36.862  22.178   2.073  0.00  0.00    +0.030 C 
ATOM     19  C   UNL     1     -36.443  23.600   1.709  0.00  0.00    +0.118 C 
ENDROOT
BRANCH  12  20
ATOM     20  O   UNL     1     -29.951  16.285   0.516  0.00  0.00    -0.384 OA
ATOM     21  H   UNL     1     -30.664  15.857   1.015  0.00  0.00    +0.210 HD
ENDBRANCH  12  20
BRANCH  19  22
ATOM     22  O   UNL     1     -35.724  24.151   2.812  0.00  0.00    -0.331 OA
BRANCH  22  24
ATOM     23  O   UNL     1     -36.584  26.324   2.404  0.00  0.00    -0.317 OA
ATOM     24  C   UNL     1     -36.404  25.275   3.365  0.00  0.00    +0.266 C 
ATOM     25  C   UNL     1     -35.645  25.776   4.599  0.00  0.00    +0.196 C 
ATOM     26  C   UNL     1     -34.347  26.480   4.190  0.00  0.00    +0.172 C 
ATOM     27  C   UNL     1     -35.363  26.911   1.961  0.00  0.00    +0.245 C 
ATOM     28  C   UNL     1     -34.594  27.545   3.118  0.00  0.00    +0.178 C 
BRANCH  25  29
ATOM     29  O   UNL     1     -36.480  26.683   5.319  0.00  0.00    -0.378 OA
ATOM     30  H   UNL     1     -36.365  27.578   4.965  0.00  0.00    +0.211 HD
ENDBRANCH  25  29
BRANCH  26  31
ATOM     31  O   UNL     1     -33.721  27.048   5.334  0.00  0.00    -0.379 OA
ATOM     32  H   UNL     1     -33.531  27.984   5.167  0.00  0.00    +0.211 HD
ENDBRANCH  26  31
BRANCH  28  33
ATOM     33  O   UNL     1     -35.361  28.618   3.665  0.00  0.00    -0.379 OA
ATOM     34  H   UNL     1     -35.291  28.607   4.633  0.00  0.00    +0.211 HD
ENDBRANCH  28  33
BRANCH  27  36
ATOM     35  O   UNL     1     -35.081  28.231  -0.040  0.00  0.00    -0.247 OA
ATOM     36  C   UNL     1     -35.749  27.930   0.939  0.00  0.00    +0.344 C 
BRANCH  36  37
ATOM     37  O   UNL     1     -36.948  28.484   1.244  0.00  0.00    -0.478 OA
ATOM     38  H   UNL     1     -37.021  29.076   1.966  0.00  0.00    +0.295 HD
ENDBRANCH  36  37
ENDBRANCH  27  36
ENDBRANCH  22  24
ENDBRANCH  19  22
TORSDOF 8
ENDMDL
MODEL 4
REMARK VINA RESULT:      -7.3      1.186      1.626
REMARK  Name = 53480454
REMARK  8 active torsions:
REMARK  status: ('A' for Active; 'I' for Inactive)
REMARK    1  A    between atoms: C_12  and  O_20
REMARK    2  A    between atoms: C_19  and  O_22
REMARK    3  A    between atoms: O_22  and  C_24
REMARK    4  A    between atoms: C_25  and  O_29
REMARK    5  A    between atoms: C_26  and  O_31
REMARK    6  A    between atoms: C_27  and  C_36
REMARK    7  A    between atoms: C_28  and  O_33
REMARK    8  A    between atoms: C_36  and  O_37
REMARK                            x       y       z     vdW  Elec       q    Type
REMARK                         _______ _______ _______ _____ _____    ______ ____
ROOT
ATOM      1  C   UNL     1     -33.346  20.003   0.880  0.00  0.00    +0.000 C 
ATOM      2  C   UNL     1     -32.368  20.296  -0.304  0.00  0.00    +0.000 C 
ATOM      3  C   UNL     1     -34.788  20.574   0.606  0.00  0.00    +0.000 C 
ATOM      4  C   UNL     1     -30.982  19.758   0.065  0.00  0.00    +0.002 C 
ATOM      5  C   UNL     1     -30.984  18.239   0.332  0.00  0.00    +0.025 C 
ATOM      6  C   UNL     1     -34.637  22.102   0.317  0.00  0.00    +0.002 C 
ATOM      7  C   UNL     1     -33.317  18.511   1.306  0.00  0.00    +0.000 C 
ATOM      8  C   UNL     1     -31.894  17.968   1.537  0.00  0.00    +0.002 C 
ATOM      9  C   UNL     1     -32.321  21.794  -0.632  0.00  0.00    +0.000 C 
ATOM     10  C   UNL     1     -29.824  19.948  -0.912  0.00  0.00    +0.003 C 
ATOM     11  C   UNL     1     -33.710  22.384  -0.871  0.00  0.00    +0.000 C 
ATOM     12  C   UNL     1     -29.480  18.035   0.601  0.00  0.00    +0.110 C 
ATOM     13  C   UNL     1     -35.688  20.418   1.864  0.00  0.00    +0.002 C 
ATOM     14  C   UNL     1     -28.784  18.904  -0.464  0.00  0.00    +0.029 C 
ATOM     15  C   UNL     1     -35.989  22.818   0.154  0.00  0.00    +0.030 C 
ATOM     16  C   UNL     1     -35.461  19.823  -0.572  0.00  0.00    +0.000 C 
ATOM     17  C   UNL     1     -31.448  17.376  -0.869  0.00  0.00    +0.002 C 
ATOM     18  C   UNL     1     -37.035  21.144   1.751  0.00  0.00    +0.030 C 
ATOM     19  C   UNL     1     -36.884  22.617   1.378  0.00  0.00    +0.118 C 
ENDROOT
BRANCH  12  20
ATOM     20  O   UNL     1     -29.061  16.684   0.552  0.00  0.00    -0.384 OA
ATOM     21  H   UNL     1     -28.477  16.555  -0.212  0.00  0.00    +0.210 HD
ENDBRANCH  12  20
BRANCH  19  22
ATOM     22  O   UNL     1     -36.329  23.307   2.497  0.00  0.00    -0.331 OA
BRANCH  22  24
ATOM     23  O   UNL     1     -35.408  25.458   2.103  0.00  0.00    -0.317 OA
ATOM     24  C   UNL     1     -36.588  24.706   2.422  0.00  0.00    +0.266 C 
ATOM     25  C   UNL     1     -37.210  25.182   3.740  0.00  0.00    +0.196 C 
ATOM     26  C   UNL     1     -36.162  25.208   4.858  0.00  0.00    +0.172 C 
ATOM     27  C   UNL     1     -34.402  25.400   3.112  0.00  0.00    +0.245 C 
ATOM     28  C   UNL     1     -34.902  25.970   4.437  0.00  0.00    +0.178 C 
BRANCH  25  29
ATOM     29  O   UNL     1     -37.747  26.492   3.552  0.00  0.00    -0.378 OA
ATOM     30  H   UNL     1     -37.025  27.139   3.544  0.00  0.00    +0.211 HD
ENDBRANCH  25  29
BRANCH  26  31
ATOM     31  O   UNL     1     -36.724  25.771   6.037  0.00  0.00    -0.379 OA
ATOM     32  H   UNL     1     -36.686  26.738   5.983  0.00  0.00    +0.211 HD
ENDBRANCH  26  31
BRANCH  28  33
ATOM     33  O   UNL     1     -35.204  27.357   4.272  0.00  0.00    -0.379 OA
ATOM     34  H   UNL     1     -34.491  27.786   3.772  0.00  0.00    +0.211 HD
ENDBRANCH  28  33
BRANCH  27  36
ATOM     35  O   UNL     1     -32.074  25.988   2.858  0.00  0.00    -0.247 OA
ATOM     36  C   UNL     1     -33.248  26.187   2.580  0.00  0.00    +0.344 C 
BRANCH  36  37
ATOM     37  O   UNL     1     -33.679  27.162   1.742  0.00  0.00    -0.478 OA
ATOM     38  H   UNL     1     -33.093  27.840   1.471  0.00  0.00    +0.295 HD
ENDBRANCH  36  37
ENDBRANCH  27  36
ENDBRANCH  22  24
ENDBRANCH  19  22
TORSDOF 8
ENDMDL
MODEL 5
REMARK VINA RESULT:      -6.9      1.701      2.114
REMARK  Name = 53480454
REMARK  8 active torsions:
REMARK  status: ('A' for Active; 'I' for Inactive)
REMARK    1  A    between atoms: C_12  and  O_20
REMARK    2  A    between atoms: C_19  and  O_22
REMARK    3  A    between atoms: O_22  and  C_24
REMARK    4  A    between atoms: C_25  and  O_29
REMARK    5  A    between atoms: C_26  and  O_31
REMARK    6  A    between atoms: C_27  and  C_36
REMARK    7  A    between atoms: C_28  and  O_33
REMARK    8  A    between atoms: C_36  and  O_37
REMARK                            x       y       z     vdW  Elec       q    Type
REMARK                         _______ _______ _______ _____ _____    ______ ____
ROOT
ATOM      1  C   UNL     1     -33.502  19.048  -0.122  0.00  0.00    +0.000 C 
ATOM      2  C   UNL     1     -32.048  18.762  -0.623  0.00  0.00    +0.000 C 
ATOM      3  C   UNL     1     -33.997  20.482  -0.544  0.00  0.00    +0.000 C 
ATOM      4  C   UNL     1     -31.626  17.376  -0.126  0.00  0.00    +0.002 C 
ATOM      5  C   UNL     1     -32.549  16.253  -0.640  0.00  0.00    +0.025 C 
ATOM      6  C   UNL     1     -32.959  21.514   0.005  0.00  0.00    +0.002 C 
ATOM      7  C   UNL     1     -34.480  17.899  -0.483  0.00  0.00    +0.000 C 
ATOM      8  C   UNL     1     -33.959  16.505  -0.089  0.00  0.00    +0.002 C 
ATOM      9  C   UNL     1     -31.072  19.850  -0.154  0.00  0.00    +0.000 C 
ATOM     10  C   UNL     1     -30.225  16.863  -0.449  0.00  0.00    +0.003 C 
ATOM     11  C   UNL     1     -31.543  21.256  -0.521  0.00  0.00    +0.000 C 
ATOM     12  C   UNL     1     -31.824  15.039  -0.025  0.00  0.00    +0.110 C 
ATOM     13  C   UNL     1     -35.372  20.802   0.109  0.00  0.00    +0.002 C 
ATOM     14  C   UNL     1     -30.329  15.340  -0.245  0.00  0.00    +0.029 C 
ATOM     15  C   UNL     1     -33.385  22.974  -0.227  0.00  0.00    +0.030 C 
ATOM     16  C   UNL     1     -34.153  20.578  -2.084  0.00  0.00    +0.000 C 
ATOM     17  C   UNL     1     -32.613  16.129  -2.184  0.00  0.00    +0.002 C 
ATOM     18  C   UNL     1     -35.817  22.258  -0.077  0.00  0.00    +0.030 C 
ATOM     19  C   UNL     1     -34.760  23.263   0.377  0.00  0.00    +0.118 C 
ENDROOT
BRANCH  12  20
ATOM     20  O   UNL     1     -32.209  13.794  -0.577  0.00  0.00    -0.384 OA
ATOM     21  H   UNL     1     -32.729  13.298   0.075  0.00  0.00    +0.210 HD
ENDBRANCH  12  20
BRANCH  19  22
ATOM     22  O   UNL     1     -34.678  23.213   1.802  0.00  0.00    -0.331 OA
BRANCH  22  24
ATOM     23  O   UNL     1     -35.315  25.198   2.933  0.00  0.00    -0.317 OA
ATOM     24  C   UNL     1     -35.746  23.936   2.408  0.00  0.00    +0.266 C 
ATOM     25  C   UNL     1     -36.394  23.073   3.496  0.00  0.00    +0.196 C 
ATOM     26  C   UNL     1     -35.476  22.962   4.720  0.00  0.00    +0.172 C 
ATOM     27  C   UNL     1     -34.390  25.084   4.012  0.00  0.00    +0.245 C 
ATOM     28  C   UNL     1     -34.999  24.337   5.196  0.00  0.00    +0.178 C 
BRANCH  25  29
ATOM     29  O   UNL     1     -37.636  23.663   3.878  0.00  0.00    -0.378 OA
ATOM     30  H   UNL     1     -37.468  24.439   4.434  0.00  0.00    +0.211 HD
ENDBRANCH  25  29
BRANCH  26  31
ATOM     31  O   UNL     1     -36.144  22.267   5.766  0.00  0.00    -0.379 OA
ATOM     32  H   UNL     1     -36.038  21.312   5.638  0.00  0.00    +0.211 HD
ENDBRANCH  26  31
BRANCH  28  33
ATOM     33  O   UNL     1     -36.102  25.084   5.711  0.00  0.00    -0.379 OA
ATOM     34  H   UNL     1     -36.854  24.489   5.863  0.00  0.00    +0.211 HD
ENDBRANCH  28  33
BRANCH  27  36
ATOM     35  O   UNL     1     -32.913  26.847   4.748  0.00  0.00    -0.247 OA
ATOM     36  C   UNL     1     -34.022  26.485   4.382  0.00  0.00    +0.344 C 
BRANCH  36  37
ATOM     37  O   UNL     1     -35.091  27.309   4.259  0.00  0.00    -0.478 OA
ATOM     38  H   UNL     1     -35.447  27.731   5.015  0.00  0.00    +0.295 HD
ENDBRANCH  36  37
ENDBRANCH  27  36
ENDBRANCH  22  24
ENDBRANCH  19  22
TORSDOF 8
ENDMDL
MODEL 6
REMARK VINA RESULT:      -6.8      1.890      9.142
REMARK  Name = 53480454
REMARK  8 active torsions:
REMARK  status: ('A' for Active; 'I' for Inactive)
REMARK    1  A    between atoms: C_12  and  O_20
REMARK    2  A    between atoms: C_19  and  O_22
REMARK    3  A    between atoms: O_22  and  C_24
REMARK    4  A    between atoms: C_25  and  O_29
REMARK    5  A    between atoms: C_26  and  O_31
REMARK    6  A    between atoms: C_27  and  C_36
REMARK    7  A    between atoms: C_28  and  O_33
REMARK    8  A    between atoms: C_36  and  O_37
REMARK                            x       y       z     vdW  Elec       q    Type
REMARK                         _______ _______ _______ _____ _____    ______ ____
ROOT
ATOM      1  C   UNL     1     -34.448  23.008   1.629  0.00  0.00    +0.000 C 
ATOM      2  C   UNL     1     -35.494  23.039   2.791  0.00  0.00    +0.000 C 
ATOM      3  C   UNL     1     -34.647  21.758   0.692  0.00  0.00    +0.000 C 
ATOM      4  C   UNL     1     -35.197  24.250   3.681  0.00  0.00    +0.002 C 
ATOM      5  C   UNL     1     -35.279  25.586   2.916  0.00  0.00    +0.025 C 
ATOM      6  C   UNL     1     -34.578  20.484   1.594  0.00  0.00    +0.002 C 
ATOM      7  C   UNL     1     -34.368  24.365   0.880  0.00  0.00    +0.000 C 
ATOM      8  C   UNL     1     -34.205  25.574   1.820  0.00  0.00    +0.002 C 
ATOM      9  C   UNL     1     -35.474  21.731   3.595  0.00  0.00    +0.000 C 
ATOM     10  C   UNL     1     -36.056  24.493   4.919  0.00  0.00    +0.003 C 
ATOM     11  C   UNL     1     -35.632  20.498   2.708  0.00  0.00    +0.000 C 
ATOM     12  C   UNL     1     -34.999  26.555   4.082  0.00  0.00    +0.110 C 
ATOM     13  C   UNL     1     -33.495  21.663  -0.348  0.00  0.00    +0.002 C 
ATOM     14  C   UNL     1     -35.811  25.976   5.257  0.00  0.00    +0.029 C 
ATOM     15  C   UNL     1     -34.633  19.175   0.789  0.00  0.00    +0.030 C 
ATOM     16  C   UNL     1     -35.992  21.856  -0.075  0.00  0.00    +0.000 C 
ATOM     17  C   UNL     1     -36.662  25.879   2.280  0.00  0.00    +0.002 C 
ATOM     18  C   UNL     1     -33.499  20.356  -1.152  0.00  0.00    +0.030 C 
ATOM     19  C   UNL     1     -33.524  19.114  -0.264  0.00  0.00    +0.118 C 
ENDROOT
BRANCH  12  20
ATOM     20  O   UNL     1     -35.334  27.902   3.808  0.00  0.00    -0.384 OA
ATOM     21  H   UNL     1     -34.645  28.300   3.252  0.00  0.00    +0.210 HD
ENDBRANCH  12  20
BRANCH  19  22
ATOM     22  O   UNL     1     -32.256  18.999   0.381  0.00  0.00    -0.331 OA
BRANCH  22  24
ATOM     23  O   UNL     1     -30.738  17.519   1.444  0.00  0.00    -0.317 OA
ATOM     24  C   UNL     1     -32.044  17.680   0.874  0.00  0.00    +0.266 C 
ATOM     25  C   UNL     1     -32.286  16.668  -0.253  0.00  0.00    +0.196 C 
ATOM     26  C   UNL     1     -31.146  16.712  -1.276  0.00  0.00    +0.172 C 
ATOM     27  C   UNL     1     -29.679  17.652   0.498  0.00  0.00    +0.245 C 
ATOM     28  C   UNL     1     -29.775  16.598  -0.603  0.00  0.00    +0.178 C 
BRANCH  25  29
ATOM     29  O   UNL     1     -32.378  15.360   0.311  0.00  0.00    -0.378 OA
ATOM     30  H   UNL     1     -31.799  15.300   1.086  0.00  0.00    +0.211 HD
ENDBRANCH  25  29
BRANCH  26  31
ATOM     31  O   UNL     1     -31.322  15.682  -2.242  0.00  0.00    -0.379 OA
ATOM     32  H   UNL     1     -30.514  15.149  -2.297  0.00  0.00    +0.211 HD
ENDBRANCH  26  31
BRANCH  28  33
ATOM     33  O   UNL     1     -29.619  15.299  -0.030  0.00  0.00    -0.379 OA
ATOM     34  H   UNL     1     -28.802  14.895  -0.361  0.00  0.00    +0.211 HD
ENDBRANCH  28  33
BRANCH  27  36
ATOM     35  O   UNL     1     -28.333  17.565   2.500  0.00  0.00    -0.247 OA
ATOM     36  C   UNL     1     -28.414  17.509   1.282  0.00  0.00    +0.344 C 
BRANCH  36  37
ATOM     37  O   UNL     1     -27.359  17.311   0.455  0.00  0.00    -0.478 OA
ATOM     38  H   UNL     1     -26.933  16.477   0.430  0.00  0.00    +0.295 HD
ENDBRANCH  36  37
ENDBRANCH  27  36
ENDBRANCH  22  24
ENDBRANCH  19  22
TORSDOF 8
ENDMDL
MODEL 7
REMARK VINA RESULT:      -6.8      3.096      8.736
REMARK  Name = 53480454
REMARK  8 active torsions:
REMARK  status: ('A' for Active; 'I' for Inactive)
REMARK    1  A    between atoms: C_12  and  O_20
REMARK    2  A    between atoms: C_19  and  O_22
REMARK    3  A    between atoms: O_22  and  C_24
REMARK    4  A    between atoms: C_25  and  O_29
REMARK    5  A    between atoms: C_26  and  O_31
REMARK    6  A    between atoms: C_27  and  C_36
REMARK    7  A    between atoms: C_28  and  O_33
REMARK    8  A    between atoms: C_36  and  O_37
REMARK                            x       y       z     vdW  Elec       q    Type
REMARK                         _______ _______ _______ _____ _____    ______ ____
ROOT
ATOM      1  C   UNL     1     -33.372  26.733   3.422  0.00  0.00    +0.000 C 
ATOM      2  C   UNL     1     -33.460  27.331   4.864  0.00  0.00    +0.000 C 
ATOM      3  C   UNL     1     -34.678  25.941   3.035  0.00  0.00    +0.000 C 
ATOM      4  C   UNL     1     -32.136  28.035   5.180  0.00  0.00    +0.002 C 
ATOM      5  C   UNL     1     -31.821  29.179   4.196  0.00  0.00    +0.025 C 
ATOM      6  C   UNL     1     -34.898  24.844   4.127  0.00  0.00    +0.002 C 
ATOM      7  C   UNL     1     -32.930  27.791   2.377  0.00  0.00    +0.000 C 
ATOM      8  C   UNL     1     -31.671  28.574   2.794  0.00  0.00    +0.002 C 
ATOM      9  C   UNL     1     -33.781  26.245   5.901  0.00  0.00    +0.000 C 
ATOM     10  C   UNL     1     -31.942  28.678   6.551  0.00  0.00    +0.003 C 
ATOM     11  C   UNL     1     -35.024  25.437   5.535  0.00  0.00    +0.000 C 
ATOM     12  C   UNL     1     -30.506  29.687   4.822  0.00  0.00    +0.110 C 
ATOM     13  C   UNL     1     -34.496  25.219   1.670  0.00  0.00    +0.002 C 
ATOM     14  C   UNL     1     -30.776  29.663   6.339  0.00  0.00    +0.029 C 
ATOM     15  C   UNL     1     -36.076  23.908   3.806  0.00  0.00    +0.030 C 
ATOM     16  C   UNL     1     -35.890  26.902   2.923  0.00  0.00    +0.000 C 
ATOM     17  C   UNL     1     -32.882  30.308   4.160  0.00  0.00    +0.002 C 
ATOM     18  C   UNL     1     -35.638  24.253   1.329  0.00  0.00    +0.030 C 
ATOM     19  C   UNL     1     -35.910  23.241   2.440  0.00  0.00    +0.118 C 
ENDROOT
BRANCH  12  20
ATOM     20  O   UNL     1     -30.104  30.965   4.367  0.00  0.00    -0.384 OA
ATOM     21  H   UNL     1     -30.807  31.349   3.820  0.00  0.00    +0.210 HD
ENDBRANCH  12  20
BRANCH  19  22
ATOM     22  O   UNL     1     -34.818  22.321   2.485  0.00  0.00    -0.331 OA
BRANCH  22  24
ATOM     23  O   UNL     1     -34.249  20.019   2.441  0.00  0.00    -0.317 OA
ATOM     24  C   UNL     1     -35.273  20.989   2.702  0.00  0.00    +0.266 C 
ATOM     25  C   UNL     1     -36.517  20.727   1.846  0.00  0.00    +0.196 C 
ATOM     26  C   UNL     1     -36.141  20.596   0.366  0.00  0.00    +0.172 C 
ATOM     27  C   UNL     1     -33.841  19.970   1.076  0.00  0.00    +0.245 C 
ATOM     28  C   UNL     1     -35.001  19.594   0.157  0.00  0.00    +0.178 C 
BRANCH  25  29
ATOM     29  O   UNL     1     -37.142  19.523   2.292  0.00  0.00    -0.378 OA
ATOM     30  H   UNL     1     -37.854  19.282   1.680  0.00  0.00    +0.211 HD
ENDBRANCH  25  29
BRANCH  26  31
ATOM     31  O   UNL     1     -37.285  20.228  -0.395  0.00  0.00    -0.379 OA
ATOM     32  H   UNL     1     -37.873  20.993  -0.486  0.00  0.00    +0.211 HD
ENDBRANCH  26  31
BRANCH  28  33
ATOM     33  O   UNL     1     -35.448  18.275   0.474  0.00  0.00    -0.379 OA
ATOM     34  H   UNL     1     -34.884  17.625   0.024  0.00  0.00    +0.211 HD
ENDBRANCH  28  33
BRANCH  27  36
ATOM     35  O   UNL     1     -32.805  17.829   1.489  0.00  0.00    -0.247 OA
ATOM     36  C   UNL     1     -32.746  18.954   1.015  0.00  0.00    +0.344 C 
BRANCH  36  37
ATOM     37  O   UNL     1     -31.667  19.451   0.362  0.00  0.00    -0.478 OA
ATOM     38  H   UNL     1     -31.741  19.708  -0.536  0.00  0.00    +0.295 HD
ENDBRANCH  36  37
ENDBRANCH  27  36
ENDBRANCH  22  24
ENDBRANCH  19  22
TORSDOF 8
ENDMDL
MODEL 8
REMARK VINA RESULT:      -6.7      2.818      8.998
REMARK  Name = 53480454
REMARK  8 active torsions:
REMARK  status: ('A' for Active; 'I' for Inactive)
REMARK    1  A    between atoms: C_12  and  O_20
REMARK    2  A    between atoms: C_19  and  O_22
REMARK    3  A    between atoms: O_22  and  C_24
REMARK    4  A    between atoms: C_25  and  O_29
REMARK    5  A    between atoms: C_26  and  O_31
REMARK    6  A    between atoms: C_27  and  C_36
REMARK    7  A    between atoms: C_28  and  O_33
REMARK    8  A    between atoms: C_36  and  O_37
REMARK                            x       y       z     vdW  Elec       q    Type
REMARK                         _______ _______ _______ _____ _____    ______ ____
ROOT
ATOM      1  C   UNL     1     -34.336  24.172   2.661  0.00  0.00    +0.000 C 
ATOM      2  C   UNL     1     -34.751  24.657   4.089  0.00  0.00    +0.000 C 
ATOM      3  C   UNL     1     -35.345  23.108   2.087  0.00  0.00    +0.000 C 
ATOM      4  C   UNL     1     -33.693  25.644   4.594  0.00  0.00    +0.002 C 
ATOM      5  C   UNL     1     -33.549  26.879   3.682  0.00  0.00    +0.025 C 
ATOM      6  C   UNL     1     -35.425  21.936   3.118  0.00  0.00    +0.002 C 
ATOM      7  C   UNL     1     -34.041  25.358   1.705  0.00  0.00    +0.000 C 
ATOM      8  C   UNL     1     -33.077  26.401   2.303  0.00  0.00    +0.002 C 
ATOM      9  C   UNL     1     -34.923  23.475   5.053  0.00  0.00    +0.000 C 
ATOM     10  C   UNL     1     -33.841  26.245   5.989  0.00  0.00    +0.003 C 
ATOM     11  C   UNL     1     -35.871  22.410   4.507  0.00  0.00    +0.000 C 
ATOM     12  C   UNL     1     -32.491  27.658   4.490  0.00  0.00    +0.110 C 
ATOM     13  C   UNL     1     -34.819  22.522   0.746  0.00  0.00    +0.002 C 
ATOM     14  C   UNL     1     -32.937  27.493   5.956  0.00  0.00    +0.029 C 
ATOM     15  C   UNL     1     -36.284  20.761   2.625  0.00  0.00    +0.030 C 
ATOM     16  C   UNL     1     -36.733  23.751   1.828  0.00  0.00    +0.000 C 
ATOM     17  C   UNL     1     -34.843  27.717   3.523  0.00  0.00    +0.002 C 
ATOM     18  C   UNL     1     -35.634  21.326   0.236  0.00  0.00    +0.030 C 
ATOM     19  C   UNL     1     -35.786  20.223   1.282  0.00  0.00    +0.118 C 
ENDROOT
BRANCH  12  20
ATOM     20  O   UNL     1     -32.362  29.017   4.116  0.00  0.00    -0.384 OA
ATOM     21  H   UNL     1     -32.455  29.098   3.154  0.00  0.00    +0.210 HD
ENDBRANCH  12  20
BRANCH  19  22
ATOM     22  O   UNL     1     -34.516  19.595   1.457  0.00  0.00    -0.331 OA
BRANCH  22  24
ATOM     23  O   UNL     1     -34.462  18.145  -0.419  0.00  0.00    -0.317 OA
ATOM     24  C   UNL     1     -33.902  19.309   0.204  0.00  0.00    +0.266 C 
ATOM     25  C   UNL     1     -32.389  19.161   0.399  0.00  0.00    +0.196 C 
ATOM     26  C   UNL     1     -32.059  17.846   1.115  0.00  0.00    +0.172 C 
ATOM     27  C   UNL     1     -34.228  16.939   0.304  0.00  0.00    +0.245 C 
ATOM     28  C   UNL     1     -32.735  16.648   0.441  0.00  0.00    +0.178 C 
BRANCH  25  29
ATOM     29  O   UNL     1     -31.752  19.186  -0.879  0.00  0.00    -0.378 OA
ATOM     30  H   UNL     1     -32.027  18.410  -1.392  0.00  0.00    +0.211 HD
ENDBRANCH  25  29
BRANCH  26  31
ATOM     31  O   UNL     1     -30.649  17.665   1.173  0.00  0.00    -0.379 OA
ATOM     32  H   UNL     1     -30.405  16.870   0.674  0.00  0.00    +0.211 HD
ENDBRANCH  26  31
BRANCH  28  33
ATOM     33  O   UNL     1     -32.173  16.437  -0.855  0.00  0.00    -0.379 OA
ATOM     34  H   UNL     1     -31.218  16.281  -0.773  0.00  0.00    +0.211 HD
ENDBRANCH  28  33
BRANCH  27  36
ATOM     35  O   UNL     1     -34.927  15.759  -1.683  0.00  0.00    -0.247 OA
ATOM     36  C   UNL     1     -34.925  15.863  -0.465  0.00  0.00    +0.344 C 
BRANCH  36  37
ATOM     37  O   UNL     1     -35.562  15.011   0.375  0.00  0.00    -0.478 OA
ATOM     38  H   UNL     1     -35.451  14.086   0.278  0.00  0.00    +0.295 HD
ENDBRANCH  36  37
ENDBRANCH  27  36
ENDBRANCH  22  24
ENDBRANCH  19  22
TORSDOF 8
ENDMDL
MODEL 9
REMARK VINA RESULT:      -6.6      2.769      9.179
REMARK  Name = 53480454
REMARK  8 active torsions:
REMARK  status: ('A' for Active; 'I' for Inactive)
REMARK    1  A    between atoms: C_12  and  O_20
REMARK    2  A    between atoms: C_19  and  O_22
REMARK    3  A    between atoms: O_22  and  C_24
REMARK    4  A    between atoms: C_25  and  O_29
REMARK    5  A    between atoms: C_26  and  O_31
REMARK    6  A    between atoms: C_27  and  C_36
REMARK    7  A    between atoms: C_28  and  O_33
REMARK    8  A    between atoms: C_36  and  O_37
REMARK                            x       y       z     vdW  Elec       q    Type
REMARK                         _______ _______ _______ _____ _____    ______ ____
ROOT
ATOM      1  C   UNL     1     -34.698  23.011   1.479  0.00  0.00    +0.000 C 
ATOM      2  C   UNL     1     -35.455  23.006   2.848  0.00  0.00    +0.000 C 
ATOM      3  C   UNL     1     -35.356  22.028   0.441  0.00  0.00    +0.000 C 
ATOM      4  C   UNL     1     -34.721  23.943   3.813  0.00  0.00    +0.002 C 
ATOM      5  C   UNL     1     -34.656  25.395   3.298  0.00  0.00    +0.025 C 
ATOM      6  C   UNL     1     -35.393  20.611   1.099  0.00  0.00    +0.002 C 
ATOM      7  C   UNL     1     -34.469  24.451   0.945  0.00  0.00    +0.000 C 
ATOM      8  C   UNL     1     -33.854  25.401   1.989  0.00  0.00    +0.002 C 
ATOM      9  C   UNL     1     -35.565  21.586   3.419  0.00  0.00    +0.000 C 
ATOM     10  C   UNL     1     -35.237  24.093   5.242  0.00  0.00    +0.003 C 
ATOM     11  C   UNL     1     -36.171  20.601   2.420  0.00  0.00    +0.000 C 
ATOM     12  C   UNL     1     -33.937  26.048   4.496  0.00  0.00    +0.110 C 
ATOM     13  C   UNL     1     -34.488  21.928  -0.846  0.00  0.00    +0.002 C 
ATOM     14  C   UNL     1     -34.604  25.410   5.730  0.00  0.00    +0.029 C 
ATOM     15  C   UNL     1     -35.900  19.519   0.143  0.00  0.00    +0.030 C 
ATOM     16  C   UNL     1     -36.771  22.520   0.039  0.00  0.00    +0.000 C 
ATOM     17  C   UNL     1     -36.037  26.057   3.061  0.00  0.00    +0.002 C 
ATOM     18  C   UNL     1     -34.946  20.828  -1.812  0.00  0.00    +0.030 C 
ATOM     19  C   UNL     1     -35.068  19.462  -1.140  0.00  0.00    +0.118 C 
ENDROOT
BRANCH  12  20
ATOM     20  O   UNL     1     -34.011  27.462   4.515  0.00  0.00    -0.384 OA
ATOM     21  H   UNL     1     -34.881  27.744   4.194  0.00  0.00    +0.210 HD
ENDBRANCH  12  20
BRANCH  19  22
ATOM     22  O   UNL     1     -33.755  18.991  -0.840  0.00  0.00    -0.331 OA
BRANCH  22  24
ATOM     23  O   UNL     1     -34.339  16.792  -1.510  0.00  0.00    -0.317 OA
ATOM     24  C   UNL     1     -33.407  17.873  -1.651  0.00  0.00    +0.266 C 
ATOM     25  C   UNL     1     -31.980  17.424  -1.318  0.00  0.00    +0.196 C 
ATOM     26  C   UNL     1     -31.934  16.731   0.049  0.00  0.00    +0.172 C 
ATOM     27  C   UNL     1     -34.353  16.215  -0.207  0.00  0.00    +0.245 C 
ATOM     28  C   UNL     1     -32.992  15.629   0.162  0.00  0.00    +0.178 C 
BRANCH  25  29
ATOM     29  O   UNL     1     -31.530  16.523  -2.330  0.00  0.00    -0.378 OA
ATOM     30  H   UNL     1     -31.522  16.976  -3.187  0.00  0.00    +0.211 HD
ENDBRANCH  25  29
BRANCH  26  31
ATOM     31  O   UNL     1     -30.632  16.209   0.284  0.00  0.00    -0.379 OA
ATOM     32  H   UNL     1     -29.970  16.891   0.093  0.00  0.00    +0.211 HD
ENDBRANCH  26  31
BRANCH  28  33
ATOM     33  O   UNL     1     -32.679  14.559  -0.731  0.00  0.00    -0.379 OA
ATOM     34  H   UNL     1     -33.434  13.952  -0.786  0.00  0.00    +0.211 HD
ENDBRANCH  28  33
BRANCH  27  36
ATOM     35  O   UNL     1     -35.458  14.239  -1.048  0.00  0.00    -0.247 OA
ATOM     36  C   UNL     1     -35.410  15.158  -0.242  0.00  0.00    +0.344 C 
BRANCH  36  37
ATOM     37  O   UNL     1     -36.318  15.356   0.744  0.00  0.00    -0.478 OA
ATOM     38  H   UNL     1     -36.031  15.484   1.627  0.00  0.00    +0.295 HD
ENDBRANCH  36  37
ENDBRANCH  27  36
ENDBRANCH  22  24
ENDBRANCH  19  22
TORSDOF 8
ENDMDL
