MODEL 1
REMARK VINA RESULT:      -6.3      0.000      0.000
REMARK  Name = 55708
REMARK  5 active torsions:
REMARK  status: ('A' for Active; 'I' for Inactive)
REMARK    1  A    between atoms: C_2  and  N_19
REMARK    2  A    between atoms: C_9  and  O_25
REMARK    3  A    between atoms: C_13  and  O_27
REMARK    4  A    between atoms: C_14  and  O_29
REMARK    5  A    between atoms: C_17  and  S_23
REMARK                            x       y       z     vdW  Elec       q    Type
REMARK                         _______ _______ _______ _____ _____    ______ ____
ROOT
ATOM      1  O   UNL     1     -40.906  25.887   3.509  0.00  0.00    -0.286 OA
ATOM      2  C   UNL     1     -36.279  24.837   3.689  0.00  0.00    +0.094 C 
ATOM      3  C   UNL     1     -34.955  25.019   2.914  0.00  0.00    +0.029 C 
ATOM      4  C   UNL     1     -34.807  24.324   1.554  0.00  0.00    +0.029 C 
ATOM      5  C   UNL     1     -37.576  24.844   2.878  0.00  0.00    -0.001 C 
ATOM      6  C   UNL     1     -35.386  22.934   1.517  0.00  0.00    -0.016 C 
ATOM      7  C   UNL     1     -36.781  22.749   1.601  0.00  0.00    +0.033 C 
ATOM      8  C   UNL     1     -37.674  23.936   1.725  0.00  0.00    +0.000 C 
ATOM      9  C   UNL     1     -37.311  21.450   1.600  0.00  0.00    +0.175 C 
ATOM     10  C   UNL     1     -34.547  21.817   1.417  0.00  0.00    +0.036 C 
ATOM     11  C   UNL     1     -38.583  25.617   3.327  0.00  0.00    +0.040 C 
ATOM     12  C   UNL     1     -38.468  24.139   0.654  0.00  0.00    +0.000 C 
ATOM     13  C   UNL     1     -35.086  20.529   1.406  0.00  0.00    +0.175 C 
ATOM     14  C   UNL     1     -36.464  20.347   1.499  0.00  0.00    +0.202 C 
ATOM     15  C   UNL     1     -39.942  25.780   2.755  0.00  0.00    +0.201 C 
ATOM     16  C   UNL     1     -39.369  25.233   0.394  0.00  0.00    +0.009 C 
ATOM     17  C   UNL     1     -40.068  25.946   1.285  0.00  0.00    +0.064 C 
ENDROOT
BRANCH   2  19
ATOM     18  O   UNL     1     -34.447  24.251   5.863  0.00  0.00    -0.275 OA
ATOM     19  N   UNL     1     -36.258  23.655   4.526  0.00  0.00    -0.302 N 
ATOM     20  C   UNL     1     -35.339  23.469   5.543  0.00  0.00    +0.223 C 
ATOM     21  C   UNL     1     -35.556  22.169   6.271  0.00  0.00    +0.095 C 
ATOM     22  H   UNL     1     -36.928  22.952   4.365  0.00  0.00    +0.150 HD
ENDBRANCH   2  19
BRANCH  17  23
ATOM     23  S   UNL     1     -41.217  27.151   0.783  0.00  0.00    -0.110 S 
ATOM     24  C   UNL     1     -42.614  26.082   0.378  0.00  0.00    +0.074 C 
ENDBRANCH  17  23
BRANCH   9  25
ATOM     25  O   UNL     1     -38.655  21.241   1.721  0.00  0.00    -0.468 OA
ATOM     26  C   UNL     1     -39.372  20.954   0.524  0.00  0.00    +0.253 C 
ENDBRANCH   9  25
BRANCH  13  27
ATOM     27  O   UNL     1     -34.250  19.457   1.313  0.00  0.00    -0.468 OA
ATOM     28  C   UNL     1     -32.995  19.667   0.668  0.00  0.00    +0.253 C 
ENDBRANCH  13  27
BRANCH  14  29
ATOM     29  O   UNL     1     -36.983  19.085   1.499  0.00  0.00    -0.501 OA
ATOM     30  H   UNL     1     -36.831  18.516   2.228  0.00  0.00    +0.292 HD
ENDBRANCH  14  29
TORSDOF 5
ENDMDL
MODEL 2
REMARK VINA RESULT:      -6.1      2.578      5.372
REMARK  Name = 55708
REMARK  5 active torsions:
REMARK  status: ('A' for Active; 'I' for Inactive)
REMARK    1  A    between atoms: C_2  and  N_19
REMARK    2  A    between atoms: C_9  and  O_25
REMARK    3  A    between atoms: C_13  and  O_27
REMARK    4  A    between atoms: C_14  and  O_29
REMARK    5  A    between atoms: C_17  and  S_23
REMARK                            x       y       z     vdW  Elec       q    Type
REMARK                         _______ _______ _______ _____ _____    ______ ____
ROOT
ATOM      1  O   UNL     1     -39.292  24.483  -0.650  0.00  0.00    -0.286 OA
ATOM      2  C   UNL     1     -35.961  22.948   2.367  0.00  0.00    +0.094 C 
ATOM      3  C   UNL     1     -35.753  22.502   3.832  0.00  0.00    +0.029 C 
ATOM      4  C   UNL     1     -35.925  23.548   4.941  0.00  0.00    +0.029 C 
ATOM      5  C   UNL     1     -37.103  23.926   2.085  0.00  0.00    -0.001 C 
ATOM      6  C   UNL     1     -35.357  24.899   4.595  0.00  0.00    -0.016 C 
ATOM      7  C   UNL     1     -35.962  25.681   3.590  0.00  0.00    +0.033 C 
ATOM      8  C   UNL     1     -37.164  25.163   2.879  0.00  0.00    +0.000 C 
ATOM      9  C   UNL     1     -35.406  26.924   3.250  0.00  0.00    +0.175 C 
ATOM     10  C   UNL     1     -34.217  25.381   5.252  0.00  0.00    +0.036 C 
ATOM     11  C   UNL     1     -37.930  23.635   1.062  0.00  0.00    +0.040 C 
ATOM     12  C   UNL     1     -38.291  25.861   3.125  0.00  0.00    +0.000 C 
ATOM     13  C   UNL     1     -33.680  26.623   4.912  0.00  0.00    +0.175 C 
ATOM     14  C   UNL     1     -34.272  27.391   3.912  0.00  0.00    +0.202 C 
ATOM     15  C   UNL     1     -39.083  24.422   0.560  0.00  0.00    +0.201 C 
ATOM     16  C   UNL     1     -39.637  25.584   2.692  0.00  0.00    +0.009 C 
ATOM     17  C   UNL     1     -40.025  24.997   1.553  0.00  0.00    +0.064 C 
ENDROOT
BRANCH   2  19
ATOM     18  O   UNL     1     -34.880  22.361  -0.261  0.00  0.00    -0.275 OA
ATOM     19  N   UNL     1     -34.743  23.469   1.782  0.00  0.00    -0.302 N 
ATOM     20  C   UNL     1     -34.311  23.126   0.514  0.00  0.00    +0.223 C 
ATOM     21  C   UNL     1     -33.032  23.828   0.143  0.00  0.00    +0.095 C 
ATOM     22  H   UNL     1     -34.198  24.096   2.310  0.00  0.00    +0.150 HD
ENDBRANCH   2  19
BRANCH  17  23
ATOM     23  S   UNL     1     -41.705  24.861   1.127  0.00  0.00    -0.110 S 
ATOM     24  C   UNL     1     -42.374  26.213   2.117  0.00  0.00    +0.074 C 
ENDBRANCH  17  23
BRANCH   9  25
ATOM     25  O   UNL     1     -35.949  27.685   2.253  0.00  0.00    -0.468 OA
ATOM     26  C   UNL     1     -35.469  27.453   0.932  0.00  0.00    +0.253 C 
ENDBRANCH   9  25
BRANCH  13  27
ATOM     27  O   UNL     1     -32.568  27.069   5.561  0.00  0.00    -0.468 OA
ATOM     28  C   UNL     1     -32.643  27.171   6.981  0.00  0.00    +0.253 C 
ENDBRANCH  13  27
BRANCH  14  29
ATOM     29  O   UNL     1     -33.736  28.600   3.577  0.00  0.00    -0.501 OA
ATOM     30  H   UNL     1     -34.290  29.289   3.269  0.00  0.00    +0.292 HD
ENDBRANCH  14  29
TORSDOF 5
ENDMDL
MODEL 3
REMARK VINA RESULT:      -5.9      2.751      5.283
REMARK  Name = 55708
REMARK  5 active torsions:
REMARK  status: ('A' for Active; 'I' for Inactive)
REMARK    1  A    between atoms: C_2  and  N_19
REMARK    2  A    between atoms: C_9  and  O_25
REMARK    3  A    between atoms: C_13  and  O_27
REMARK    4  A    between atoms: C_14  and  O_29
REMARK    5  A    between atoms: C_17  and  S_23
REMARK                            x       y       z     vdW  Elec       q    Type
REMARK                         _______ _______ _______ _____ _____    ______ ____
ROOT
ATOM      1  O   UNL     1     -39.151  22.502  -2.206  0.00  0.00    -0.286 OA
ATOM      2  C   UNL     1     -35.385  21.930   0.630  0.00  0.00    +0.094 C 
ATOM      3  C   UNL     1     -34.834  21.034   1.761  0.00  0.00    +0.029 C 
ATOM      4  C   UNL     1     -35.545  21.061   3.121  0.00  0.00    +0.029 C 
ATOM      5  C   UNL     1     -36.905  22.046   0.501  0.00  0.00    -0.001 C 
ATOM      6  C   UNL     1     -35.983  22.437   3.550  0.00  0.00    -0.016 C 
ATOM      7  C   UNL     1     -37.019  23.094   2.854  0.00  0.00    +0.033 C 
ATOM      8  C   UNL     1     -37.673  22.418   1.699  0.00  0.00    +0.000 C 
ATOM      9  C   UNL     1     -37.399  24.389   3.237  0.00  0.00    +0.175 C 
ATOM     10  C   UNL     1     -35.358  23.081   4.625  0.00  0.00    +0.036 C 
ATOM     11  C   UNL     1     -37.436  21.889  -0.727  0.00  0.00    +0.040 C 
ATOM     12  C   UNL     1     -38.966  22.097   1.911  0.00  0.00    +0.000 C 
ATOM     13  C   UNL     1     -35.752  24.365   5.004  0.00  0.00    +0.175 C 
ATOM     14  C   UNL     1     -36.769  25.017   4.310  0.00  0.00    +0.202 C 
ATOM     15  C   UNL     1     -38.860  21.982  -1.131  0.00  0.00    +0.201 C 
ATOM     16  C   UNL     1     -39.863  21.356   1.061  0.00  0.00    +0.009 C 
ATOM     17  C   UNL     1     -39.877  21.318  -0.277  0.00  0.00    +0.064 C 
ENDROOT
BRANCH   2  19
ATOM     18  O   UNL     1     -32.761  22.753  -0.297  0.00  0.00    -0.275 OA
ATOM     19  N   UNL     1     -34.817  23.262   0.669  0.00  0.00    -0.302 N 
ATOM     20  C   UNL     1     -33.550  23.554   0.199  0.00  0.00    +0.223 C 
ATOM     21  C   UNL     1     -33.217  25.015   0.336  0.00  0.00    +0.095 C 
ATOM     22  H   UNL     1     -35.357  23.993   1.047  0.00  0.00    +0.150 HD
ENDBRANCH   2  19
BRANCH  17  23
ATOM     23  S   UNL     1     -41.121  20.471  -1.149  0.00  0.00    -0.110 S 
ATOM     24  C   UNL     1     -40.154  19.083  -1.776  0.00  0.00    +0.074 C 
ENDBRANCH  17  23
BRANCH   9  25
ATOM     25  O   UNL     1     -38.372  25.064   2.556  0.00  0.00    -0.468 OA
ATOM     26  C   UNL     1     -37.948  25.881   1.468  0.00  0.00    +0.253 C 
ENDBRANCH   9  25
BRANCH  13  27
ATOM     27  O   UNL     1     -35.126  24.973   6.050  0.00  0.00    -0.468 OA
ATOM     28  C   UNL     1     -34.085  25.895   5.736  0.00  0.00    +0.253 C 
ENDBRANCH  13  27
BRANCH  14  29
ATOM     29  O   UNL     1     -37.141  26.277   4.679  0.00  0.00    -0.501 OA
ATOM     30  H   UNL     1     -37.199  26.501   5.587  0.00  0.00    +0.292 HD
ENDBRANCH  14  29
TORSDOF 5
ENDMDL
MODEL 4
REMARK VINA RESULT:      -5.8      1.900      2.608
REMARK  Name = 55708
REMARK  5 active torsions:
REMARK  status: ('A' for Active; 'I' for Inactive)
REMARK    1  A    between atoms: C_2  and  N_19
REMARK    2  A    between atoms: C_9  and  O_25
REMARK    3  A    between atoms: C_13  and  O_27
REMARK    4  A    between atoms: C_14  and  O_29
REMARK    5  A    between atoms: C_17  and  S_23
REMARK                            x       y       z     vdW  Elec       q    Type
REMARK                         _______ _______ _______ _____ _____    ______ ____
ROOT
ATOM      1  O   UNL     1     -40.377  22.886   2.063  0.00  0.00    -0.286 OA
ATOM      2  C   UNL     1     -35.685  23.578   2.300  0.00  0.00    +0.094 C 
ATOM      3  C   UNL     1     -34.489  24.123   1.488  0.00  0.00    +0.029 C 
ATOM      4  C   UNL     1     -34.065  23.365   0.224  0.00  0.00    +0.029 C 
ATOM      5  C   UNL     1     -36.875  23.025   1.516  0.00  0.00    -0.001 C 
ATOM      6  C   UNL     1     -34.111  21.866   0.370  0.00  0.00    -0.016 C 
ATOM      7  C   UNL     1     -35.353  21.210   0.499  0.00  0.00    +0.033 C 
ATOM      8  C   UNL     1     -36.611  22.008   0.487  0.00  0.00    +0.000 C 
ATOM      9  C   UNL     1     -35.387  19.817   0.668  0.00  0.00    +0.175 C 
ATOM     10  C   UNL     1     -32.929  21.116   0.397  0.00  0.00    +0.036 C 
ATOM     11  C   UNL     1     -38.105  23.439   1.880  0.00  0.00    +0.040 C 
ATOM     12  C   UNL     1     -37.393  21.783  -0.588  0.00  0.00    +0.000 C 
ATOM     13  C   UNL     1     -32.976  19.731   0.556  0.00  0.00    +0.175 C 
ATOM     14  C   UNL     1     -34.202  19.084   0.693  0.00  0.00    +0.202 C 
ATOM     15  C   UNL     1     -39.415  23.037   1.313  0.00  0.00    +0.201 C 
ATOM     16  C   UNL     1     -38.615  22.444  -0.969  0.00  0.00    +0.009 C 
ATOM     17  C   UNL     1     -39.548  22.966  -0.164  0.00  0.00    +0.064 C 
ENDROOT
BRANCH   2  19
ATOM     18  O   UNL     1     -36.388  23.488   5.115  0.00  0.00    -0.275 OA
ATOM     19  N   UNL     1     -35.272  22.594   3.279  0.00  0.00    -0.302 N 
ATOM     20  C   UNL     1     -35.663  22.638   4.604  0.00  0.00    +0.223 C 
ATOM     21  C   UNL     1     -35.113  21.483   5.397  0.00  0.00    +0.095 C 
ATOM     22  H   UNL     1     -34.685  21.859   2.988  0.00  0.00    +0.150 HD
ENDBRANCH   2  19
BRANCH  17  23
ATOM     23  S   UNL     1     -41.034  23.613  -0.794  0.00  0.00    -0.110 S 
ATOM     24  C   UNL     1     -40.740  25.370  -0.507  0.00  0.00    +0.074 C 
ENDBRANCH  17  23
BRANCH   9  25
ATOM     25  O   UNL     1     -36.573  19.161   0.835  0.00  0.00    -0.468 OA
ATOM     26  C   UNL     1     -37.038  18.381  -0.262  0.00  0.00    +0.253 C 
ENDBRANCH   9  25
BRANCH  13  27
ATOM     27  O   UNL     1     -31.812  19.023   0.585  0.00  0.00    -0.468 OA
ATOM     28  C   UNL     1     -30.723  19.533  -0.182  0.00  0.00    +0.253 C 
ENDBRANCH  13  27
BRANCH  14  29
ATOM     29  O   UNL     1     -34.240  17.730   0.859  0.00  0.00    -0.501 OA
ATOM     30  H   UNL     1     -33.673  17.319   1.481  0.00  0.00    +0.292 HD
ENDBRANCH  14  29
TORSDOF 5
ENDMDL
MODEL 5
REMARK VINA RESULT:      -5.8      2.589      4.448
REMARK  Name = 55708
REMARK  5 active torsions:
REMARK  status: ('A' for Active; 'I' for Inactive)
REMARK    1  A    between atoms: C_2  and  N_19
REMARK    2  A    between atoms: C_9  and  O_25
REMARK    3  A    between atoms: C_13  and  O_27
REMARK    4  A    between atoms: C_14  and  O_29
REMARK    5  A    between atoms: C_17  and  S_23
REMARK                            x       y       z     vdW  Elec       q    Type
REMARK                         _______ _______ _______ _____ _____    ______ ____
ROOT
ATOM      1  O   UNL     1     -40.238  23.162   0.963  0.00  0.00    -0.286 OA
ATOM      2  C   UNL     1     -36.382  22.753   3.705  0.00  0.00    +0.094 C 
ATOM      3  C   UNL     1     -35.719  23.336   4.972  0.00  0.00    +0.029 C 
ATOM      4  C   UNL     1     -35.235  24.791   4.935  0.00  0.00    +0.029 C 
ATOM      5  C   UNL     1     -37.322  23.668   2.918  0.00  0.00    -0.001 C 
ATOM      6  C   UNL     1     -34.585  25.183   3.634  0.00  0.00    -0.016 C 
ATOM      7  C   UNL     1     -35.361  25.278   2.460  0.00  0.00    +0.033 C 
ATOM      8  C   UNL     1     -36.823  24.993   2.520  0.00  0.00    +0.000 C 
ATOM      9  C   UNL     1     -34.743  25.610   1.245  0.00  0.00    +0.175 C 
ATOM     10  C   UNL     1     -33.209  25.436   3.573  0.00  0.00    +0.036 C 
ATOM     11  C   UNL     1     -38.520  23.166   2.561  0.00  0.00    +0.040 C 
ATOM     12  C   UNL     1     -37.602  26.068   2.287  0.00  0.00    +0.000 C 
ATOM     13  C   UNL     1     -32.607  25.775   2.361  0.00  0.00    +0.175 C 
ATOM     14  C   UNL     1     -33.373  25.860   1.200  0.00  0.00    +0.202 C 
ATOM     15  C   UNL     1     -39.594  23.822   1.776  0.00  0.00    +0.201 C 
ATOM     16  C   UNL     1     -39.037  26.177   2.364  0.00  0.00    +0.009 C 
ATOM     17  C   UNL     1     -39.943  25.228   2.103  0.00  0.00    +0.064 C 
ENDROOT
BRANCH   2  19
ATOM     18  O   UNL     1     -36.351  20.071   2.596  0.00  0.00    -0.275 OA
ATOM     19  N   UNL     1     -35.407  22.190   2.793  0.00  0.00    -0.302 N 
ATOM     20  C   UNL     1     -35.481  20.894   2.319  0.00  0.00    +0.223 C 
ATOM     21  C   UNL     1     -34.358  20.573   1.370  0.00  0.00    +0.095 C 
ATOM     22  H   UNL     1     -34.658  22.756   2.497  0.00  0.00    +0.150 HD
ENDBRANCH   2  19
BRANCH  17  23
ATOM     23  S   UNL     1     -41.648  25.571   2.117  0.00  0.00    -0.110 S 
ATOM     24  C   UNL     1     -41.723  26.652   3.560  0.00  0.00    +0.074 C 
ENDBRANCH  17  23
BRANCH   9  25
ATOM     25  O   UNL     1     -35.464  25.671   0.086  0.00  0.00    -0.468 OA
ATOM     26  C   UNL     1     -35.577  24.467  -0.666  0.00  0.00    +0.253 C 
ENDBRANCH   9  25
BRANCH  13  27
ATOM     27  O   UNL     1     -31.266  26.012   2.325  0.00  0.00    -0.468 OA
ATOM     28  C   UNL     1     -30.831  27.328   2.661  0.00  0.00    +0.253 C 
ENDBRANCH  13  27
BRANCH  14  29
ATOM     29  O   UNL     1     -32.776  26.182   0.016  0.00  0.00    -0.501 OA
ATOM     30  H   UNL     1     -33.065  26.932  -0.465  0.00  0.00    +0.292 HD
ENDBRANCH  14  29
TORSDOF 5
ENDMDL
MODEL 6
REMARK VINA RESULT:      -5.7      3.646      7.137
REMARK  Name = 55708
REMARK  5 active torsions:
REMARK  status: ('A' for Active; 'I' for Inactive)
REMARK    1  A    between atoms: C_2  and  N_19
REMARK    2  A    between atoms: C_9  and  O_25
REMARK    3  A    between atoms: C_13  and  O_27
REMARK    4  A    between atoms: C_14  and  O_29
REMARK    5  A    between atoms: C_17  and  S_23
REMARK                            x       y       z     vdW  Elec       q    Type
REMARK                         _______ _______ _______ _____ _____    ______ ____
ROOT
ATOM      1  O   UNL     1     -31.942  19.639  -1.658  0.00  0.00    -0.286 OA
ATOM      2  C   UNL     1     -34.144  23.271   0.467  0.00  0.00    +0.094 C 
ATOM      3  C   UNL     1     -34.387  23.908   1.853  0.00  0.00    +0.029 C 
ATOM      4  C   UNL     1     -35.221  23.125   2.876  0.00  0.00    +0.029 C 
ATOM      5  C   UNL     1     -33.874  21.766   0.421  0.00  0.00    -0.001 C 
ATOM      6  C   UNL     1     -36.409  22.418   2.277  0.00  0.00    -0.016 C 
ATOM      7  C   UNL     1     -36.213  21.323   1.410  0.00  0.00    +0.033 C 
ATOM      8  C   UNL     1     -34.828  20.873   1.096  0.00  0.00    +0.000 C 
ATOM      9  C   UNL     1     -37.324  20.691   0.830  0.00  0.00    +0.175 C 
ATOM     10  C   UNL     1     -37.711  22.850   2.559  0.00  0.00    +0.036 C 
ATOM     11  C   UNL     1     -32.825  21.346  -0.313  0.00  0.00    +0.040 C 
ATOM     12  C   UNL     1     -34.526  19.650   1.578  0.00  0.00    +0.000 C 
ATOM     13  C   UNL     1     -38.808  22.207   1.985  0.00  0.00    +0.175 C 
ATOM     14  C   UNL     1     -38.614  21.132   1.121  0.00  0.00    +0.202 C 
ATOM     15  C   UNL     1     -32.367  19.955  -0.549  0.00  0.00    +0.201 C 
ATOM     16  C   UNL     1     -33.264  18.956   1.548  0.00  0.00    +0.009 C 
ATOM     17  C   UNL     1     -32.313  19.028   0.610  0.00  0.00    +0.064 C 
ENDROOT
BRANCH   2  19
ATOM     18  O   UNL     1     -33.867  24.198  -2.270  0.00  0.00    -0.275 OA
ATOM     19  N   UNL     1     -35.206  23.583  -0.467  0.00  0.00    -0.302 N 
ATOM     20  C   UNL     1     -34.969  24.020  -1.757  0.00  0.00    +0.223 C 
ATOM     21  C   UNL     1     -36.246  24.248  -2.521  0.00  0.00    +0.095 C 
ATOM     22  H   UNL     1     -36.139  23.480  -0.171  0.00  0.00    +0.150 HD
ENDBRANCH   2  19
BRANCH  17  23
ATOM     23  S   UNL     1     -30.902  18.013   0.666  0.00  0.00    -0.110 S 
ATOM     24  C   UNL     1     -31.585  16.511  -0.064  0.00  0.00    +0.074 C 
ENDBRANCH  17  23
BRANCH   9  25
ATOM     25  O   UNL     1     -37.161  19.654  -0.043  0.00  0.00    -0.468 OA
ATOM     26  C   UNL     1     -37.025  19.987  -1.421  0.00  0.00    +0.253 C 
ENDBRANCH   9  25
BRANCH  13  27
ATOM     27  O   UNL     1     -40.065  22.648   2.270  0.00  0.00    -0.468 OA
ATOM     28  C   UNL     1     -40.429  23.935   1.775  0.00  0.00    +0.253 C 
ENDBRANCH  13  27
BRANCH  14  29
ATOM     29  O   UNL     1     -39.690  20.514   0.554  0.00  0.00    -0.501 OA
ATOM     30  H   UNL     1     -39.915  19.640   0.806  0.00  0.00    +0.292 HD
ENDBRANCH  14  29
TORSDOF 5
ENDMDL
MODEL 7
REMARK VINA RESULT:      -5.7      3.294      6.772
REMARK  Name = 55708
REMARK  5 active torsions:
REMARK  status: ('A' for Active; 'I' for Inactive)
REMARK    1  A    between atoms: C_2  and  N_19
REMARK    2  A    between atoms: C_9  and  O_25
REMARK    3  A    between atoms: C_13  and  O_27
REMARK    4  A    between atoms: C_14  and  O_29
REMARK    5  A    between atoms: C_17  and  S_23
REMARK                            x       y       z     vdW  Elec       q    Type
REMARK                         _______ _______ _______ _____ _____    ______ ____
ROOT
ATOM      1  O   UNL     1     -33.216  19.830  -1.543  0.00  0.00    -0.286 OA
ATOM      2  C   UNL     1     -34.237  23.913   0.656  0.00  0.00    +0.094 C 
ATOM      3  C   UNL     1     -34.088  24.640   2.011  0.00  0.00    +0.029 C 
ATOM      4  C   UNL     1     -34.851  24.084   3.220  0.00  0.00    +0.029 C 
ATOM      5  C   UNL     1     -34.276  22.385   0.677  0.00  0.00    -0.001 C 
ATOM      6  C   UNL     1     -36.244  23.611   2.896  0.00  0.00    -0.016 C 
ATOM      7  C   UNL     1     -36.429  22.467   2.093  0.00  0.00    +0.033 C 
ATOM      8  C   UNL     1     -35.241  21.732   1.575  0.00  0.00    +0.000 C 
ATOM      9  C   UNL     1     -37.730  22.052   1.767  0.00  0.00    +0.175 C 
ATOM     10  C   UNL     1     -37.361  24.310   3.369  0.00  0.00    +0.036 C 
ATOM     11  C   UNL     1     -33.485  21.731  -0.196  0.00  0.00    +0.040 C 
ATOM     12  C   UNL     1     -35.097  20.493   2.087  0.00  0.00    +0.000 C 
ATOM     13  C   UNL     1     -38.649  23.883   3.046  0.00  0.00    +0.175 C 
ATOM     14  C   UNL     1     -38.832  22.757   2.245  0.00  0.00    +0.202 C 
ATOM     15  C   UNL     1     -33.357  20.268  -0.403  0.00  0.00    +0.201 C 
ATOM     16  C   UNL     1     -34.021  19.555   1.888  0.00  0.00    +0.009 C 
ATOM     17  C   UNL     1     -33.266  19.395   0.794  0.00  0.00    +0.064 C 
ENDROOT
BRANCH   2  19
ATOM     18  O   UNL     1     -34.294  24.697  -2.138  0.00  0.00    -0.275 OA
ATOM     19  N   UNL     1     -35.374  24.400  -0.098  0.00  0.00    -0.302 N 
ATOM     20  C   UNL     1     -35.299  24.748  -1.434  0.00  0.00    +0.223 C 
ATOM     21  C   UNL     1     -36.629  25.197  -1.977  0.00  0.00    +0.095 C 
ATOM     22  H   UNL     1     -36.240  24.485   0.361  0.00  0.00    +0.150 HD
ENDBRANCH   2  19
BRANCH  17  23
ATOM     23  S   UNL     1     -32.093  18.117   0.678  0.00  0.00    -0.110 S 
ATOM     24  C   UNL     1     -33.181  16.755   0.213  0.00  0.00    +0.074 C 
ENDBRANCH  17  23
BRANCH   9  25
ATOM     25  O   UNL     1     -37.938  20.970   0.959  0.00  0.00    -0.468 OA
ATOM     26  C   UNL     1     -37.999  21.215  -0.443  0.00  0.00    +0.253 C 
ENDBRANCH   9  25
BRANCH  13  27
ATOM     27  O   UNL     1     -39.721  24.582   3.514  0.00  0.00    -0.468 OA
ATOM     28  C   UNL     1     -40.009  25.827   2.883  0.00  0.00    +0.253 C 
ENDBRANCH  13  27
BRANCH  14  29
ATOM     29  O   UNL     1     -40.094  22.351   1.925  0.00  0.00    -0.501 OA
ATOM     30  H   UNL     1     -40.812  22.948   2.000  0.00  0.00    +0.292 HD
ENDBRANCH  14  29
TORSDOF 5
ENDMDL
MODEL 8
REMARK VINA RESULT:      -5.6      3.013      6.448
REMARK  Name = 55708
REMARK  5 active torsions:
REMARK  status: ('A' for Active; 'I' for Inactive)
REMARK    1  A    between atoms: C_2  and  N_19
REMARK    2  A    between atoms: C_9  and  O_25
REMARK    3  A    between atoms: C_13  and  O_27
REMARK    4  A    between atoms: C_14  and  O_29
REMARK    5  A    between atoms: C_17  and  S_23
REMARK                            x       y       z     vdW  Elec       q    Type
REMARK                         _______ _______ _______ _____ _____    ______ ____
ROOT
ATOM      1  O   UNL     1     -32.373  21.071   0.302  0.00  0.00    -0.286 OA
ATOM      2  C   UNL     1     -36.642  21.273   2.372  0.00  0.00    +0.094 C 
ATOM      3  C   UNL     1     -38.151  21.124   2.074  0.00  0.00    +0.029 C 
ATOM      4  C   UNL     1     -38.817  22.161   1.162  0.00  0.00    +0.029 C 
ATOM      5  C   UNL     1     -35.738  21.714   1.220  0.00  0.00    -0.001 C 
ATOM      6  C   UNL     1     -38.348  23.572   1.401  0.00  0.00    -0.016 C 
ATOM      7  C   UNL     1     -37.028  23.941   1.068  0.00  0.00    +0.033 C 
ATOM      8  C   UNL     1     -36.109  22.929   0.477  0.00  0.00    +0.000 C 
ATOM      9  C   UNL     1     -36.588  25.249   1.325  0.00  0.00    +0.175 C 
ATOM     10  C   UNL     1     -39.206  24.521   1.971  0.00  0.00    +0.036 C 
ATOM     11  C   UNL     1     -34.607  21.011   1.015  0.00  0.00    +0.040 C 
ATOM     12  C   UNL     1     -35.760  23.183  -0.800  0.00  0.00    +0.000 C 
ATOM     13  C   UNL     1     -38.760  25.821   2.213  0.00  0.00    +0.175 C 
ATOM     14  C   UNL     1     -37.453  26.182   1.892  0.00  0.00    +0.202 C 
ATOM     15  C   UNL     1     -33.551  21.244  -0.001  0.00  0.00    +0.201 C 
ATOM     16  C   UNL     1     -34.978  22.374  -1.700  0.00  0.00    +0.009 C 
ATOM     17  C   UNL     1     -33.971  21.548  -1.392  0.00  0.00    +0.064 C 
ENDROOT
BRANCH   2  19
ATOM     18  O   UNL     1     -35.018  20.684   4.703  0.00  0.00    -0.275 OA
ATOM     19  N   UNL     1     -36.397  22.132   3.513  0.00  0.00    -0.302 N 
ATOM     20  C   UNL     1     -35.603  21.757   4.580  0.00  0.00    +0.223 C 
ATOM     21  C   UNL     1     -35.497  22.843   5.616  0.00  0.00    +0.095 C 
ATOM     22  H   UNL     1     -36.815  23.023   3.529  0.00  0.00    +0.150 HD
ENDBRANCH   2  19
BRANCH  17  23
ATOM     23  S   UNL     1     -33.044  20.745  -2.625  0.00  0.00    -0.110 S 
ATOM     24  C   UNL     1     -33.616  19.052  -2.374  0.00  0.00    +0.074 C 
ENDBRANCH  17  23
BRANCH   9  25
ATOM     25  O   UNL     1     -35.303  25.622   1.049  0.00  0.00    -0.468 OA
ATOM     26  C   UNL     1     -34.355  25.496   2.104  0.00  0.00    +0.253 C 
ENDBRANCH   9  25
BRANCH  13  27
ATOM     27  O   UNL     1     -39.612  26.725   2.772  0.00  0.00    -0.468 OA
ATOM     28  C   UNL     1     -40.903  26.253   3.149  0.00  0.00    +0.253 C 
ENDBRANCH  13  27
BRANCH  14  29
ATOM     29  O   UNL     1     -37.020  27.452   2.141  0.00  0.00    -0.501 OA
ATOM     30  H   UNL     1     -36.560  27.642   2.935  0.00  0.00    +0.292 HD
ENDBRANCH  14  29
TORSDOF 5
ENDMDL
MODEL 9
REMARK VINA RESULT:      -5.5      3.331      5.443
REMARK  Name = 55708
REMARK  5 active torsions:
REMARK  status: ('A' for Active; 'I' for Inactive)
REMARK    1  A    between atoms: C_2  and  N_19
REMARK    2  A    between atoms: C_9  and  O_25
REMARK    3  A    between atoms: C_13  and  O_27
REMARK    4  A    between atoms: C_14  and  O_29
REMARK    5  A    between atoms: C_17  and  S_23
REMARK                            x       y       z     vdW  Elec       q    Type
REMARK                         _______ _______ _______ _____ _____    ______ ____
ROOT
ATOM      1  O   UNL     1     -34.319  29.550   1.413  0.00  0.00    -0.286 OA
ATOM      2  C   UNL     1     -36.636  26.008   3.566  0.00  0.00    +0.094 C 
ATOM      3  C   UNL     1     -36.559  25.062   4.785  0.00  0.00    +0.029 C 
ATOM      4  C   UNL     1     -35.433  24.021   4.827  0.00  0.00    +0.029 C 
ATOM      5  C   UNL     1     -35.317  26.541   3.004  0.00  0.00    -0.001 C 
ATOM      6  C   UNL     1     -35.153  23.374   3.495  0.00  0.00    -0.016 C 
ATOM      7  C   UNL     1     -34.586  24.132   2.450  0.00  0.00    +0.033 C 
ATOM      8  C   UNL     1     -34.263  25.569   2.675  0.00  0.00    +0.000 C 
ATOM      9  C   UNL     1     -34.360  23.532   1.202  0.00  0.00    +0.175 C 
ATOM     10  C   UNL     1     -35.470  22.028   3.277  0.00  0.00    +0.036 C 
ATOM     11  C   UNL     1     -35.237  27.864   2.762  0.00  0.00    +0.040 C 
ATOM     12  C   UNL     1     -32.944  25.845   2.654  0.00  0.00    +0.000 C 
ATOM     13  C   UNL     1     -35.232  21.439   2.035  0.00  0.00    +0.175 C 
ATOM     14  C   UNL     1     -34.680  22.190   1.000  0.00  0.00    +0.202 C 
ATOM     15  C   UNL     1     -34.098  28.627   2.194  0.00  0.00    +0.201 C 
ATOM     16  C   UNL     1     -32.279  27.094   2.931  0.00  0.00    +0.009 C 
ATOM     17  C   UNL     1     -32.734  28.331   2.700  0.00  0.00    +0.064 C 
ENDROOT
BRANCH   2  19
ATOM     18  O   UNL     1     -39.426  26.498   2.935  0.00  0.00    -0.275 OA
ATOM     19  N   UNL     1     -37.406  25.433   2.482  0.00  0.00    -0.302 N 
ATOM     20  C   UNL     1     -38.738  25.732   2.264  0.00  0.00    +0.223 C 
ATOM     21  C   UNL     1     -39.289  25.018   1.059  0.00  0.00    +0.095 C 
ATOM     22  H   UNL     1     -36.962  24.800   1.873  0.00  0.00    +0.150 HD
ENDBRANCH   2  19
BRANCH  17  23
ATOM     23  S   UNL     1     -31.739  29.731   2.974  0.00  0.00    -0.110 S 
ATOM     24  C   UNL     1     -32.370  30.234   4.588  0.00  0.00    +0.074 C 
ENDBRANCH  17  23
BRANCH   9  25
ATOM     25  O   UNL     1     -33.848  24.252   0.160  0.00  0.00    -0.468 OA
ATOM     26  C   UNL     1     -34.782  24.922  -0.680  0.00  0.00    +0.253 C 
ENDBRANCH   9  25
BRANCH  13  27
ATOM     27  O   UNL     1     -35.553  20.128   1.845  0.00  0.00    -0.468 OA
ATOM     28  C   UNL     1     -36.822  19.850   1.260  0.00  0.00    +0.253 C 
ENDBRANCH  13  27
BRANCH  14  29
ATOM     29  O   UNL     1     -34.459  21.611  -0.216  0.00  0.00    -0.501 OA
ATOM     30  H   UNL     1     -34.792  22.014  -0.993  0.00  0.00    +0.292 HD
ENDBRANCH  14  29
TORSDOF 5
ENDMDL
