MODEL 1
REMARK VINA RESULT:      -5.9      0.000      0.000
REMARK  Name = 53777364
REMARK  10 active torsions:
REMARK  status: ('A' for Active; 'I' for Inactive)
REMARK    1  A    between atoms: N_1  and  C_4
REMARK    2  A    between atoms: N_1  and  CA_18
REMARK    3  A    between atoms: C_4  and  C_7
REMARK    4  A    between atoms: C_4  and  C_10
REMARK    5  A    between atoms: C_10  and  N_11
REMARK    6  A    between atoms: C_10  and  C_15
REMARK    7  A    between atoms: CA_18  and  C_20
REMARK    8  A    between atoms: CA_18  and  CB_23
REMARK    9  A    between atoms: C_20  and  O_21
REMARK   10  A    between atoms: CB_23  and  CG_26
REMARK                            x       y       z     vdW  Elec       q    Type
REMARK                         _______ _______ _______ _____ _____    ______ ____
ROOT
ATOM      1  N   HIS A   1     -36.504  22.295   3.951  0.00  0.00    +0.398 N 
ATOM      2  H1  HIS A   1     -36.825  21.419   4.362  0.00  0.00    -0.083 HD
ATOM      3  H2  HIS A   1     -37.281  22.949   3.859  0.00  0.00    -0.083 HD
ENDROOT
BRANCH   1   4
ATOM      4  C   UNK A   0     -35.952  22.029   2.620  0.00  0.00    -0.003 C 
BRANCH   4   7
ATOM      5  O   UNK A   0     -38.196  22.533   1.830  0.00  0.00    -0.278 OA
ATOM      6  N   UNK A   0     -36.415  23.214   0.550  0.00  0.00    -0.331 N 
ATOM      7  C   UNK A   0     -36.983  22.614   1.654  0.00  0.00    +0.197 C 
ATOM      8  H   UNK A   0     -36.989  23.623  -0.137  0.00  0.00    +0.145 HD
ATOM      9  H   UNK A   0     -35.436  23.232   0.449  0.00  0.00    +0.145 HD
ENDBRANCH   4   7
BRANCH   4  10
ATOM     10  C   UNK A   0     -35.714  20.514   2.372  0.00  0.00    -0.077 C 
BRANCH  10  11
ATOM     11  N   UNK A   0     -37.021  19.850   2.234  0.00  0.00    +0.381 N 
ATOM     12  H   UNK A   0     -37.467  19.783   3.149  0.00  0.00    -0.089 HD
ATOM     13  H   UNK A   0     -36.888  18.915   1.850  0.00  0.00    -0.089 HD
ATOM     14  H   UNK A   0     -37.613  20.394   1.606  0.00  0.00    -0.089 HD
ENDBRANCH  10  11
BRANCH  10  15
ATOM     15  C   UNK A   0     -34.811  20.197   1.142  0.00  0.00    -0.021 C 
ATOM     16  C   UNK A   0     -35.616  19.612  -0.027  0.00  0.00    -0.002 C 
ATOM     17  C   UNK A   0     -33.632  19.272   1.466  0.00  0.00    -0.002 C 
ENDBRANCH  10  15
ENDBRANCH   4  10
ENDBRANCH   1   4
BRANCH   1  18
ATOM     18  CA  HIS A   1     -35.496  22.886   4.816  0.00  0.00    +0.046 C 
BRANCH  18  20
ATOM     19  OXT HIS A   1     -35.207  22.193   7.132  0.00  0.00    -0.253 OA
ATOM     20  C   HIS A   1     -35.261  21.898   5.946  0.00  0.00    +0.294 C 
BRANCH  20  21
ATOM     21  O   HIS A   1     -35.146  20.620   5.499  0.00  0.00    -0.482 OA
ATOM     22  H   HIS A   1     -34.708  19.978   6.021  0.00  0.00    +0.295 HD
ENDBRANCH  20  21
ENDBRANCH  18  20
BRANCH  18  23
ATOM     23  CB  HIS A   1     -35.986  24.248   5.330  0.00  0.00    +0.032 C 
BRANCH  23  26
ATOM     24  ND1 HIS A   1     -38.071  24.979   4.103  0.00  0.00    -0.319 N 
ATOM     25  NE2 HIS A   1     -37.335  26.418   2.580  0.00  0.00    -0.315 N 
ATOM     26  CG  HIS A   1     -36.718  25.046   4.275  0.00  0.00    +0.036 C 
ATOM     27  CD2 HIS A   1     -36.285  25.941   3.324  0.00  0.00    +0.069 C 
ATOM     28  CE1 HIS A   1     -38.395  25.820   3.073  0.00  0.00    +0.182 C 
ATOM     29  HD1 HIS A   1     -38.697  24.426   4.623  0.00  0.00    +0.148 HD
ATOM     30  HE2 HIS A   1     -37.301  27.066   1.839  0.00  0.00    +0.148 HD
ENDBRANCH  23  26
ENDBRANCH  18  23
ENDBRANCH   1  18
TORSDOF 10
ENDMDL
MODEL 2
REMARK VINA RESULT:      -5.9      2.143      4.872
REMARK  Name = 53777364
REMARK  10 active torsions:
REMARK  status: ('A' for Active; 'I' for Inactive)
REMARK    1  A    between atoms: N_1  and  C_4
REMARK    2  A    between atoms: N_1  and  CA_18
REMARK    3  A    between atoms: C_4  and  C_7
REMARK    4  A    between atoms: C_4  and  C_10
REMARK    5  A    between atoms: C_10  and  N_11
REMARK    6  A    between atoms: C_10  and  C_15
REMARK    7  A    between atoms: CA_18  and  C_20
REMARK    8  A    between atoms: CA_18  and  CB_23
REMARK    9  A    between atoms: C_20  and  O_21
REMARK   10  A    between atoms: CB_23  and  CG_26
REMARK                            x       y       z     vdW  Elec       q    Type
REMARK                         _______ _______ _______ _____ _____    ______ ____
ROOT
ATOM      1  N   HIS A   1     -34.558  23.822   4.614  0.00  0.00    +0.398 N 
ATOM      2  H1  HIS A   1     -34.420  24.002   5.609  0.00  0.00    -0.083 HD
ATOM      3  H2  HIS A   1     -33.709  23.434   4.204  0.00  0.00    -0.083 HD
ENDROOT
BRANCH   1   4
ATOM      4  C   UNK A   0     -34.876  25.081   3.936  0.00  0.00    -0.003 C 
BRANCH   4   7
ATOM      5  O   UNK A   0     -33.554  26.094   5.709  0.00  0.00    -0.278 OA
ATOM      6  N   UNK A   0     -33.456  27.026   3.612  0.00  0.00    -0.331 N 
ATOM      7  C   UNK A   0     -33.896  26.093   4.528  0.00  0.00    +0.197 C 
ATOM      8  H   UNK A   0     -32.822  27.726   3.888  0.00  0.00    +0.145 HD
ATOM      9  H   UNK A   0     -33.779  26.992   2.682  0.00  0.00    +0.145 HD
ENDBRANCH   4   7
BRANCH   4  10
ATOM     10  C   UNK A   0     -36.355  25.508   4.149  0.00  0.00    -0.077 C 
BRANCH  10  11
ATOM     11  N   UNK A   0     -36.407  26.488   5.247  0.00  0.00    +0.381 N 
ATOM     12  H   UNK A   0     -36.477  25.997   6.138  0.00  0.00    -0.089 HD
ATOM     13  H   UNK A   0     -37.219  27.091   5.125  0.00  0.00    -0.089 HD
ATOM     14  H   UNK A   0     -35.558  27.054   5.237  0.00  0.00    -0.089 HD
ENDBRANCH  10  11
BRANCH  10  15
ATOM     15  C   UNK A   0     -37.049  26.081   2.877  0.00  0.00    -0.021 C 
ATOM     16  C   UNK A   0     -38.573  25.904   2.924  0.00  0.00    -0.002 C 
ATOM     17  C   UNK A   0     -36.506  25.501   1.566  0.00  0.00    -0.002 C 
ENDBRANCH  10  15
ENDBRANCH   4  10
ENDBRANCH   1   4
BRANCH   1  18
ATOM     18  CA  HIS A   1     -35.638  22.863   4.449  0.00  0.00    +0.046 C 
BRANCH  18  20
ATOM     19  OXT HIS A   1     -35.950  22.181   6.766  0.00  0.00    -0.253 OA
ATOM     20  C   HIS A   1     -35.564  21.917   5.635  0.00  0.00    +0.294 C 
BRANCH  20  21
ATOM     21  O   HIS A   1     -35.045  20.707   5.299  0.00  0.00    -0.482 OA
ATOM     22  H   HIS A   1     -34.413  20.643   4.611  0.00  0.00    +0.295 HD
ENDBRANCH  20  21
ENDBRANCH  18  20
BRANCH  18  23
ATOM     23  CB  HIS A   1     -35.478  22.126   3.110  0.00  0.00    +0.032 C 
BRANCH  23  26
ATOM     24  ND1 HIS A   1     -37.983  22.332   2.844  0.00  0.00    -0.319 N 
ATOM     25  NE2 HIS A   1     -38.492  20.846   1.275  0.00  0.00    -0.315 N 
ATOM     26  CG  HIS A   1     -36.802  21.747   2.486  0.00  0.00    +0.036 C 
ATOM     27  CD2 HIS A   1     -37.141  20.833   1.517  0.00  0.00    +0.069 C 
ATOM     28  CE1 HIS A   1     -38.970  21.759   2.091  0.00  0.00    +0.182 C 
ATOM     29  HD1 HIS A   1     -38.102  23.037   3.521  0.00  0.00    +0.148 HD
ATOM     30  HE2 HIS A   1     -38.994  20.293   0.634  0.00  0.00    +0.148 HD
ENDBRANCH  23  26
ENDBRANCH  18  23
ENDBRANCH   1  18
TORSDOF 10
ENDMDL
MODEL 3
REMARK VINA RESULT:      -5.8      2.157      3.415
REMARK  Name = 53777364
REMARK  10 active torsions:
REMARK  status: ('A' for Active; 'I' for Inactive)
REMARK    1  A    between atoms: N_1  and  C_4
REMARK    2  A    between atoms: N_1  and  CA_18
REMARK    3  A    between atoms: C_4  and  C_7
REMARK    4  A    between atoms: C_4  and  C_10
REMARK    5  A    between atoms: C_10  and  N_11
REMARK    6  A    between atoms: C_10  and  C_15
REMARK    7  A    between atoms: CA_18  and  C_20
REMARK    8  A    between atoms: CA_18  and  CB_23
REMARK    9  A    between atoms: C_20  and  O_21
REMARK   10  A    between atoms: CB_23  and  CG_26
REMARK                            x       y       z     vdW  Elec       q    Type
REMARK                         _______ _______ _______ _____ _____    ______ ____
ROOT
ATOM      1  N   HIS A   1     -36.969  22.926   3.996  0.00  0.00    +0.398 N 
ATOM      2  H1  HIS A   1     -37.382  22.024   3.758  0.00  0.00    -0.083 HD
ATOM      3  H2  HIS A   1     -37.391  23.295   4.848  0.00  0.00    -0.083 HD
ENDROOT
BRANCH   1   4
ATOM      4  C   UNK A   0     -37.210  23.871   2.904  0.00  0.00    -0.003 C 
BRANCH   4   7
ATOM      5  O   UNK A   0     -39.409  24.615   3.631  0.00  0.00    -0.278 OA
ATOM      6  N   UNK A   0     -37.659  26.095   3.772  0.00  0.00    -0.331 N 
ATOM      7  C   UNK A   0     -38.217  24.869   3.476  0.00  0.00    +0.197 C 
ATOM      8  H   UNK A   0     -38.219  26.813   4.145  0.00  0.00    +0.145 HD
ATOM      9  H   UNK A   0     -36.701  26.253   3.608  0.00  0.00    +0.145 HD
ENDBRANCH   4   7
BRANCH   4  10
ATOM     10  C   UNK A   0     -37.747  23.169   1.625  0.00  0.00    -0.077 C 
BRANCH  10  11
ATOM     11  N   UNK A   0     -36.709  23.236   0.583  0.00  0.00    +0.381 N 
ATOM     12  H   UNK A   0     -36.206  22.349   0.547  0.00  0.00    -0.089 HD
ATOM     13  H   UNK A   0     -36.057  23.989   0.801  0.00  0.00    -0.089 HD
ATOM     14  H   UNK A   0     -37.147  23.415  -0.321  0.00  0.00    -0.089 HD
ENDBRANCH  10  11
BRANCH  10  15
ATOM     15  C   UNK A   0     -38.203  21.695   1.843  0.00  0.00    -0.021 C 
ATOM     16  C   UNK A   0     -37.590  20.743   0.807  0.00  0.00    -0.002 C 
ATOM     17  C   UNK A   0     -39.726  21.519   1.863  0.00  0.00    -0.002 C 
ENDBRANCH  10  15
ENDBRANCH   4  10
ENDBRANCH   1   4
BRANCH   1  18
ATOM     18  CA  HIS A   1     -35.543  22.753   4.219  0.00  0.00    +0.046 C 
BRANCH  18  20
ATOM     19  OXT HIS A   1     -35.186  20.482   3.415  0.00  0.00    -0.253 OA
ATOM     20  C   HIS A   1     -35.302  21.259   4.353  0.00  0.00    +0.294 C 
BRANCH  20  21
ATOM     21  O   HIS A   1     -35.192  20.868   5.650  0.00  0.00    -0.482 OA
ATOM     22  H   HIS A   1     -34.399  21.026   6.122  0.00  0.00    +0.295 HD
ENDBRANCH  20  21
ENDBRANCH  18  20
BRANCH  18  23
ATOM     23  CB  HIS A   1     -35.116  23.523   5.478  0.00  0.00    +0.032 C 
BRANCH  23  26
ATOM     24  ND1 HIS A   1     -33.992  25.180   3.936  0.00  0.00    -0.319 N 
ATOM     25  NE2 HIS A   1     -33.699  26.988   5.193  0.00  0.00    -0.315 N 
ATOM     26  CG  HIS A   1     -34.501  24.868   5.164  0.00  0.00    +0.036 C 
ATOM     27  CD2 HIS A   1     -34.309  25.999   5.924  0.00  0.00    +0.069 C 
ATOM     28  CE1 HIS A   1     -33.522  26.463   4.001  0.00  0.00    +0.182 C 
ATOM     29  HD1 HIS A   1     -33.968  24.590   3.149  0.00  0.00    +0.148 HD
ATOM     30  HE2 HIS A   1     -33.448  27.891   5.494  0.00  0.00    +0.148 HD
ENDBRANCH  23  26
ENDBRANCH  18  23
ENDBRANCH   1  18
TORSDOF 10
ENDMDL
MODEL 4
REMARK VINA RESULT:      -5.8      1.771      4.944
REMARK  Name = 53777364
REMARK  10 active torsions:
REMARK  status: ('A' for Active; 'I' for Inactive)
REMARK    1  A    between atoms: N_1  and  C_4
REMARK    2  A    between atoms: N_1  and  CA_18
REMARK    3  A    between atoms: C_4  and  C_7
REMARK    4  A    between atoms: C_4  and  C_10
REMARK    5  A    between atoms: C_10  and  N_11
REMARK    6  A    between atoms: C_10  and  C_15
REMARK    7  A    between atoms: CA_18  and  C_20
REMARK    8  A    between atoms: CA_18  and  CB_23
REMARK    9  A    between atoms: C_20  and  O_21
REMARK   10  A    between atoms: CB_23  and  CG_26
REMARK                            x       y       z     vdW  Elec       q    Type
REMARK                         _______ _______ _______ _____ _____    ______ ____
ROOT
ATOM      1  N   HIS A   1     -35.561  23.488   3.723  0.00  0.00    +0.398 N 
ATOM      2  H1  HIS A   1     -34.627  23.671   4.090  0.00  0.00    -0.083 HD
ATOM      3  H2  HIS A   1     -35.555  23.527   2.704  0.00  0.00    -0.083 HD
ENDROOT
BRANCH   1   4
ATOM      4  C   UNK A   0     -36.485  24.507   4.228  0.00  0.00    -0.003 C 
BRANCH   4   7
ATOM      5  O   UNK A   0     -37.436  24.420   1.992  0.00  0.00    -0.278 OA
ATOM      6  N   UNK A   0     -38.858  24.750   3.765  0.00  0.00    -0.331 N 
ATOM      7  C   UNK A   0     -37.617  24.540   3.201  0.00  0.00    +0.197 C 
ATOM      8  H   UNK A   0     -39.658  24.790   3.193  0.00  0.00    +0.145 HD
ATOM      9  H   UNK A   0     -38.943  24.860   4.740  0.00  0.00    +0.145 HD
ENDBRANCH   4   7
BRANCH   4  10
ATOM     10  C   UNK A   0     -35.803  25.893   4.391  0.00  0.00    -0.077 C 
BRANCH  10  11
ATOM     11  N   UNK A   0     -36.458  26.611   5.497  0.00  0.00    +0.381 N 
ATOM     12  H   UNK A   0     -35.778  26.789   6.236  0.00  0.00    -0.089 HD
ATOM     13  H   UNK A   0     -37.220  26.044   5.865  0.00  0.00    -0.089 HD
ATOM     14  H   UNK A   0     -36.828  27.498   5.154  0.00  0.00    -0.089 HD
ENDBRANCH  10  11
BRANCH  10  15
ATOM     15  C   UNK A   0     -34.263  25.830   4.620  0.00  0.00    -0.021 C 
ATOM     16  C   UNK A   0     -33.876  26.247   6.046  0.00  0.00    -0.002 C 
ATOM     17  C   UNK A   0     -33.456  26.653   3.609  0.00  0.00    -0.002 C 
ENDBRANCH  10  15
ENDBRANCH   4  10
ENDBRANCH   1   4
BRANCH   1  18
ATOM     18  CA  HIS A   1     -35.985  22.161   4.137  0.00  0.00    +0.046 C 
BRANCH  18  20
ATOM     19  OXT HIS A   1     -34.915  22.753   6.244  0.00  0.00    -0.253 OA
ATOM     20  C   HIS A   1     -35.319  21.890   5.475  0.00  0.00    +0.294 C 
BRANCH  20  21
ATOM     21  O   HIS A   1     -35.245  20.562   5.756  0.00  0.00    -0.482 OA
ATOM     22  H   HIS A   1     -34.961  19.959   5.098  0.00  0.00    +0.295 HD
ENDBRANCH  20  21
ENDBRANCH  18  20
BRANCH  18  23
ATOM     23  CB  HIS A   1     -35.582  21.130   3.071  0.00  0.00    +0.032 C 
BRANCH  23  26
ATOM     24  ND1 HIS A   1     -37.969  21.301   2.258  0.00  0.00    -0.319 N 
ATOM     25  NE2 HIS A   1     -38.004  20.081   0.402  0.00  0.00    -0.315 N 
ATOM     26  CG  HIS A   1     -36.700  20.820   2.102  0.00  0.00    +0.036 C 
ATOM     27  CD2 HIS A   1     -36.746  20.070   0.950  0.00  0.00    +0.069 C 
ATOM     28  CE1 HIS A   1     -38.717  20.830   1.213  0.00  0.00    +0.182 C 
ATOM     29  HD1 HIS A   1     -38.287  21.879   2.988  0.00  0.00    +0.148 HD
ATOM     30  HE2 HIS A   1     -38.307  19.628  -0.418  0.00  0.00    +0.148 HD
ENDBRANCH  23  26
ENDBRANCH  18  23
ENDBRANCH   1  18
TORSDOF 10
ENDMDL
MODEL 5
REMARK VINA RESULT:      -5.7      1.827      2.257
REMARK  Name = 53777364
REMARK  10 active torsions:
REMARK  status: ('A' for Active; 'I' for Inactive)
REMARK    1  A    between atoms: N_1  and  C_4
REMARK    2  A    between atoms: N_1  and  CA_18
REMARK    3  A    between atoms: C_4  and  C_7
REMARK    4  A    between atoms: C_4  and  C_10
REMARK    5  A    between atoms: C_10  and  N_11
REMARK    6  A    between atoms: C_10  and  C_15
REMARK    7  A    between atoms: CA_18  and  C_20
REMARK    8  A    between atoms: CA_18  and  CB_23
REMARK    9  A    between atoms: C_20  and  O_21
REMARK   10  A    between atoms: CB_23  and  CG_26
REMARK                            x       y       z     vdW  Elec       q    Type
REMARK                         _______ _______ _______ _____ _____    ______ ____
ROOT
ATOM      1  N   HIS A   1     -36.666  22.473   4.119  0.00  0.00    +0.398 N 
ATOM      2  H1  HIS A   1     -36.988  21.589   4.512  0.00  0.00    -0.083 HD
ATOM      3  H2  HIS A   1     -37.380  23.193   4.236  0.00  0.00    -0.083 HD
ENDROOT
BRANCH   1   4
ATOM      4  C   UNK A   0     -36.403  22.297   2.689  0.00  0.00    -0.003 C 
BRANCH   4   7
ATOM      5  O   UNK A   0     -37.846  22.753   0.786  0.00  0.00    -0.278 OA
ATOM      6  N   UNK A   0     -38.583  23.352   2.877  0.00  0.00    -0.331 N 
ATOM      7  C   UNK A   0     -37.670  22.804   2.001  0.00  0.00    +0.197 C 
ATOM      8  H   UNK A   0     -39.436  23.710   2.539  0.00  0.00    +0.145 HD
ATOM      9  H   UNK A   0     -38.382  23.387   3.840  0.00  0.00    +0.145 HD
ENDBRANCH   4   7
BRANCH   4  10
ATOM     10  C   UNK A   0     -36.092  20.819   2.324  0.00  0.00    -0.077 C 
BRANCH  10  11
ATOM     11  N   UNK A   0     -37.353  20.149   1.969  0.00  0.00    +0.381 N 
ATOM     12  H   UNK A   0     -37.346  19.196   2.333  0.00  0.00    -0.089 HD
ATOM     13  H   UNK A   0     -37.450  20.124   0.954  0.00  0.00    -0.089 HD
ATOM     14  H   UNK A   0     -38.137  20.662   2.373  0.00  0.00    -0.089 HD
ENDBRANCH  10  11
BRANCH  10  15
ATOM     15  C   UNK A   0     -35.044  20.644   1.184  0.00  0.00    -0.021 C 
ATOM     16  C   UNK A   0     -34.042  19.523   1.490  0.00  0.00    -0.002 C 
ATOM     17  C   UNK A   0     -34.284  21.931   0.843  0.00  0.00    -0.002 C 
ENDBRANCH  10  15
ENDBRANCH   4  10
ENDBRANCH   1   4
BRANCH   1  18
ATOM     18  CA  HIS A   1     -35.461  22.894   4.815  0.00  0.00    +0.046 C 
BRANCH  18  20
ATOM     19  OXT HIS A   1     -35.226  22.218   7.143  0.00  0.00    -0.253 OA
ATOM     20  C   HIS A   1     -35.255  21.914   5.958  0.00  0.00    +0.294 C 
BRANCH  20  21
ATOM     21  O   HIS A   1     -35.136  20.632   5.523  0.00  0.00    -0.482 OA
ATOM     22  H   HIS A   1     -35.866  20.048   5.579  0.00  0.00    +0.295 HD
ENDBRANCH  20  21
ENDBRANCH  18  20
BRANCH  18  23
ATOM     23  CB  HIS A   1     -35.626  24.338   5.313  0.00  0.00    +0.032 C 
BRANCH  23  26
ATOM     24  ND1 HIS A   1     -34.286  26.480   5.267  0.00  0.00    -0.319 N 
ATOM     25  NE2 HIS A   1     -33.115  26.354   3.385  0.00  0.00    -0.315 N 
ATOM     26  CG  HIS A   1     -34.631  25.291   4.691  0.00  0.00    +0.036 C 
ATOM     27  CD2 HIS A   1     -33.896  25.235   3.530  0.00  0.00    +0.069 C 
ATOM     28  CE1 HIS A   1     -33.374  27.084   4.447  0.00  0.00    +0.182 C 
ATOM     29  HD1 HIS A   1     -34.632  26.838   6.117  0.00  0.00    +0.148 HD
ATOM     30  HE2 HIS A   1     -32.497  26.565   2.647  0.00  0.00    +0.148 HD
ENDBRANCH  23  26
ENDBRANCH  18  23
ENDBRANCH   1  18
TORSDOF 10
ENDMDL
MODEL 6
REMARK VINA RESULT:      -5.7      2.722      5.791
REMARK  Name = 53777364
REMARK  10 active torsions:
REMARK  status: ('A' for Active; 'I' for Inactive)
REMARK    1  A    between atoms: N_1  and  C_4
REMARK    2  A    between atoms: N_1  and  CA_18
REMARK    3  A    between atoms: C_4  and  C_7
REMARK    4  A    between atoms: C_4  and  C_10
REMARK    5  A    between atoms: C_10  and  N_11
REMARK    6  A    between atoms: C_10  and  C_15
REMARK    7  A    between atoms: CA_18  and  C_20
REMARK    8  A    between atoms: CA_18  and  CB_23
REMARK    9  A    between atoms: C_20  and  O_21
REMARK   10  A    between atoms: CB_23  and  CG_26
REMARK                            x       y       z     vdW  Elec       q    Type
REMARK                         _______ _______ _______ _____ _____    ______ ____
ROOT
ATOM      1  N   HIS A   1     -37.893  24.619   4.025  0.00  0.00    +0.398 N 
ATOM      2  H1  HIS A   1     -38.121  25.413   4.622  0.00  0.00    -0.083 HD
ATOM      3  H2  HIS A   1     -38.190  23.748   4.465  0.00  0.00    -0.083 HD
ENDROOT
BRANCH   1   4
ATOM      4  C   UNK A   0     -36.444  24.572   3.816  0.00  0.00    -0.003 C 
BRANCH   4   7
ATOM      5  O   UNK A   0     -36.064  23.232   5.809  0.00  0.00    -0.278 OA
ATOM      6  N   UNK A   0     -35.449  22.356   3.777  0.00  0.00    -0.331 N 
ATOM      7  C   UNK A   0     -35.986  23.334   4.587  0.00  0.00    +0.197 C 
ATOM      8  H   UNK A   0     -35.121  21.516   4.171  0.00  0.00    +0.145 HD
ATOM      9  H   UNK A   0     -35.391  22.499   2.804  0.00  0.00    +0.145 HD
ENDBRANCH   4   7
BRANCH   4  10
ATOM     10  C   UNK A   0     -35.735  25.863   4.311  0.00  0.00    -0.077 C 
BRANCH  10  11
ATOM     11  N   UNK A   0     -36.443  26.359   5.503  0.00  0.00    +0.381 N 
ATOM     12  H   UNK A   0     -36.944  25.589   5.945  0.00  0.00    -0.089 HD
ATOM     13  H   UNK A   0     -37.105  27.084   5.228  0.00  0.00    -0.089 HD
ATOM     14  H   UNK A   0     -35.767  26.748   6.161  0.00  0.00    -0.089 HD
ENDBRANCH  10  11
BRANCH  10  15
ATOM     15  C   UNK A   0     -34.217  25.688   4.615  0.00  0.00    -0.021 C 
ATOM     16  C   UNK A   0     -33.829  26.287   5.973  0.00  0.00    -0.002 C 
ATOM     17  C   UNK A   0     -33.301  26.255   3.524  0.00  0.00    -0.002 C 
ENDBRANCH  10  15
ENDBRANCH   4  10
ENDBRANCH   1   4
BRANCH   1  18
ATOM     18  CA  HIS A   1     -38.590  24.762   2.756  0.00  0.00    +0.046 C 
BRANCH  18  20
ATOM     19  OXT HIS A   1     -38.559  26.993   1.782  0.00  0.00    -0.253 OA
ATOM     20  C   HIS A   1     -38.979  26.225   2.637  0.00  0.00    +0.294 C 
BRANCH  20  21
ATOM     21  O   HIS A   1     -39.887  26.596   3.577  0.00  0.00    -0.482 OA
ATOM     22  H   HIS A   1     -39.939  26.132   4.388  0.00  0.00    +0.295 HD
ENDBRANCH  20  21
ENDBRANCH  18  20
BRANCH  18  23
ATOM     23  CB  HIS A   1     -39.814  23.833   2.728  0.00  0.00    +0.032 C 
BRANCH  23  26
ATOM     24  ND1 HIS A   1     -40.435  22.210   0.893  0.00  0.00    -0.319 N 
ATOM     25  NE2 HIS A   1     -38.831  20.676   0.950  0.00  0.00    -0.315 N 
ATOM     26  CG  HIS A   1     -39.590  22.591   1.895  0.00  0.00    +0.036 C 
ATOM     27  CD2 HIS A   1     -38.607  21.629   1.913  0.00  0.00    +0.069 C 
ATOM     28  CE1 HIS A   1     -39.939  21.055   0.355  0.00  0.00    +0.182 C 
ATOM     29  HD1 HIS A   1     -41.253  22.681   0.610  0.00  0.00    +0.148 HD
ATOM     30  HE2 HIS A   1     -38.282  19.883   0.751  0.00  0.00    +0.148 HD
ENDBRANCH  23  26
ENDBRANCH  18  23
ENDBRANCH   1  18
TORSDOF 10
ENDMDL
MODEL 7
REMARK VINA RESULT:      -5.6      2.704      5.292
REMARK  Name = 53777364
REMARK  10 active torsions:
REMARK  status: ('A' for Active; 'I' for Inactive)
REMARK    1  A    between atoms: N_1  and  C_4
REMARK    2  A    between atoms: N_1  and  CA_18
REMARK    3  A    between atoms: C_4  and  C_7
REMARK    4  A    between atoms: C_4  and  C_10
REMARK    5  A    between atoms: C_10  and  N_11
REMARK    6  A    between atoms: C_10  and  C_15
REMARK    7  A    between atoms: CA_18  and  C_20
REMARK    8  A    between atoms: CA_18  and  CB_23
REMARK    9  A    between atoms: C_20  and  O_21
REMARK   10  A    between atoms: CB_23  and  CG_26
REMARK                            x       y       z     vdW  Elec       q    Type
REMARK                         _______ _______ _______ _____ _____    ______ ____
ROOT
ATOM      1  N   HIS A   1     -37.457  25.735   4.087  0.00  0.00    +0.398 N 
ATOM      2  H1  HIS A   1     -37.175  26.681   3.832  0.00  0.00    -0.083 HD
ATOM      3  H2  HIS A   1     -38.305  25.758   4.654  0.00  0.00    -0.083 HD
ENDROOT
BRANCH   1   4
ATOM      4  C   UNK A   0     -36.386  25.107   4.866  0.00  0.00    -0.003 C 
BRANCH   4   7
ATOM      5  O   UNK A   0     -34.589  26.215   6.073  0.00  0.00    -0.278 OA
ATOM      6  N   UNK A   0     -35.557  27.322   4.309  0.00  0.00    -0.331 N 
ATOM      7  C   UNK A   0     -35.408  26.245   5.157  0.00  0.00    +0.197 C 
ATOM      8  H   UNK A   0     -34.976  28.111   4.409  0.00  0.00    +0.145 HD
ATOM      9  H   UNK A   0     -36.244  27.302   3.604  0.00  0.00    +0.145 HD
ENDBRANCH   4   7
BRANCH   4  10
ATOM     10  C   UNK A   0     -35.709  23.937   4.101  0.00  0.00    -0.077 C 
BRANCH  10  11
ATOM     11  N   UNK A   0     -34.289  24.268   3.899  0.00  0.00    +0.381 N 
ATOM     12  H   UNK A   0     -34.050  24.153   2.914  0.00  0.00    -0.089 HD
ATOM     13  H   UNK A   0     -33.712  23.646   4.464  0.00  0.00    -0.089 HD
ATOM     14  H   UNK A   0     -34.123  25.235   4.179  0.00  0.00    -0.089 HD
ENDBRANCH  10  11
BRANCH  10  15
ATOM     15  C   UNK A   0     -35.849  22.548   4.795  0.00  0.00    -0.021 C 
ATOM     16  C   UNK A   0     -35.199  22.531   6.186  0.00  0.00    -0.002 C 
ATOM     17  C   UNK A   0     -35.302  21.385   3.960  0.00  0.00    -0.002 C 
ENDBRANCH  10  15
ENDBRANCH   4  10
ENDBRANCH   1   4
BRANCH   1  18
ATOM     18  CA  HIS A   1     -37.724  24.974   2.877  0.00  0.00    +0.046 C 
BRANCH  18  20
ATOM     19  OXT HIS A   1     -37.542  25.624   0.537  0.00  0.00    -0.253 OA
ATOM     20  C   HIS A   1     -37.598  25.946   1.717  0.00  0.00    +0.294 C 
BRANCH  20  21
ATOM     21  O   HIS A   1     -37.588  27.242   2.127  0.00  0.00    -0.482 OA
ATOM     22  H   HIS A   1     -37.807  27.926   1.526  0.00  0.00    +0.295 HD
ENDBRANCH  20  21
ENDBRANCH  18  20
BRANCH  18  23
ATOM     23  CB  HIS A   1     -39.124  24.346   2.957  0.00  0.00    +0.032 C 
BRANCH  23  26
ATOM     24  ND1 HIS A   1     -40.336  22.606   1.581  0.00  0.00    -0.319 N 
ATOM     25  NE2 HIS A   1     -38.854  20.971   1.335  0.00  0.00    -0.315 N 
ATOM     26  CG  HIS A   1     -39.213  23.017   2.241  0.00  0.00    +0.036 C 
ATOM     27  CD2 HIS A   1     -38.312  21.991   2.076  0.00  0.00    +0.069 C 
ATOM     28  CE1 HIS A   1     -40.073  21.372   1.054  0.00  0.00    +0.182 C 
ATOM     29  HD1 HIS A   1     -41.180  23.107   1.500  0.00  0.00    +0.148 HD
ATOM     30  HE2 HIS A   1     -38.425  20.124   1.074  0.00  0.00    +0.148 HD
ENDBRANCH  23  26
ENDBRANCH  18  23
ENDBRANCH   1  18
TORSDOF 10
ENDMDL
MODEL 8
REMARK VINA RESULT:      -5.6      1.852      4.632
REMARK  Name = 53777364
REMARK  10 active torsions:
REMARK  status: ('A' for Active; 'I' for Inactive)
REMARK    1  A    between atoms: N_1  and  C_4
REMARK    2  A    between atoms: N_1  and  CA_18
REMARK    3  A    between atoms: C_4  and  C_7
REMARK    4  A    between atoms: C_4  and  C_10
REMARK    5  A    between atoms: C_10  and  N_11
REMARK    6  A    between atoms: C_10  and  C_15
REMARK    7  A    between atoms: CA_18  and  C_20
REMARK    8  A    between atoms: CA_18  and  CB_23
REMARK    9  A    between atoms: C_20  and  O_21
REMARK   10  A    between atoms: CB_23  and  CG_26
REMARK                            x       y       z     vdW  Elec       q    Type
REMARK                         _______ _______ _______ _____ _____    ______ ____
ROOT
ATOM      1  N   HIS A   1     -36.485  23.927   4.833  0.00  0.00    +0.398 N 
ATOM      2  H1  HIS A   1     -37.294  23.892   5.454  0.00  0.00    -0.083 HD
ATOM      3  H2  HIS A   1     -35.691  24.355   5.310  0.00  0.00    -0.083 HD
ENDROOT
BRANCH   1   4
ATOM      4  C   UNK A   0     -36.817  24.731   3.654  0.00  0.00    -0.003 C 
BRANCH   4   7
ATOM      5  O   UNK A   0     -35.851  26.896   3.113  0.00  0.00    -0.278 OA
ATOM      6  N   UNK A   0     -36.254  26.407   5.320  0.00  0.00    -0.331 N 
ATOM      7  C   UNK A   0     -36.266  26.121   3.971  0.00  0.00    +0.197 C 
ATOM      8  H   UNK A   0     -35.918  27.277   5.636  0.00  0.00    +0.145 HD
ATOM      9  H   UNK A   0     -36.579  25.741   5.968  0.00  0.00    +0.145 HD
ENDBRANCH   4   7
BRANCH   4  10
ATOM     10  C   UNK A   0     -38.345  24.759   3.371  0.00  0.00    -0.077 C 
BRANCH  10  11
ATOM     11  N   UNK A   0     -38.811  26.153   3.453  0.00  0.00    +0.381 N 
ATOM     12  H   UNK A   0     -38.838  26.446   4.429  0.00  0.00    -0.089 HD
ATOM     13  H   UNK A   0     -39.745  26.223   3.050  0.00  0.00    -0.089 HD
ATOM     14  H   UNK A   0     -38.172  26.756   2.934  0.00  0.00    -0.089 HD
ENDBRANCH  10  11
BRANCH  10  15
ATOM     15  C   UNK A   0     -38.759  24.127   2.008  0.00  0.00    -0.021 C 
ATOM     16  C   UNK A   0     -39.136  22.646   2.151  0.00  0.00    -0.002 C 
ATOM     17  C   UNK A   0     -37.700  24.283   0.910  0.00  0.00    -0.002 C 
ENDBRANCH  10  15
ENDBRANCH   4  10
ENDBRANCH   1   4
BRANCH   1  18
ATOM     18  CA  HIS A   1     -36.122  22.574   4.445  0.00  0.00    +0.046 C 
BRANCH  18  20
ATOM     19  OXT HIS A   1     -35.221  22.517   6.707  0.00  0.00    -0.253 OA
ATOM     20  C   HIS A   1     -35.455  21.940   5.654  0.00  0.00    +0.294 C 
BRANCH  20  21
ATOM     21  O   HIS A   1     -35.167  20.627   5.455  0.00  0.00    -0.482 OA
ATOM     22  H   HIS A   1     -35.448  19.986   6.077  0.00  0.00    +0.295 HD
ENDBRANCH  20  21
ENDBRANCH  18  20
BRANCH  18  23
ATOM     23  CB  HIS A   1     -35.191  22.614   3.225  0.00  0.00    +0.032 C 
BRANCH  23  26
ATOM     24  ND1 HIS A   1     -36.290  20.468   2.467  0.00  0.00    -0.319 N 
ATOM     25  NE2 HIS A   1     -35.782  20.323   0.311  0.00  0.00    -0.315 N 
ATOM     26  CG  HIS A   1     -35.538  21.573   2.185  0.00  0.00    +0.036 C 
ATOM     27  CD2 HIS A   1     -35.235  21.461   0.848  0.00  0.00    +0.069 C 
ATOM     28  CE1 HIS A   1     -36.410  19.747   1.311  0.00  0.00    +0.182 C 
ATOM     29  HD1 HIS A   1     -36.675  20.234   3.343  0.00  0.00    +0.148 HD
ATOM     30  HE2 HIS A   1     -35.717  20.006  -0.619  0.00  0.00    +0.148 HD
ENDBRANCH  23  26
ENDBRANCH  18  23
ENDBRANCH   1  18
TORSDOF 10
ENDMDL
MODEL 9
REMARK VINA RESULT:      -5.6      2.230      2.976
REMARK  Name = 53777364
REMARK  10 active torsions:
REMARK  status: ('A' for Active; 'I' for Inactive)
REMARK    1  A    between atoms: N_1  and  C_4
REMARK    2  A    between atoms: N_1  and  CA_18
REMARK    3  A    between atoms: C_4  and  C_7
REMARK    4  A    between atoms: C_4  and  C_10
REMARK    5  A    between atoms: C_10  and  N_11
REMARK    6  A    between atoms: C_10  and  C_15
REMARK    7  A    between atoms: CA_18  and  C_20
REMARK    8  A    between atoms: CA_18  and  CB_23
REMARK    9  A    between atoms: C_20  and  O_21
REMARK   10  A    between atoms: CB_23  and  CG_26
REMARK                            x       y       z     vdW  Elec       q    Type
REMARK                         _______ _______ _______ _____ _____    ______ ____
ROOT
ATOM      1  N   HIS A   1     -37.356  22.948   3.741  0.00  0.00    +0.398 N 
ATOM      2  H1  HIS A   1     -37.933  22.398   4.377  0.00  0.00    -0.083 HD
ATOM      3  H2  HIS A   1     -37.299  23.915   4.060  0.00  0.00    -0.083 HD
ENDROOT
BRANCH   1   4
ATOM      4  C   UNK A   0     -37.957  22.927   2.405  0.00  0.00    -0.003 C 
BRANCH   4   7
ATOM      5  O   UNK A   0     -39.906  24.119   1.571  0.00  0.00    -0.278 OA
ATOM      6  N   UNK A   0     -39.172  24.589   3.696  0.00  0.00    -0.331 N 
ATOM      7  C   UNK A   0     -39.117  23.919   2.492  0.00  0.00    +0.197 C 
ATOM      8  H   UNK A   0     -39.881  25.252   3.858  0.00  0.00    +0.145 HD
ATOM      9  H   UNK A   0     -38.501  24.404   4.393  0.00  0.00    +0.145 HD
ENDBRANCH   4   7
BRANCH   4  10
ATOM     10  C   UNK A   0     -38.434  21.506   1.995  0.00  0.00    -0.077 C 
BRANCH  10  11
ATOM     11  N   UNK A   0     -39.879  21.402   2.258  0.00  0.00    +0.381 N 
ATOM     12  H   UNK A   0     -40.164  22.149   2.891  0.00  0.00    -0.089 HD
ATOM     13  H   UNK A   0     -40.081  20.498   2.684  0.00  0.00    -0.089 HD
ATOM     14  H   UNK A   0     -40.391  21.487   1.380  0.00  0.00    -0.089 HD
ENDBRANCH  10  11
BRANCH  10  15
ATOM     15  C   UNK A   0     -38.123  21.125   0.516  0.00  0.00    -0.021 C 
ATOM     16  C   UNK A   0     -37.152  22.115  -0.142  0.00  0.00    -0.002 C 
ATOM     17  C   UNK A   0     -39.374  20.977  -0.358  0.00  0.00    -0.002 C 
ENDBRANCH  10  15
ENDBRANCH   4  10
ENDBRANCH   1   4
BRANCH   1  18
ATOM     18  CA  HIS A   1     -36.015  22.386   3.708  0.00  0.00    +0.046 C 
BRANCH  18  20
ATOM     19  OXT HIS A   1     -35.928  22.645   6.128  0.00  0.00    -0.253 OA
ATOM     20  C   HIS A   1     -35.681  21.978   5.133  0.00  0.00    +0.294 C 
BRANCH  20  21
ATOM     21  O   HIS A   1     -35.097  20.752   5.195  0.00  0.00    -0.482 OA
ATOM     22  H   HIS A   1     -34.165  20.674   5.152  0.00  0.00    +0.295 HD
ENDBRANCH  20  21
ENDBRANCH  18  20
BRANCH  18  23
ATOM     23  CB  HIS A   1     -35.029  23.428   3.158  0.00  0.00    +0.032 C 
BRANCH  23  26
ATOM     24  ND1 HIS A   1     -34.201  24.947   5.001  0.00  0.00    -0.319 N 
ATOM     25  NE2 HIS A   1     -35.429  26.784   4.790  0.00  0.00    -0.315 N 
ATOM     26  CG  HIS A   1     -35.037  24.719   3.946  0.00  0.00    +0.036 C 
ATOM     27  CD2 HIS A   1     -35.786  25.866   3.835  0.00  0.00    +0.069 C 
ATOM     28  CE1 HIS A   1     -34.473  26.200   5.477  0.00  0.00    +0.182 C 
ATOM     29  HD1 HIS A   1     -33.526  24.323   5.355  0.00  0.00    +0.148 HD
ATOM     30  HE2 HIS A   1     -35.807  27.683   4.932  0.00  0.00    +0.148 HD
ENDBRANCH  23  26
ENDBRANCH  18  23
ENDBRANCH   1  18
TORSDOF 10
ENDMDL
