MODEL 1
REMARK VINA RESULT:      -6.9      0.000      0.000
REMARK  Name = 20055680
REMARK  4 active torsions:
REMARK  status: ('A' for Active; 'I' for Inactive)
REMARK    1  A    between atoms: C_16  and  C_31
REMARK    2  A    between atoms: C_18  and  C_27
REMARK    3  A    between atoms: C_31  and  C_33
REMARK    4  A    between atoms: C_33  and  O_34
REMARK                            x       y       z     vdW  Elec       q    Type
REMARK                         _______ _______ _______ _____ _____    ______ ____
ROOT
ATOM      1  O   UNL     1     -38.014  24.732   1.070  0.00  0.00    -0.345 OA
ATOM      2  O   UNL     1     -35.018  18.185  -0.286  0.00  0.00    -0.360 OA
ATOM      3  O   UNL     1     -37.761  25.395   3.800  0.00  0.00    -0.446 OA
ATOM      4  O   UNL     1     -39.193  22.388  -0.331  0.00  0.00    -0.296 OA
ATOM      5  O   UNL     1     -39.935  24.728   3.853  0.00  0.00    -0.247 OA
ATOM      6  C   UNL     1     -37.230  23.603   1.546  0.00  0.00    +0.138 C 
ATOM      7  C   UNL     1     -36.847  22.705   0.298  0.00  0.00    +0.077 C 
ATOM      8  C   UNL     1     -35.694  21.743   0.766  0.00  0.00    +0.011 C 
ATOM      9  C   UNL     1     -36.136  23.933   2.600  0.00  0.00    +0.067 C 
ATOM     10  C   UNL     1     -35.406  20.525  -0.164  0.00  0.00    +0.029 C 
ATOM     11  C   UNL     1     -38.631  23.933   2.061  0.00  0.00    +0.239 C 
ATOM     12  C   UNL     1     -36.753  19.787  -0.279  0.00  0.00    +0.035 C 
ATOM     13  C   UNL     1     -34.450  22.506   1.258  0.00  0.00    +0.001 C 
ATOM     14  C   UNL     1     -34.751  23.857   1.928  0.00  0.00    +0.006 C 
ATOM     15  C   UNL     1     -38.057  21.906  -0.282  0.00  0.00    +0.152 C 
ATOM     16  C   UNL     1     -34.605  19.360   0.466  0.00  0.00    +0.126 C 
ATOM     17  C   UNL     1     -37.812  20.584  -1.003  0.00  0.00    +0.067 C 
ATOM     18  C   UNL     1     -36.446  25.374   3.153  0.00  0.00    +0.196 C 
ATOM     19  C   UNL     1     -36.389  18.367  -0.728  0.00  0.00    +0.093 C 
ATOM     20  C   UNL     1     -36.410  23.617  -0.885  0.00  0.00    +0.010 C 
ATOM     21  C   UNL     1     -36.186  22.933   3.796  0.00  0.00    +0.006 C 
ATOM     22  C   UNL     1     -34.768  20.914  -1.516  0.00  0.00    +0.003 C 
ATOM     23  C   UNL     1     -38.839  24.710   3.307  0.00  0.00    +0.347 C 
ATOM     24  C   UNL     1     -37.260  17.247  -0.159  0.00  0.00    +0.030 C 
ATOM     25  C   UNL     1     -36.394  18.245  -2.258  0.00  0.00    +0.030 C 
ENDROOT
BRANCH  18  27
ATOM     26  O   UNL     1     -33.723  27.051   4.983  0.00  0.00    -0.448 OA
ATOM     27  C   UNL     1     -35.432  25.880   4.112  0.00  0.00    +0.058 C 
ATOM     28  C   UNL     1     -35.253  25.473   5.456  0.00  0.00    +0.043 C 
ATOM     29  C   UNL     1     -34.478  26.842   3.873  0.00  0.00    +0.179 C 
ATOM     30  C   UNL     1     -34.201  26.215   5.941  0.00  0.00    +0.180 C 
ENDBRANCH  18  27
BRANCH  16  31
ATOM     31  C   UNL     1     -33.085  19.429   0.432  0.00  0.00    +0.139 C 
BRANCH  31  33
ATOM     32  O   UNL     1     -32.014  17.696   1.771  0.00  0.00    -0.250 OA
ATOM     33  C   UNL     1     -32.456  18.087   0.701  0.00  0.00    +0.316 C 
BRANCH  33  34
ATOM     34  O   UNL     1     -32.444  17.346  -0.437  0.00  0.00    -0.480 OA
ATOM     35  H   UNL     1     -32.035  16.503  -0.443  0.00  0.00    +0.295 HD
ENDBRANCH  33  34
ENDBRANCH  31  33
ENDBRANCH  16  31
TORSDOF 4
ENDMDL
MODEL 2
REMARK VINA RESULT:      -6.7      1.777      7.248
REMARK  Name = 20055680
REMARK  4 active torsions:
REMARK  status: ('A' for Active; 'I' for Inactive)
REMARK    1  A    between atoms: C_16  and  C_31
REMARK    2  A    between atoms: C_18  and  C_27
REMARK    3  A    between atoms: C_31  and  C_33
REMARK    4  A    between atoms: C_33  and  O_34
REMARK                            x       y       z     vdW  Elec       q    Type
REMARK                         _______ _______ _______ _____ _____    ______ ____
ROOT
ATOM      1  O   UNL     1     -36.332  20.133  -1.262  0.00  0.00    -0.345 OA
ATOM      2  O   UNL     1     -36.839  26.205   2.805  0.00  0.00    -0.360 OA
ATOM      3  O   UNL     1     -33.633  19.531  -1.820  0.00  0.00    -0.446 OA
ATOM      4  O   UNL     1     -37.990  22.560  -1.720  0.00  0.00    -0.296 OA
ATOM      5  O   UNL     1     -34.153  20.467  -3.826  0.00  0.00    -0.247 OA
ATOM      6  C   UNL     1     -35.664  21.170  -0.490  0.00  0.00    +0.138 C 
ATOM      7  C   UNL     1     -36.766  21.972   0.318  0.00  0.00    +0.077 C 
ATOM      8  C   UNL     1     -36.009  22.797   1.423  0.00  0.00    +0.011 C 
ATOM      9  C   UNL     1     -34.360  20.740   0.238  0.00  0.00    +0.067 C 
ATOM     10  C   UNL     1     -36.828  23.939   2.099  0.00  0.00    +0.029 C 
ATOM     11  C   UNL     1     -35.537  21.034  -2.008  0.00  0.00    +0.239 C 
ATOM     12  C   UNL     1     -37.292  24.835   0.937  0.00  0.00    +0.035 C 
ATOM     13  C   UNL     1     -35.208  21.900   2.386  0.00  0.00    +0.001 C 
ATOM     14  C   UNL     1     -34.643  20.620   1.748  0.00  0.00    +0.006 C 
ATOM     15  C   UNL     1     -37.642  22.896  -0.585  0.00  0.00    +0.152 C 
ATOM     16  C   UNL     1     -36.007  25.013   2.851  0.00  0.00    +0.126 C 
ATOM     17  C   UNL     1     -38.271  24.153   0.010  0.00  0.00    +0.067 C 
ATOM     18  C   UNL     1     -33.911  19.367  -0.389  0.00  0.00    +0.196 C 
ATOM     19  C   UNL     1     -37.627  26.183   1.585  0.00  0.00    +0.093 C 
ATOM     20  C   UNL     1     -37.793  20.974   0.927  0.00  0.00    +0.010 C 
ATOM     21  C   UNL     1     -33.218  21.776   0.007  0.00  0.00    +0.006 C 
ATOM     22  C   UNL     1     -37.965  23.429   3.013  0.00  0.00    +0.003 C 
ATOM     23  C   UNL     1     -34.391  20.330  -2.633  0.00  0.00    +0.347 C 
ATOM     24  C   UNL     1     -37.305  27.421   0.748  0.00  0.00    +0.030 C 
ATOM     25  C   UNL     1     -39.103  26.255   1.996  0.00  0.00    +0.030 C 
ENDROOT
BRANCH  18  27
ATOM     26  O   UNL     1     -31.433  17.626   1.709  0.00  0.00    -0.448 OA
ATOM     27  C   UNL     1     -32.720  18.769   0.264  0.00  0.00    +0.058 C 
ATOM     28  C   UNL     1     -31.373  18.873  -0.160  0.00  0.00    +0.043 C 
ATOM     29  C   UNL     1     -32.703  18.000   1.404  0.00  0.00    +0.179 C 
ATOM     30  C   UNL     1     -30.630  18.161   0.752  0.00  0.00    +0.180 C 
ENDBRANCH  18  27
BRANCH  16  31
ATOM     31  C   UNL     1     -35.639  24.754   4.305  0.00  0.00    +0.139 C 
BRANCH  31  33
ATOM     32  O   UNL     1     -34.429  26.625   5.293  0.00  0.00    -0.250 OA
ATOM     33  C   UNL     1     -35.477  26.035   5.081  0.00  0.00    +0.316 C 
BRANCH  33  34
ATOM     34  O   UNL     1     -36.687  26.461   5.527  0.00  0.00    -0.480 OA
ATOM     35  H   UNL     1     -36.881  27.377   5.553  0.00  0.00    +0.295 HD
ENDBRANCH  33  34
ENDBRANCH  31  33
ENDBRANCH  16  31
TORSDOF 4
ENDMDL
MODEL 3
REMARK VINA RESULT:      -6.7      2.541      5.096
REMARK  Name = 20055680
REMARK  4 active torsions:
REMARK  status: ('A' for Active; 'I' for Inactive)
REMARK    1  A    between atoms: C_16  and  C_31
REMARK    2  A    between atoms: C_18  and  C_27
REMARK    3  A    between atoms: C_31  and  C_33
REMARK    4  A    between atoms: C_33  and  O_34
REMARK                            x       y       z     vdW  Elec       q    Type
REMARK                         _______ _______ _______ _____ _____    ______ ____
ROOT
ATOM      1  O   UNL     1     -35.208  26.621   5.227  0.00  0.00    -0.345 OA
ATOM      2  O   UNL     1     -35.130  21.303   0.189  0.00  0.00    -0.360 OA
ATOM      3  O   UNL     1     -32.908  28.238   5.002  0.00  0.00    -0.446 OA
ATOM      4  O   UNL     1     -35.582  23.693   5.590  0.00  0.00    -0.296 OA
ATOM      5  O   UNL     1     -32.223  26.987   6.773  0.00  0.00    -0.247 OA
ATOM      6  C   UNL     1     -34.586  26.035   4.049  0.00  0.00    +0.138 C 
ATOM      7  C   UNL     1     -35.561  24.926   3.474  0.00  0.00    +0.077 C 
ATOM      8  C   UNL     1     -35.070  24.600   2.016  0.00  0.00    +0.011 C 
ATOM      9  C   UNL     1     -33.920  27.036   3.065  0.00  0.00    +0.067 C 
ATOM     10  C   UNL     1     -35.634  23.290   1.386  0.00  0.00    +0.029 C 
ATOM     11  C   UNL     1     -33.921  26.068   5.426  0.00  0.00    +0.239 C 
ATOM     12  C   UNL     1     -35.251  22.177   2.378  0.00  0.00    +0.035 C 
ATOM     13  C   UNL     1     -35.087  25.836   1.096  0.00  0.00    +0.001 C 
ATOM     14  C   UNL     1     -34.802  27.169   1.808  0.00  0.00    +0.006 C 
ATOM     15  C   UNL     1     -35.621  23.640   4.357  0.00  0.00    +0.152 C 
ATOM     16  C   UNL     1     -34.860  22.732   0.167  0.00  0.00    +0.126 C 
ATOM     17  C   UNL     1     -35.951  22.298   3.711  0.00  0.00    +0.067 C 
ATOM     18  C   UNL     1     -33.769  28.405   3.827  0.00  0.00    +0.196 C 
ATOM     19  C   UNL     1     -35.321  20.880   1.564  0.00  0.00    +0.093 C 
ATOM     20  C   UNL     1     -37.023  25.457   3.499  0.00  0.00    +0.010 C 
ATOM     21  C   UNL     1     -32.496  26.554   2.648  0.00  0.00    +0.006 C 
ATOM     22  C   UNL     1     -37.140  23.362   1.049  0.00  0.00    +0.003 C 
ATOM     23  C   UNL     1     -32.948  27.123   5.795  0.00  0.00    +0.347 C 
ATOM     24  C   UNL     1     -34.283  19.816   1.919  0.00  0.00    +0.030 C 
ATOM     25  C   UNL     1     -36.712  20.237   1.654  0.00  0.00    +0.030 C 
ENDROOT
BRANCH  18  27
ATOM     26  O   UNL     1     -31.783  30.899   1.981  0.00  0.00    -0.448 OA
ATOM     27  C   UNL     1     -33.228  29.504   2.989  0.00  0.00    +0.058 C 
ATOM     28  C   UNL     1     -33.968  30.418   2.202  0.00  0.00    +0.043 C 
ATOM     29  C   UNL     1     -31.904  29.838   2.821  0.00  0.00    +0.179 C 
ATOM     30  C   UNL     1     -33.043  31.246   1.609  0.00  0.00    +0.180 C 
ENDBRANCH  18  27
BRANCH  16  31
ATOM     31  C   UNL     1     -35.217  23.257  -1.216  0.00  0.00    +0.139 C 
BRANCH  31  33
ATOM     32  O   UNL     1     -34.667  21.723  -3.029  0.00  0.00    -0.250 OA
ATOM     33  C   UNL     1     -35.458  22.139  -2.196  0.00  0.00    +0.316 C 
BRANCH  33  34
ATOM     34  O   UNL     1     -36.709  21.636  -2.026  0.00  0.00    -0.480 OA
ATOM     35  H   UNL     1     -36.866  20.981  -1.376  0.00  0.00    +0.295 HD
ENDBRANCH  33  34
ENDBRANCH  31  33
ENDBRANCH  16  31
TORSDOF 4
ENDMDL
MODEL 4
REMARK VINA RESULT:      -6.6      3.799      6.169
REMARK  Name = 20055680
REMARK  4 active torsions:
REMARK  status: ('A' for Active; 'I' for Inactive)
REMARK    1  A    between atoms: C_16  and  C_31
REMARK    2  A    between atoms: C_18  and  C_27
REMARK    3  A    between atoms: C_31  and  C_33
REMARK    4  A    between atoms: C_33  and  O_34
REMARK                            x       y       z     vdW  Elec       q    Type
REMARK                         _______ _______ _______ _____ _____    ______ ____
ROOT
ATOM      1  O   UNL     1     -33.932  29.034   1.133  0.00  0.00    -0.345 OA
ATOM      2  O   UNL     1     -38.168  23.493   3.376  0.00  0.00    -0.360 OA
ATOM      3  O   UNL     1     -32.235  29.894   3.215  0.00  0.00    -0.446 OA
ATOM      4  O   UNL     1     -36.886  28.736   0.936  0.00  0.00    -0.296 OA
ATOM      5  O   UNL     1     -33.785  31.549   3.388  0.00  0.00    -0.247 OA
ATOM      6  C   UNL     1     -34.260  28.059   2.163  0.00  0.00    +0.138 C 
ATOM      7  C   UNL     1     -35.265  27.003   1.542  0.00  0.00    +0.077 C 
ATOM      8  C   UNL     1     -35.287  25.769   2.517  0.00  0.00    +0.011 C 
ATOM      9  C   UNL     1     -33.068  27.551   3.020  0.00  0.00    +0.067 C 
ATOM     10  C   UNL     1     -36.466  24.767   2.319  0.00  0.00    +0.029 C 
ATOM     11  C   UNL     1     -34.475  29.564   2.327  0.00  0.00    +0.239 C 
ATOM     12  C   UNL     1     -37.740  25.623   2.454  0.00  0.00    +0.035 C 
ATOM     13  C   UNL     1     -33.898  25.126   2.690  0.00  0.00    +0.001 C 
ATOM     14  C   UNL     1     -32.721  26.111   2.596  0.00  0.00    +0.006 C 
ATOM     15  C   UNL     1     -36.699  27.576   1.313  0.00  0.00    +0.152 C 
ATOM     16  C   UNL     1     -36.755  23.812   3.502  0.00  0.00    +0.126 C 
ATOM     17  C   UNL     1     -37.900  26.635   1.344  0.00  0.00    +0.067 C 
ATOM     18  C   UNL     1     -31.869  28.543   2.780  0.00  0.00    +0.196 C 
ATOM     19  C   UNL     1     -38.855  24.624   2.780  0.00  0.00    +0.093 C 
ATOM     20  C   UNL     1     -34.793  26.615   0.111  0.00  0.00    +0.010 C 
ATOM     21  C   UNL     1     -33.418  27.572   4.540  0.00  0.00    +0.006 C 
ATOM     22  C   UNL     1     -36.375  23.952   1.011  0.00  0.00    +0.003 C 
ATOM     23  C   UNL     1     -33.484  30.421   3.019  0.00  0.00    +0.347 C 
ATOM     24  C   UNL     1     -39.936  25.126   3.737  0.00  0.00    +0.030 C 
ATOM     25  C   UNL     1     -39.544  24.120   1.505  0.00  0.00    +0.030 C 
ENDROOT
BRANCH  18  27
ATOM     26  O   UNL     1     -28.658  27.125   3.900  0.00  0.00    -0.448 OA
ATOM     27  C   UNL     1     -30.613  28.144   3.463  0.00  0.00    +0.058 C 
ATOM     28  C   UNL     1     -30.132  28.619   4.706  0.00  0.00    +0.043 C 
ATOM     29  C   UNL     1     -29.681  27.238   3.013  0.00  0.00    +0.179 C 
ATOM     30  C   UNL     1     -28.940  27.968   4.927  0.00  0.00    +0.180 C 
ENDBRANCH  18  27
BRANCH  16  31
ATOM     31  C   UNL     1     -35.983  22.503   3.576  0.00  0.00    +0.139 C 
BRANCH  31  33
ATOM     32  O   UNL     1     -35.937  22.751   6.001  0.00  0.00    -0.250 OA
ATOM     33  C   UNL     1     -35.718  22.086   4.999  0.00  0.00    +0.316 C 
BRANCH  33  34
ATOM     34  O   UNL     1     -35.189  20.835   5.024  0.00  0.00    -0.480 OA
ATOM     35  H   UNL     1     -34.299  20.709   5.288  0.00  0.00    +0.295 HD
ENDBRANCH  33  34
ENDBRANCH  31  33
ENDBRANCH  16  31
TORSDOF 4
ENDMDL
MODEL 5
REMARK VINA RESULT:      -6.4      2.676      3.801
REMARK  Name = 20055680
REMARK  4 active torsions:
REMARK  status: ('A' for Active; 'I' for Inactive)
REMARK    1  A    between atoms: C_16  and  C_31
REMARK    2  A    between atoms: C_18  and  C_27
REMARK    3  A    between atoms: C_31  and  C_33
REMARK    4  A    between atoms: C_33  and  O_34
REMARK                            x       y       z     vdW  Elec       q    Type
REMARK                         _______ _______ _______ _____ _____    ______ ____
ROOT
ATOM      1  O   UNL     1     -36.897  22.969   2.860  0.00  0.00    -0.345 OA
ATOM      2  O   UNL     1     -31.379  20.156  -1.054  0.00  0.00    -0.360 OA
ATOM      3  O   UNL     1     -36.076  25.316   4.191  0.00  0.00    -0.446 OA
ATOM      4  O   UNL     1     -35.839  20.189   2.845  0.00  0.00    -0.296 OA
ATOM      5  O   UNL     1     -35.940  23.902   5.966  0.00  0.00    -0.247 OA
ATOM      6  C   UNL     1     -35.543  23.107   2.344  0.00  0.00    +0.138 C 
ATOM      7  C   UNL     1     -35.310  21.978   1.258  0.00  0.00    +0.077 C 
ATOM      8  C   UNL     1     -34.025  22.384   0.448  0.00  0.00    +0.011 C 
ATOM      9  C   UNL     1     -35.080  24.558   2.034  0.00  0.00    +0.067 C 
ATOM     10  C   UNL     1     -33.384  21.259  -0.422  0.00  0.00    +0.029 C 
ATOM     11  C   UNL     1     -35.866  22.921   3.827  0.00  0.00    +0.239 C 
ATOM     12  C   UNL     1     -33.097  20.112   0.565  0.00  0.00    +0.035 C 
ATOM     13  C   UNL     1     -34.171  23.752  -0.247  0.00  0.00    +0.001 C 
ATOM     14  C   UNL     1     -35.053  24.761   0.506  0.00  0.00    +0.006 C 
ATOM     15  C   UNL     1     -35.169  20.549   1.873  0.00  0.00    +0.152 C 
ATOM     16  C   UNL     1     -31.922  21.493  -0.871  0.00  0.00    +0.126 C 
ATOM     17  C   UNL     1     -34.348  19.491   1.141  0.00  0.00    +0.067 C 
ATOM     18  C   UNL     1     -36.097  25.530   2.741  0.00  0.00    +0.196 C 
ATOM     19  C   UNL     1     -32.036  19.250  -0.129  0.00  0.00    +0.093 C 
ATOM     20  C   UNL     1     -36.568  21.863   0.349  0.00  0.00    +0.010 C 
ATOM     21  C   UNL     1     -33.660  24.833   2.617  0.00  0.00    +0.006 C 
ATOM     22  C   UNL     1     -34.239  20.857  -1.644  0.00  0.00    +0.003 C 
ATOM     23  C   UNL     1     -35.961  24.074   4.754  0.00  0.00    +0.347 C 
ATOM     24  C   UNL     1     -30.992  18.615   0.790  0.00  0.00    +0.030 C 
ATOM     25  C   UNL     1     -32.679  18.134  -0.962  0.00  0.00    +0.030 C 
ENDROOT
BRANCH  18  27
ATOM     26  O   UNL     1     -36.010  29.024   1.574  0.00  0.00    -0.448 OA
ATOM     27  C   UNL     1     -35.847  26.966   2.464  0.00  0.00    +0.058 C 
ATOM     28  C   UNL     1     -34.883  27.797   3.084  0.00  0.00    +0.043 C 
ATOM     29  C   UNL     1     -36.507  27.759   1.555  0.00  0.00    +0.179 C 
ATOM     30  C   UNL     1     -35.023  29.038   2.507  0.00  0.00    +0.180 C 
ENDBRANCH  18  27
BRANCH  16  31
ATOM     31  C   UNL     1     -31.678  22.278  -2.152  0.00  0.00    +0.139 C 
BRANCH  31  33
ATOM     32  O   UNL     1     -29.688  23.055  -3.325  0.00  0.00    -0.250 OA
ATOM     33  C   UNL     1     -30.234  22.677  -2.299  0.00  0.00    +0.316 C 
BRANCH  33  34
ATOM     34  O   UNL     1     -29.597  22.558  -1.106  0.00  0.00    -0.480 OA
ATOM     35  H   UNL     1     -29.151  21.763  -0.890  0.00  0.00    +0.295 HD
ENDBRANCH  33  34
ENDBRANCH  31  33
ENDBRANCH  16  31
TORSDOF 4
ENDMDL
MODEL 6
REMARK VINA RESULT:      -6.3      2.448      7.625
REMARK  Name = 20055680
REMARK  4 active torsions:
REMARK  status: ('A' for Active; 'I' for Inactive)
REMARK    1  A    between atoms: C_16  and  C_31
REMARK    2  A    between atoms: C_18  and  C_27
REMARK    3  A    between atoms: C_31  and  C_33
REMARK    4  A    between atoms: C_33  and  O_34
REMARK                            x       y       z     vdW  Elec       q    Type
REMARK                         _______ _______ _______ _____ _____    ______ ____
ROOT
ATOM      1  O   UNL     1     -34.248  21.446  -2.335  0.00  0.00    -0.345 OA
ATOM      2  O   UNL     1     -34.956  24.790   4.146  0.00  0.00    -0.360 OA
ATOM      3  O   UNL     1     -32.686  19.112  -2.084  0.00  0.00    -0.446 OA
ATOM      4  O   UNL     1     -33.742  24.292  -1.631  0.00  0.00    -0.296 OA
ATOM      5  O   UNL     1     -31.072  20.461  -2.946  0.00  0.00    -0.247 OA
ATOM      6  C   UNL     1     -34.034  21.424  -0.896  0.00  0.00    +0.138 C 
ATOM      7  C   UNL     1     -34.867  22.609  -0.253  0.00  0.00    +0.077 C 
ATOM      8  C   UNL     1     -34.944  22.325   1.292  0.00  0.00    +0.011 C 
ATOM      9  C   UNL     1     -34.079  20.022  -0.226  0.00  0.00    +0.067 C 
ATOM     10  C   UNL     1     -35.388  23.526   2.183  0.00  0.00    +0.029 C 
ATOM     11  C   UNL     1     -32.900  21.529  -1.915  0.00  0.00    +0.239 C 
ATOM     12  C   UNL     1     -34.387  24.650   1.859  0.00  0.00    +0.035 C 
ATOM     13  C   UNL     1     -35.622  20.979   1.614  0.00  0.00    +0.001 C 
ATOM     14  C   UNL     1     -35.397  19.882   0.560  0.00  0.00    +0.006 C 
ATOM     15  C   UNL     1     -34.262  24.018  -0.545  0.00  0.00    +0.152 C 
ATOM     16  C   UNL     1     -35.063  23.412   3.692  0.00  0.00    +0.126 C 
ATOM     17  C   UNL     1     -34.497  25.159   0.441  0.00  0.00    +0.067 C 
ATOM     18  C   UNL     1     -33.961  18.955  -1.377  0.00  0.00    +0.196 C 
ATOM     19  C   UNL     1     -34.471  25.610   3.051  0.00  0.00    +0.093 C 
ATOM     20  C   UNL     1     -36.275  22.671  -0.911  0.00  0.00    +0.010 C 
ATOM     21  C   UNL     1     -32.874  19.824   0.745  0.00  0.00    +0.006 C 
ATOM     22  C   UNL     1     -36.872  23.914   2.005  0.00  0.00    +0.003 C 
ATOM     23  C   UNL     1     -32.139  20.336  -2.358  0.00  0.00    +0.347 C 
ATOM     24  C   UNL     1     -33.159  26.280   3.458  0.00  0.00    +0.030 C 
ATOM     25  C   UNL     1     -35.513  26.711   2.810  0.00  0.00    +0.030 C 
ENDROOT
BRANCH  18  27
ATOM     26  O   UNL     1     -33.541  15.518  -0.115  0.00  0.00    -0.448 OA
ATOM     27  C   UNL     1     -34.079  17.551  -0.909  0.00  0.00    +0.058 C 
ATOM     28  C   UNL     1     -35.261  16.775  -0.834  0.00  0.00    +0.043 C 
ATOM     29  C   UNL     1     -33.061  16.742  -0.461  0.00  0.00    +0.179 C 
ATOM     30  C   UNL     1     -34.879  15.547  -0.344  0.00  0.00    +0.180 C 
ENDBRANCH  18  27
BRANCH  16  31
ATOM     31  C   UNL     1     -36.060  22.697   4.592  0.00  0.00    +0.139 C 
BRANCH  31  33
ATOM     32  O   UNL     1     -35.074  22.364   6.796  0.00  0.00    -0.250 OA
ATOM     33  C   UNL     1     -35.375  21.932   5.693  0.00  0.00    +0.316 C 
BRANCH  33  34
ATOM     34  O   UNL     1     -35.126  20.660   5.288  0.00  0.00    -0.480 OA
ATOM     35  H   UNL     1     -34.403  20.187   5.648  0.00  0.00    +0.295 HD
ENDBRANCH  33  34
ENDBRANCH  31  33
ENDBRANCH  16  31
TORSDOF 4
ENDMDL
MODEL 7
REMARK VINA RESULT:      -6.3      2.309      7.588
REMARK  Name = 20055680
REMARK  4 active torsions:
REMARK  status: ('A' for Active; 'I' for Inactive)
REMARK    1  A    between atoms: C_16  and  C_31
REMARK    2  A    between atoms: C_18  and  C_27
REMARK    3  A    between atoms: C_31  and  C_33
REMARK    4  A    between atoms: C_33  and  O_34
REMARK                            x       y       z     vdW  Elec       q    Type
REMARK                         _______ _______ _______ _____ _____    ______ ____
ROOT
ATOM      1  O   UNL     1     -34.360  19.813  -2.542  0.00  0.00    -0.345 OA
ATOM      2  O   UNL     1     -36.111  23.693   3.421  0.00  0.00    -0.360 OA
ATOM      3  O   UNL     1     -31.655  19.023  -2.455  0.00  0.00    -0.446 OA
ATOM      4  O   UNL     1     -35.689  22.469  -2.360  0.00  0.00    -0.296 OA
ATOM      5  O   UNL     1     -31.411  20.769  -3.892  0.00  0.00    -0.247 OA
ATOM      6  C   UNL     1     -33.981  20.311  -1.229  0.00  0.00    +0.138 C 
ATOM      7  C   UNL     1     -35.276  20.897  -0.528  0.00  0.00    +0.077 C 
ATOM      8  C   UNL     1     -34.935  21.052   0.999  0.00  0.00    +0.011 C 
ATOM      9  C   UNL     1     -33.028  19.398  -0.407  0.00  0.00    +0.067 C 
ATOM     10  C   UNL     1     -35.911  21.946   1.826  0.00  0.00    +0.029 C 
ATOM     11  C   UNL     1     -33.331  20.783  -2.529  0.00  0.00    +0.239 C 
ATOM     12  C   UNL     1     -35.913  23.305   1.101  0.00  0.00    +0.035 C 
ATOM     13  C   UNL     1     -34.547  19.715   1.659  0.00  0.00    +0.001 C 
ATOM     14  C   UNL     1     -33.827  18.727   0.727  0.00  0.00    +0.006 C 
ATOM     15  C   UNL     1     -35.755  22.247  -1.147  0.00  0.00    +0.152 C 
ATOM     16  C   UNL     1     -35.379  22.458   3.186  0.00  0.00    +0.126 C 
ATOM     17  C   UNL     1     -36.520  23.244  -0.281  0.00  0.00    +0.067 C 
ATOM     18  C   UNL     1     -32.421  18.344  -1.407  0.00  0.00    +0.196 C 
ATOM     19  C   UNL     1     -36.420  24.308   2.142  0.00  0.00    +0.093 C 
ATOM     20  C   UNL     1     -36.476  19.936  -0.769  0.00  0.00    +0.010 C 
ATOM     21  C   UNL     1     -31.851  20.219   0.205  0.00  0.00    +0.006 C 
ATOM     22  C   UNL     1     -37.309  21.320   2.024  0.00  0.00    +0.003 C 
ATOM     23  C   UNL     1     -32.057  20.204  -3.019  0.00  0.00    +0.347 C 
ATOM     24  C   UNL     1     -35.793  25.701   2.082  0.00  0.00    +0.030 C 
ATOM     25  C   UNL     1     -37.944  24.468   2.070  0.00  0.00    +0.030 C 
ENDROOT
BRANCH  18  27
ATOM     26  O   UNL     1     -30.886  15.507   0.375  0.00  0.00    -0.448 OA
ATOM     27  C   UNL     1     -31.552  17.331  -0.757  0.00  0.00    +0.058 C 
ATOM     28  C   UNL     1     -30.137  17.333  -0.702  0.00  0.00    +0.043 C 
ATOM     29  C   UNL     1     -31.959  16.200  -0.089  0.00  0.00    +0.179 C 
ATOM     30  C   UNL     1     -29.782  16.202  -0.003  0.00  0.00    +0.180 C 
ENDBRANCH  18  27
BRANCH  16  31
ATOM     31  C   UNL     1     -35.553  21.570   4.409  0.00  0.00    +0.139 C 
BRANCH  31  33
ATOM     32  O   UNL     1     -35.938  22.130   6.750  0.00  0.00    -0.250 OA
ATOM     33  C   UNL     1     -35.363  22.336   5.692  0.00  0.00    +0.316 C 
BRANCH  33  34
ATOM     34  O   UNL     1     -34.440  23.316   5.512  0.00  0.00    -0.480 OA
ATOM     35  H   UNL     1     -33.873  23.559   6.217  0.00  0.00    +0.295 HD
ENDBRANCH  33  34
ENDBRANCH  31  33
ENDBRANCH  16  31
TORSDOF 4
ENDMDL
MODEL 8
REMARK VINA RESULT:      -6.2      1.960      2.905
REMARK  Name = 20055680
REMARK  4 active torsions:
REMARK  status: ('A' for Active; 'I' for Inactive)
REMARK    1  A    between atoms: C_16  and  C_31
REMARK    2  A    between atoms: C_18  and  C_27
REMARK    3  A    between atoms: C_31  and  C_33
REMARK    4  A    between atoms: C_33  and  O_34
REMARK                            x       y       z     vdW  Elec       q    Type
REMARK                         _______ _______ _______ _____ _____    ______ ____
ROOT
ATOM      1  O   UNL     1     -37.614  21.907  -0.178  0.00  0.00    -0.345 OA
ATOM      2  O   UNL     1     -33.188  16.083  -0.577  0.00  0.00    -0.360 OA
ATOM      3  O   UNL     1     -37.972  22.703   2.504  0.00  0.00    -0.446 OA
ATOM      4  O   UNL     1     -38.044  19.322  -1.586  0.00  0.00    -0.296 OA
ATOM      5  O   UNL     1     -39.946  21.601   2.252  0.00  0.00    -0.247 OA
ATOM      6  C   UNL     1     -36.715  20.983   0.495  0.00  0.00    +0.138 C 
ATOM      7  C   UNL     1     -35.952  20.141  -0.610  0.00  0.00    +0.077 C 
ATOM      8  C   UNL     1     -34.729  19.456   0.103  0.00  0.00    +0.011 C 
ATOM      9  C   UNL     1     -35.907  21.569   1.686  0.00  0.00    +0.067 C 
ATOM     10  C   UNL     1     -34.048  18.293  -0.682  0.00  0.00    +0.029 C 
ATOM     11  C   UNL     1     -38.221  21.032   0.753  0.00  0.00    +0.239 C 
ATOM     12  C   UNL     1     -35.181  17.288  -0.961  0.00  0.00    +0.035 C 
ATOM     13  C   UNL     1     -33.765  20.478   0.736  0.00  0.00    +0.001 C 
ATOM     14  C   UNL     1     -34.440  21.759   1.254  0.00  0.00    +0.006 C 
ATOM     15  C   UNL     1     -36.861  19.089  -1.321  0.00  0.00    +0.152 C 
ATOM     16  C   UNL     1     -33.153  17.343   0.149  0.00  0.00    +0.126 C 
ATOM     17  C   UNL     1     -36.237  17.823  -1.900  0.00  0.00    +0.067 C 
ATOM     18  C   UNL     1     -36.587  22.932   2.081  0.00  0.00    +0.196 C 
ATOM     19  C   UNL     1     -34.471  15.960  -1.246  0.00  0.00    +0.093 C 
ATOM     20  C   UNL     1     -35.509  21.083  -1.767  0.00  0.00    +0.010 C 
ATOM     21  C   UNL     1     -35.962  20.622   2.924  0.00  0.00    +0.006 C 
ATOM     22  C   UNL     1     -33.278  18.759  -1.936  0.00  0.00    +0.003 C 
ATOM     23  C   UNL     1     -38.791  21.792   1.892  0.00  0.00    +0.347 C 
ATOM     24  C   UNL     1     -35.187  14.704  -0.749  0.00  0.00    +0.030 C 
ATOM     25  C   UNL     1     -34.188  15.787  -2.744  0.00  0.00    +0.030 C 
ENDROOT
BRANCH  18  27
ATOM     26  O   UNL     1     -35.287  24.433   5.185  0.00  0.00    -0.448 OA
ATOM     27  C   UNL     1     -35.876  23.671   3.153  0.00  0.00    +0.058 C 
ATOM     28  C   UNL     1     -34.787  24.562   2.996  0.00  0.00    +0.043 C 
ATOM     29  C   UNL     1     -36.141  23.626   4.502  0.00  0.00    +0.179 C 
ATOM     30  C   UNL     1     -34.466  24.998   4.261  0.00  0.00    +0.180 C 
ENDBRANCH  18  27
BRANCH  16  31
ATOM     31  C   UNL     1     -31.694  17.724   0.356  0.00  0.00    +0.139 C 
BRANCH  31  33
ATOM     32  O   UNL     1     -30.134  16.965  -1.356  0.00  0.00    -0.250 OA
ATOM     33  C   UNL     1     -30.759  16.761  -0.326  0.00  0.00    +0.316 C 
BRANCH  33  34
ATOM     34  O   UNL     1     -30.700  15.599   0.375  0.00  0.00    -0.480 OA
ATOM     35  H   UNL     1     -31.044  15.559   1.245  0.00  0.00    +0.295 HD
ENDBRANCH  33  34
ENDBRANCH  31  33
ENDBRANCH  16  31
TORSDOF 4
ENDMDL
MODEL 9
REMARK VINA RESULT:      -6.2      2.309      7.637
REMARK  Name = 20055680
REMARK  4 active torsions:
REMARK  status: ('A' for Active; 'I' for Inactive)
REMARK    1  A    between atoms: C_16  and  C_31
REMARK    2  A    between atoms: C_18  and  C_27
REMARK    3  A    between atoms: C_31  and  C_33
REMARK    4  A    between atoms: C_33  and  O_34
REMARK                            x       y       z     vdW  Elec       q    Type
REMARK                         _______ _______ _______ _____ _____    ______ ____
ROOT
ATOM      1  O   UNL     1     -36.742  19.996  -1.058  0.00  0.00    -0.345 OA
ATOM      2  O   UNL     1     -36.518  24.368   4.816  0.00  0.00    -0.360 OA
ATOM      3  O   UNL     1     -39.400  19.261  -1.651  0.00  0.00    -0.446 OA
ATOM      4  O   UNL     1     -35.085  19.746   1.399  0.00  0.00    -0.296 OA
ATOM      5  O   UNL     1     -38.779  17.333  -0.617  0.00  0.00    -0.247 OA
ATOM      6  C   UNL     1     -37.461  20.778  -0.064  0.00  0.00    +0.138 C 
ATOM      7  C   UNL     1     -36.414  21.683   0.706  0.00  0.00    +0.077 C 
ATOM      8  C   UNL     1     -37.238  22.782   1.471  0.00  0.00    +0.011 C 
ATOM      9  C   UNL     1     -38.799  21.411  -0.538  0.00  0.00    +0.067 C 
ATOM     10  C   UNL     1     -36.468  23.557   2.585  0.00  0.00    +0.029 C 
ATOM     11  C   UNL     1     -37.503  19.251  -0.128  0.00  0.00    +0.239 C 
ATOM     12  C   UNL     1     -35.949  22.466   3.540  0.00  0.00    +0.035 C 
ATOM     13  C   UNL     1     -38.082  23.656   0.524  0.00  0.00    +0.001 C 
ATOM     14  C   UNL     1     -38.599  22.927  -0.728  0.00  0.00    +0.006 C 
ATOM     15  C   UNL     1     -35.497  20.876   1.678  0.00  0.00    +0.152 C 
ATOM     16  C   UNL     1     -37.340  24.312   3.617  0.00  0.00    +0.126 C 
ATOM     17  C   UNL     1     -34.914  21.563   2.910  0.00  0.00    +0.067 C 
ATOM     18  C   UNL     1     -39.200  20.695  -1.881  0.00  0.00    +0.196 C 
ATOM     19  C   UNL     1     -35.664  23.195   4.857  0.00  0.00    +0.093 C 
ATOM     20  C   UNL     1     -35.412  22.300  -0.313  0.00  0.00    +0.010 C 
ATOM     21  C   UNL     1     -39.937  21.166   0.501  0.00  0.00    +0.006 C 
ATOM     22  C   UNL     1     -35.379  24.507   2.040  0.00  0.00    +0.003 C 
ATOM     23  C   UNL     1     -38.606  18.530  -0.809  0.00  0.00    +0.347 C 
ATOM     24  C   UNL     1     -35.950  22.401   6.131  0.00  0.00    +0.030 C 
ATOM     25  C   UNL     1     -34.213  23.690   4.919  0.00  0.00    +0.030 C 
ENDROOT
BRANCH  18  27
ATOM     26  O   UNL     1     -41.768  22.538  -3.776  0.00  0.00    -0.448 OA
ATOM     27  C   UNL     1     -40.420  21.252  -2.518  0.00  0.00    +0.058 C 
ATOM     28  C   UNL     1     -41.751  20.805  -2.344  0.00  0.00    +0.043 C 
ATOM     29  C   UNL     1     -40.483  22.307  -3.399  0.00  0.00    +0.179 C 
ATOM     30  C   UNL     1     -42.533  21.619  -3.130  0.00  0.00    +0.180 C 
ENDBRANCH  18  27
BRANCH  16  31
ATOM     31  C   UNL     1     -37.785  25.729   3.285  0.00  0.00    +0.139 C 
BRANCH  31  33
ATOM     32  O   UNL     1     -39.906  26.682   2.554  0.00  0.00    -0.250 OA
ATOM     33  C   UNL     1     -39.283  25.837   3.180  0.00  0.00    +0.316 C 
BRANCH  33  34
ATOM     34  O   UNL     1     -39.871  24.842   3.893  0.00  0.00    -0.480 OA
ATOM     35  H   UNL     1     -40.728  24.543   3.663  0.00  0.00    +0.295 HD
ENDBRANCH  33  34
ENDBRANCH  31  33
ENDBRANCH  16  31
TORSDOF 4
ENDMDL
