MODEL 1
REMARK VINA RESULT:      -6.5      0.000      0.000
REMARK  Name = 51036
REMARK  7 active torsions:
REMARK  status: ('A' for Active; 'I' for Inactive)
REMARK    1  A    between atoms: C_6  and  O_19
REMARK    2  A    between atoms: C_9  and  C_31
REMARK    3  A    between atoms: C_15  and  N_21
REMARK    4  A    between atoms: N_21  and  C_23
REMARK    5  A    between atoms: C_28  and  O_29
REMARK    6  A    between atoms: C_31  and  O_32
REMARK    7  A    between atoms: O_32  and  C_35
REMARK                            x       y       z     vdW  Elec       q    Type
REMARK                         _______ _______ _______ _____ _____    ______ ____
ROOT
ATOM      1  O   UNL     1     -33.050  25.677  -0.793  0.00  0.00    -0.286 OA
ATOM      2  O   UNL     1     -35.456  21.714   1.875  0.00  0.00    -0.286 OA
ATOM      3  N   UNL     1     -35.211  28.452   3.519  0.00  0.00    +0.388 N 
ATOM      4  N   UNL     1     -34.657  26.214   1.570  0.00  0.00    -0.290 N 
ATOM      5  C   UNL     1     -35.175  27.003   3.722  0.00  0.00    -0.036 C 
ATOM      6  C   UNL     1     -35.664  26.075   2.651  0.00  0.00    +0.141 C 
ATOM      7  C   UNL     1     -33.984  27.743   3.202  0.00  0.00    -0.057 C 
ATOM      8  C   UNL     1     -33.700  27.293   1.799  0.00  0.00    +0.070 C 
ATOM      9  C   UNL     1     -35.688  24.531   2.914  0.00  0.00    +0.111 C 
ATOM     10  C   UNL     1     -34.397  24.987   1.006  0.00  0.00    +0.088 C 
ATOM     11  C   UNL     1     -34.980  24.000   1.683  0.00  0.00    +0.042 C 
ATOM     12  C   UNL     1     -33.574  24.752  -0.182  0.00  0.00    +0.206 C 
ATOM     13  C   UNL     1     -34.876  22.603   1.261  0.00  0.00    +0.206 C 
ATOM     14  C   UNL     1     -33.423  23.323  -0.612  0.00  0.00    +0.035 C 
ATOM     15  C   UNL     1     -34.029  22.315   0.054  0.00  0.00    +0.087 C 
ATOM     16  C   UNL     1     -32.554  23.140  -1.829  0.00  0.00    +0.036 C 
ATOM     17  H   UNL     1     -35.241  29.075   4.326  0.00  0.00    -0.084 HD
ATOM     18  H   UNL     1     -35.824  29.083   3.002  0.00  0.00    -0.084 HD
ENDROOT
BRANCH   6  19
ATOM     19  O   UNL     1     -36.947  26.494   2.188  0.00  0.00    -0.341 OA
ATOM     20  C   UNL     1     -37.988  25.919   2.961  0.00  0.00    +0.176 C 
ENDBRANCH   6  19
BRANCH  15  21
ATOM     21  N   UNL     1     -33.957  20.985  -0.263  0.00  0.00    -0.310 N 
ATOM     22  H   UNL     1     -34.669  20.644  -0.853  0.00  0.00    +0.152 HD
BRANCH  21  23
ATOM     23  C   UNL     1     -33.002  20.049   0.144  0.00  0.00    +0.049 C 
ATOM     24  C   UNL     1     -33.354  19.009   1.013  0.00  0.00    +0.018 C 
ATOM     25  C   UNL     1     -31.680  20.139  -0.311  0.00  0.00    +0.018 C 
ATOM     26  C   UNL     1     -32.402  18.075   1.421  0.00  0.00    +0.038 C 
ATOM     27  C   UNL     1     -30.727  19.206   0.097  0.00  0.00    +0.038 C 
ATOM     28  C   UNL     1     -31.088  18.174   0.962  0.00  0.00    +0.134 C 
BRANCH  28  29
ATOM     29  O   UNL     1     -30.159  17.262   1.360  0.00  0.00    -0.506 OA
ATOM     30  H   UNL     1     -29.451  17.035   0.790  0.00  0.00    +0.292 HD
ENDBRANCH  28  29
ENDBRANCH  21  23
ENDBRANCH  15  21
BRANCH   9  31
ATOM     31  C   UNL     1     -34.965  24.077   4.181  0.00  0.00    +0.218 C 
BRANCH  31  32
ATOM     32  O   UNL     1     -35.916  23.507   5.060  0.00  0.00    -0.434 OA
BRANCH  32  35
ATOM     33  O   UNL     1     -35.389  22.126   6.826  0.00  0.00    -0.227 OA
ATOM     34  N   UNL     1     -35.473  21.323   4.673  0.00  0.00    -0.295 N 
ATOM     35  C   UNL     1     -35.577  22.304   5.626  0.00  0.00    +0.398 C 
ATOM     36  H   UNL     1     -35.637  21.537   3.726  0.00  0.00    +0.148 HD
ATOM     37  H   UNL     1     -35.234  20.405   4.935  0.00  0.00    +0.148 HD
ENDBRANCH  32  35
ENDBRANCH  31  32
ENDBRANCH   9  31
TORSDOF 7
ENDMDL
MODEL 2
REMARK VINA RESULT:      -6.4      3.478      6.763
REMARK  Name = 51036
REMARK  7 active torsions:
REMARK  status: ('A' for Active; 'I' for Inactive)
REMARK    1  A    between atoms: C_6  and  O_19
REMARK    2  A    between atoms: C_9  and  C_31
REMARK    3  A    between atoms: C_15  and  N_21
REMARK    4  A    between atoms: N_21  and  C_23
REMARK    5  A    between atoms: C_28  and  O_29
REMARK    6  A    between atoms: C_31  and  O_32
REMARK    7  A    between atoms: O_32  and  C_35
REMARK                            x       y       z     vdW  Elec       q    Type
REMARK                         _______ _______ _______ _____ _____    ______ ____
ROOT
ATOM      1  O   UNL     1     -36.699  28.650   1.560  0.00  0.00    -0.286 OA
ATOM      2  O   UNL     1     -32.540  25.865   3.450  0.00  0.00    -0.286 OA
ATOM      3  N   UNL     1     -39.087  23.729   2.587  0.00  0.00    +0.388 N 
ATOM      4  N   UNL     1     -36.948  25.824   2.202  0.00  0.00    -0.290 N 
ATOM      5  C   UNL     1     -37.786  23.888   3.237  0.00  0.00    -0.036 C 
ATOM      6  C   UNL     1     -36.610  24.403   2.464  0.00  0.00    +0.141 C 
ATOM      7  C   UNL     1     -38.821  24.966   3.300  0.00  0.00    -0.057 C 
ATOM      8  C   UNL     1     -38.315  26.177   2.573  0.00  0.00    +0.070 C 
ATOM      9  C   UNL     1     -35.207  24.496   3.155  0.00  0.00    +0.111 C 
ATOM     10  C   UNL     1     -35.827  26.609   2.340  0.00  0.00    +0.088 C 
ATOM     11  C   UNL     1     -34.799  25.919   2.829  0.00  0.00    +0.042 C 
ATOM     12  C   UNL     1     -35.740  28.034   2.014  0.00  0.00    +0.206 C 
ATOM     13  C   UNL     1     -33.486  26.529   3.038  0.00  0.00    +0.206 C 
ATOM     14  C   UNL     1     -34.412  28.690   2.255  0.00  0.00    +0.035 C 
ATOM     15  C   UNL     1     -33.355  27.994   2.730  0.00  0.00    +0.087 C 
ATOM     16  C   UNL     1     -34.385  30.157   1.918  0.00  0.00    +0.036 C 
ATOM     17  H   UNL     1     -39.762  23.064   2.963  0.00  0.00    -0.084 HD
ATOM     18  H   UNL     1     -39.385  23.504   1.637  0.00  0.00    -0.084 HD
ENDROOT
BRANCH   6  19
ATOM     19  O   UNL     1     -36.482  23.691   1.234  0.00  0.00    -0.341 OA
ATOM     20  C   UNL     1     -35.822  22.449   1.422  0.00  0.00    +0.176 C 
ENDBRANCH   6  19
BRANCH  15  21
ATOM     21  N   UNL     1     -32.106  28.498   2.976  0.00  0.00    -0.310 N 
ATOM     22  H   UNL     1     -31.573  28.733   2.182  0.00  0.00    +0.152 HD
BRANCH  21  23
ATOM     23  C   UNL     1     -31.492  28.723   4.212  0.00  0.00    +0.049 C 
ATOM     24  C   UNL     1     -32.216  29.284   5.271  0.00  0.00    +0.018 C 
ATOM     25  C   UNL     1     -30.145  28.389   4.407  0.00  0.00    +0.018 C 
ATOM     26  C   UNL     1     -31.604  29.509   6.504  0.00  0.00    +0.038 C 
ATOM     27  C   UNL     1     -29.533  28.614   5.639  0.00  0.00    +0.038 C 
ATOM     28  C   UNL     1     -30.263  29.173   6.688  0.00  0.00    +0.134 C 
BRANCH  28  29
ATOM     29  O   UNL     1     -29.665  29.393   7.892  0.00  0.00    -0.506 OA
ATOM     30  H   UNL     1     -28.747  29.573   7.934  0.00  0.00    +0.292 HD
ENDBRANCH  28  29
ENDBRANCH  21  23
ENDBRANCH  15  21
BRANCH   9  31
ATOM     31  C   UNL     1     -35.213  24.278   4.667  0.00  0.00    +0.218 C 
BRANCH  31  32
ATOM     32  O   UNL     1     -34.487  23.097   4.953  0.00  0.00    -0.434 OA
BRANCH  32  35
ATOM     33  O   UNL     1     -35.222  20.977   4.434  0.00  0.00    -0.227 OA
ATOM     34  N   UNL     1     -35.987  22.076   6.303  0.00  0.00    -0.295 N 
ATOM     35  C   UNL     1     -35.230  21.963   5.165  0.00  0.00    +0.398 C 
ATOM     36  H   UNL     1     -35.945  22.898   6.843  0.00  0.00    +0.148 HD
ATOM     37  H   UNL     1     -36.573  21.335   6.581  0.00  0.00    +0.148 HD
ENDBRANCH  32  35
ENDBRANCH  31  32
ENDBRANCH   9  31
TORSDOF 7
ENDMDL
MODEL 3
REMARK VINA RESULT:      -6.4      2.450      2.776
REMARK  Name = 51036
REMARK  7 active torsions:
REMARK  status: ('A' for Active; 'I' for Inactive)
REMARK    1  A    between atoms: C_6  and  O_19
REMARK    2  A    between atoms: C_9  and  C_31
REMARK    3  A    between atoms: C_15  and  N_21
REMARK    4  A    between atoms: N_21  and  C_23
REMARK    5  A    between atoms: C_28  and  O_29
REMARK    6  A    between atoms: C_31  and  O_32
REMARK    7  A    between atoms: O_32  and  C_35
REMARK                            x       y       z     vdW  Elec       q    Type
REMARK                         _______ _______ _______ _____ _____    ______ ____
ROOT
ATOM      1  O   UNL     1     -37.021  22.608  -1.110  0.00  0.00    -0.286 OA
ATOM      2  O   UNL     1     -35.289  20.238   3.363  0.00  0.00    -0.286 OA
ATOM      3  N   UNL     1     -37.867  26.640   2.632  0.00  0.00    +0.388 N 
ATOM      4  N   UNL     1     -37.259  23.919   1.476  0.00  0.00    -0.290 N 
ATOM      5  C   UNL     1     -36.978  25.582   3.111  0.00  0.00    -0.036 C 
ATOM      6  C   UNL     1     -37.353  24.141   2.940  0.00  0.00    +0.141 C 
ATOM      7  C   UNL     1     -36.798  26.190   1.758  0.00  0.00    -0.057 C 
ATOM      8  C   UNL     1     -37.052  25.145   0.711  0.00  0.00    +0.070 C 
ATOM      9  C   UNL     1     -36.426  23.022   3.527  0.00  0.00    +0.111 C 
ATOM     10  C   UNL     1     -36.708  22.684   1.220  0.00  0.00    +0.088 C 
ATOM     11  C   UNL     1     -36.260  22.106   2.331  0.00  0.00    +0.042 C 
ATOM     12  C   UNL     1     -36.598  22.058  -0.099  0.00  0.00    +0.206 C 
ATOM     13  C   UNL     1     -35.658  20.772   2.321  0.00  0.00    +0.206 C 
ATOM     14  C   UNL     1     -35.949  20.705  -0.138  0.00  0.00    +0.035 C 
ATOM     15  C   UNL     1     -35.511  20.097   0.987  0.00  0.00    +0.087 C 
ATOM     16  C   UNL     1     -35.848  20.116  -1.521  0.00  0.00    +0.036 C 
ATOM     17  H   UNL     1     -37.820  27.569   3.050  0.00  0.00    -0.084 HD
ATOM     18  H   UNL     1     -38.879  26.730   2.532  0.00  0.00    -0.084 HD
ENDROOT
BRANCH   6  19
ATOM     19  O   UNL     1     -38.691  23.926   3.387  0.00  0.00    -0.341 OA
ATOM     20  C   UNL     1     -39.552  23.605   2.305  0.00  0.00    +0.176 C 
ENDBRANCH   6  19
BRANCH  15  21
ATOM     21  N   UNL     1     -34.915  18.867   1.054  0.00  0.00    -0.310 N 
ATOM     22  H   UNL     1     -35.486  18.130   1.373  0.00  0.00    +0.152 HD
BRANCH  21  23
ATOM     23  C   UNL     1     -33.599  18.524   0.730  0.00  0.00    +0.049 C 
ATOM     24  C   UNL     1     -32.597  19.502   0.708  0.00  0.00    +0.018 C 
ATOM     25  C   UNL     1     -33.266  17.198   0.421  0.00  0.00    +0.018 C 
ATOM     26  C   UNL     1     -31.284  19.161   0.383  0.00  0.00    +0.038 C 
ATOM     27  C   UNL     1     -31.953  16.857   0.097  0.00  0.00    +0.038 C 
ATOM     28  C   UNL     1     -30.962  17.838   0.078  0.00  0.00    +0.134 C 
BRANCH  28  29
ATOM     29  O   UNL     1     -29.680  17.506  -0.239  0.00  0.00    -0.506 OA
ATOM     30  H   UNL     1     -29.294  16.732   0.122  0.00  0.00    +0.292 HD
ENDBRANCH  28  29
ENDBRANCH  21  23
ENDBRANCH  15  21
BRANCH   9  31
ATOM     31  C   UNL     1     -35.064  23.503   4.022  0.00  0.00    +0.218 C 
BRANCH  31  32
ATOM     32  O   UNL     1     -35.091  23.549   5.437  0.00  0.00    -0.434 OA
BRANCH  32  35
ATOM     33  O   UNL     1     -36.315  22.098   6.740  0.00  0.00    -0.227 OA
ATOM     34  N   UNL     1     -34.268  21.491   5.888  0.00  0.00    -0.295 N 
ATOM     35  C   UNL     1     -35.315  22.357   6.079  0.00  0.00    +0.398 C 
ATOM     36  H   UNL     1     -33.494  21.766   5.345  0.00  0.00    +0.148 HD
ATOM     37  H   UNL     1     -34.290  20.594   6.293  0.00  0.00    +0.148 HD
ENDBRANCH  32  35
ENDBRANCH  31  32
ENDBRANCH   9  31
TORSDOF 7
ENDMDL
MODEL 4
REMARK VINA RESULT:      -6.4      4.058      6.496
REMARK  Name = 51036
REMARK  7 active torsions:
REMARK  status: ('A' for Active; 'I' for Inactive)
REMARK    1  A    between atoms: C_6  and  O_19
REMARK    2  A    between atoms: C_9  and  C_31
REMARK    3  A    between atoms: C_15  and  N_21
REMARK    4  A    between atoms: N_21  and  C_23
REMARK    5  A    between atoms: C_28  and  O_29
REMARK    6  A    between atoms: C_31  and  O_32
REMARK    7  A    between atoms: O_32  and  C_35
REMARK                            x       y       z     vdW  Elec       q    Type
REMARK                         _______ _______ _______ _____ _____    ______ ____
ROOT
ATOM      1  O   UNL     1     -39.033  26.405   3.020  0.00  0.00    -0.286 OA
ATOM      2  O   UNL     1     -38.617  21.185   1.923  0.00  0.00    -0.286 OA
ATOM      3  N   UNL     1     -34.010  25.268   5.129  0.00  0.00    +0.388 N 
ATOM      4  N   UNL     1     -36.755  24.851   3.944  0.00  0.00    -0.290 N 
ATOM      5  C   UNL     1     -34.506  24.232   4.222  0.00  0.00    -0.036 C 
ATOM      6  C   UNL     1     -35.903  23.709   4.360  0.00  0.00    +0.141 C 
ATOM      7  C   UNL     1     -34.575  25.680   3.856  0.00  0.00    -0.057 C 
ATOM      8  C   UNL     1     -36.013  26.093   3.753  0.00  0.00    +0.070 C 
ATOM      9  C   UNL     1     -36.393  22.547   3.430  0.00  0.00    +0.111 C 
ATOM     10  C   UNL     1     -37.817  24.400   3.195  0.00  0.00    +0.088 C 
ATOM     11  C   UNL     1     -37.701  23.105   2.906  0.00  0.00    +0.042 C 
ATOM     12  C   UNL     1     -38.945  25.215   2.738  0.00  0.00    +0.206 C 
ATOM     13  C   UNL     1     -38.722  22.388   2.142  0.00  0.00    +0.206 C 
ATOM     14  C   UNL     1     -39.986  24.507   1.922  0.00  0.00    +0.035 C 
ATOM     15  C   UNL     1     -39.891  23.188   1.642  0.00  0.00    +0.087 C 
ATOM     16  C   UNL     1     -41.113  25.396   1.467  0.00  0.00    +0.036 C 
ATOM     17  H   UNL     1     -33.007  25.361   5.291  0.00  0.00    -0.084 HD
ATOM     18  H   UNL     1     -34.196  25.510   6.103  0.00  0.00    -0.084 HD
ENDROOT
BRANCH   6  19
ATOM     19  O   UNL     1     -36.166  23.366   5.720  0.00  0.00    -0.341 OA
ATOM     20  C   UNL     1     -35.488  22.177   6.093  0.00  0.00    +0.176 C 
ENDBRANCH   6  19
BRANCH  15  21
ATOM     21  N   UNL     1     -40.789  22.455   0.914  0.00  0.00    -0.310 N 
ATOM     22  H   UNL     1     -41.572  22.120   1.408  0.00  0.00    +0.152 HD
BRANCH  21  23
ATOM     23  C   UNL     1     -40.735  22.121  -0.443  0.00  0.00    +0.049 C 
ATOM     24  C   UNL     1     -40.313  23.064  -1.388  0.00  0.00    +0.018 C 
ATOM     25  C   UNL     1     -41.101  20.839  -0.874  0.00  0.00    +0.018 C 
ATOM     26  C   UNL     1     -40.260  22.732  -2.742  0.00  0.00    +0.038 C 
ATOM     27  C   UNL     1     -41.048  20.507  -2.228  0.00  0.00    +0.038 C 
ATOM     28  C   UNL     1     -40.626  21.454  -3.161  0.00  0.00    +0.134 C 
BRANCH  28  29
ATOM     29  O   UNL     1     -40.574  21.130  -4.483  0.00  0.00    -0.506 OA
ATOM     30  H   UNL     1     -40.441  21.800  -5.125  0.00  0.00    +0.292 HD
ENDBRANCH  28  29
ENDBRANCH  21  23
ENDBRANCH  15  21
BRANCH   9  31
ATOM     31  C   UNL     1     -35.458  22.206   2.271  0.00  0.00    +0.218 C 
BRANCH  31  32
ATOM     32  O   UNL     1     -35.050  20.858   2.405  0.00  0.00    -0.434 OA
BRANCH  32  35
ATOM     33  O   UNL     1     -34.643  19.897   0.353  0.00  0.00    -0.227 OA
ATOM     34  N   UNL     1     -36.520  19.358   1.566  0.00  0.00    -0.295 N 
ATOM     35  C   UNL     1     -35.341  20.027   1.353  0.00  0.00    +0.398 C 
ATOM     36  H   UNL     1     -37.031  19.511   2.394  0.00  0.00    +0.148 HD
ATOM     37  H   UNL     1     -36.856  18.724   0.891  0.00  0.00    +0.148 HD
ENDBRANCH  32  35
ENDBRANCH  31  32
ENDBRANCH   9  31
TORSDOF 7
ENDMDL
MODEL 5
REMARK VINA RESULT:      -6.3      1.336      1.526
REMARK  Name = 51036
REMARK  7 active torsions:
REMARK  status: ('A' for Active; 'I' for Inactive)
REMARK    1  A    between atoms: C_6  and  O_19
REMARK    2  A    between atoms: C_9  and  C_31
REMARK    3  A    between atoms: C_15  and  N_21
REMARK    4  A    between atoms: N_21  and  C_23
REMARK    5  A    between atoms: C_28  and  O_29
REMARK    6  A    between atoms: C_31  and  O_32
REMARK    7  A    between atoms: O_32  and  C_35
REMARK                            x       y       z     vdW  Elec       q    Type
REMARK                         _______ _______ _______ _____ _____    ______ ____
ROOT
ATOM      1  O   UNL     1     -34.466  24.740  -1.008  0.00  0.00    -0.286 OA
ATOM      2  O   UNL     1     -36.701  21.414   2.537  0.00  0.00    -0.286 OA
ATOM      3  N   UNL     1     -35.313  28.173   3.290  0.00  0.00    +0.388 N 
ATOM      4  N   UNL     1     -35.456  25.710   1.548  0.00  0.00    -0.290 N 
ATOM      5  C   UNL     1     -35.406  26.758   3.651  0.00  0.00    -0.036 C 
ATOM      6  C   UNL     1     -36.219  25.814   2.817  0.00  0.00    +0.141 C 
ATOM      7  C   UNL     1     -34.275  27.272   2.820  0.00  0.00    -0.057 C 
ATOM      8  C   UNL     1     -34.351  26.660   1.452  0.00  0.00    +0.070 C 
ATOM      9  C   UNL     1     -36.370  24.319   3.260  0.00  0.00    +0.111 C 
ATOM     10  C   UNL     1     -35.471  24.413   1.093  0.00  0.00    +0.088 C 
ATOM     11  C   UNL     1     -36.009  23.584   1.985  0.00  0.00    +0.042 C 
ATOM     12  C   UNL     1     -34.954  23.958  -0.200  0.00  0.00    +0.206 C 
ATOM     13  C   UNL     1     -36.163  22.154   1.718  0.00  0.00    +0.206 C 
ATOM     14  C   UNL     1     -35.069  22.488  -0.479  0.00  0.00    +0.035 C 
ATOM     15  C   UNL     1     -35.634  21.640   0.409  0.00  0.00    +0.087 C 
ATOM     16  C   UNL     1     -34.508  22.074  -1.814  0.00  0.00    +0.036 C 
ATOM     17  H   UNL     1     -35.095  28.864   4.006  0.00  0.00    -0.084 HD
ATOM     18  H   UNL     1     -35.942  28.834   2.833  0.00  0.00    -0.084 HD
ENDROOT
BRANCH   6  19
ATOM     19  O   UNL     1     -37.512  26.365   2.572  0.00  0.00    -0.341 OA
ATOM     20  C   UNL     1     -38.528  25.594   3.194  0.00  0.00    +0.176 C 
ENDBRANCH   6  19
BRANCH  15  21
ATOM     21  N   UNL     1     -35.790  20.290   0.244  0.00  0.00    -0.310 N 
ATOM     22  H   UNL     1     -36.701  19.986   0.028  0.00  0.00    +0.152 HD
BRANCH  21  23
ATOM     23  C   UNL     1     -34.819  19.289   0.343  0.00  0.00    +0.049 C 
ATOM     24  C   UNL     1     -34.886  18.154  -0.474  0.00  0.00    +0.018 C 
ATOM     25  C   UNL     1     -33.767  19.408   1.261  0.00  0.00    +0.018 C 
ATOM     26  C   UNL     1     -33.918  17.154  -0.375  0.00  0.00    +0.038 C 
ATOM     27  C   UNL     1     -32.799  18.408   1.360  0.00  0.00    +0.038 C 
ATOM     28  C   UNL     1     -32.875  17.282   0.541  0.00  0.00    +0.134 C 
BRANCH  28  29
ATOM     29  O   UNL     1     -31.930  16.306   0.637  0.00  0.00    -0.506 OA
ATOM     30  H   UNL     1     -31.456  16.036  -0.125  0.00  0.00    +0.292 HD
ENDBRANCH  28  29
ENDBRANCH  21  23
ENDBRANCH  15  21
BRANCH   9  31
ATOM     31  C   UNL     1     -35.452  23.885   4.402  0.00  0.00    +0.218 C 
BRANCH  31  32
ATOM     32  O   UNL     1     -36.197  23.077   5.293  0.00  0.00    -0.434 OA
BRANCH  32  35
ATOM     33  O   UNL     1     -35.155  22.205   7.152  0.00  0.00    -0.227 OA
ATOM     34  N   UNL     1     -35.214  21.043   5.169  0.00  0.00    -0.295 N 
ATOM     35  C   UNL     1     -35.493  22.117   5.976  0.00  0.00    +0.398 C 
ATOM     36  H   UNL     1     -35.516  21.040   4.232  0.00  0.00    +0.148 HD
ATOM     37  H   UNL     1     -34.712  20.275   5.526  0.00  0.00    +0.148 HD
ENDBRANCH  32  35
ENDBRANCH  31  32
ENDBRANCH   9  31
TORSDOF 7
ENDMDL
MODEL 6
REMARK VINA RESULT:      -6.3      3.340      7.087
REMARK  Name = 51036
REMARK  7 active torsions:
REMARK  status: ('A' for Active; 'I' for Inactive)
REMARK    1  A    between atoms: C_6  and  O_19
REMARK    2  A    between atoms: C_9  and  C_31
REMARK    3  A    between atoms: C_15  and  N_21
REMARK    4  A    between atoms: N_21  and  C_23
REMARK    5  A    between atoms: C_28  and  O_29
REMARK    6  A    between atoms: C_31  and  O_32
REMARK    7  A    between atoms: O_32  and  C_35
REMARK                            x       y       z     vdW  Elec       q    Type
REMARK                         _______ _______ _______ _____ _____    ______ ____
ROOT
ATOM      1  O   UNL     1     -32.942  24.833   0.887  0.00  0.00    -0.286 OA
ATOM      2  O   UNL     1     -34.330  27.000   5.577  0.00  0.00    -0.286 OA
ATOM      3  N   UNL     1     -36.803  21.224   2.630  0.00  0.00    +0.388 N 
ATOM      4  N   UNL     1     -34.819  23.499   2.663  0.00  0.00    -0.290 N 
ATOM      5  C   UNL     1     -36.826  22.493   3.357  0.00  0.00    -0.036 C 
ATOM      6  C   UNL     1     -35.555  23.088   3.884  0.00  0.00    +0.141 C 
ATOM      7  C   UNL     1     -36.750  22.457   1.865  0.00  0.00    -0.057 C 
ATOM      8  C   UNL     1     -35.435  23.031   1.425  0.00  0.00    +0.070 C 
ATOM      9  C   UNL     1     -35.607  24.408   4.726  0.00  0.00    +0.111 C 
ATOM     10  C   UNL     1     -34.200  24.710   2.870  0.00  0.00    +0.088 C 
ATOM     11  C   UNL     1     -34.563  25.257   4.028  0.00  0.00    +0.042 C 
ATOM     12  C   UNL     1     -33.265  25.357   1.947  0.00  0.00    +0.206 C 
ATOM     13  C   UNL     1     -34.015  26.534   4.487  0.00  0.00    +0.206 C 
ATOM     14  C   UNL     1     -32.719  26.686   2.381  0.00  0.00    +0.035 C 
ATOM     15  C   UNL     1     -33.061  27.240   3.565  0.00  0.00    +0.087 C 
ATOM     16  C   UNL     1     -31.775  27.312   1.388  0.00  0.00    +0.036 C 
ATOM     17  H   UNL     1     -37.641  20.644   2.597  0.00  0.00    -0.084 HD
ATOM     18  H   UNL     1     -36.219  20.388   2.675  0.00  0.00    -0.084 HD
ENDROOT
BRANCH   6  19
ATOM     19  O   UNL     1     -34.812  22.102   4.600  0.00  0.00    -0.341 OA
ATOM     20  C   UNL     1     -35.194  22.060   5.966  0.00  0.00    +0.176 C 
ENDBRANCH   6  19
BRANCH  15  21
ATOM     21  N   UNL     1     -32.614  28.440   4.050  0.00  0.00    -0.310 N 
ATOM     22  H   UNL     1     -33.079  29.240   3.713  0.00  0.00    +0.152 HD
BRANCH  21  23
ATOM     23  C   UNL     1     -31.580  28.673   4.962  0.00  0.00    +0.049 C 
ATOM     24  C   UNL     1     -31.824  29.386   6.142  0.00  0.00    +0.018 C 
ATOM     25  C   UNL     1     -30.287  28.195   4.708  0.00  0.00    +0.018 C 
ATOM     26  C   UNL     1     -30.793  29.620   7.052  0.00  0.00    +0.038 C 
ATOM     27  C   UNL     1     -29.257  28.429   5.618  0.00  0.00    +0.038 C 
ATOM     28  C   UNL     1     -29.510  29.141   6.790  0.00  0.00    +0.134 C 
BRANCH  28  29
ATOM     29  O   UNL     1     -28.503  29.369   7.679  0.00  0.00    -0.506 OA
ATOM     30  H   UNL     1     -27.615  29.399   7.383  0.00  0.00    +0.292 HD
ENDBRANCH  28  29
ENDBRANCH  21  23
ENDBRANCH  15  21
BRANCH   9  31
ATOM     31  C   UNL     1     -36.957  25.123   4.729  0.00  0.00    +0.218 C 
BRANCH  31  32
ATOM     32  O   UNL     1     -37.139  25.743   3.470  0.00  0.00    -0.434 OA
BRANCH  32  35
ATOM     33  O   UNL     1     -38.798  26.625   2.138  0.00  0.00    -0.227 OA
ATOM     34  N   UNL     1     -39.276  25.057   3.750  0.00  0.00    -0.295 N 
ATOM     35  C   UNL     1     -38.435  25.875   3.039  0.00  0.00    +0.398 C 
ATOM     36  H   UNL     1     -38.917  24.479   4.462  0.00  0.00    +0.148 HD
ATOM     37  H   UNL     1     -40.240  25.046   3.549  0.00  0.00    +0.148 HD
ENDBRANCH  32  35
ENDBRANCH  31  32
ENDBRANCH   9  31
TORSDOF 7
ENDMDL
MODEL 7
REMARK VINA RESULT:      -6.2      3.615      5.696
REMARK  Name = 51036
REMARK  7 active torsions:
REMARK  status: ('A' for Active; 'I' for Inactive)
REMARK    1  A    between atoms: C_6  and  O_19
REMARK    2  A    between atoms: C_9  and  C_31
REMARK    3  A    between atoms: C_15  and  N_21
REMARK    4  A    between atoms: N_21  and  C_23
REMARK    5  A    between atoms: C_28  and  O_29
REMARK    6  A    between atoms: C_31  and  O_32
REMARK    7  A    between atoms: O_32  and  C_35
REMARK                            x       y       z     vdW  Elec       q    Type
REMARK                         _______ _______ _______ _____ _____    ______ ____
ROOT
ATOM      1  O   UNL     1     -33.584  26.690  -0.758  0.00  0.00    -0.286 OA
ATOM      2  O   UNL     1     -35.105  27.326   4.331  0.00  0.00    -0.286 OA
ATOM      3  N   UNL     1     -30.293  30.890   0.823  0.00  0.00    +0.388 N 
ATOM      4  N   UNL     1     -32.517  28.849   0.872  0.00  0.00    -0.290 N 
ATOM      5  C   UNL     1     -30.905  30.180   1.945  0.00  0.00    -0.036 C 
ATOM      6  C   UNL     1     -32.372  29.871   1.938  0.00  0.00    +0.141 C 
ATOM      7  C   UNL     1     -30.259  29.438   0.820  0.00  0.00    -0.057 C 
ATOM      8  C   UNL     1     -31.302  28.648   0.087  0.00  0.00    +0.070 C 
ATOM      9  C   UNL     1     -33.025  29.177   3.182  0.00  0.00    +0.111 C 
ATOM     10  C   UNL     1     -33.418  27.885   1.260  0.00  0.00    +0.088 C 
ATOM     11  C   UNL     1     -33.780  28.034   2.533  0.00  0.00    +0.042 C 
ATOM     12  C   UNL     1     -33.928  26.805   0.413  0.00  0.00    +0.206 C 
ATOM     13  C   UNL     1     -34.753  27.146   3.170  0.00  0.00    +0.206 C 
ATOM     14  C   UNL     1     -34.900  25.860   1.057  0.00  0.00    +0.035 C 
ATOM     15  C   UNL     1     -35.292  26.015   2.342  0.00  0.00    +0.087 C 
ATOM     16  C   UNL     1     -35.379  24.761   0.146  0.00  0.00    +0.036 C 
ATOM     17  H   UNL     1     -29.431  31.416   0.966  0.00  0.00    -0.084 HD
ATOM     18  H   UNL     1     -30.621  31.596   0.163  0.00  0.00    -0.084 HD
ENDROOT
BRANCH   6  19
ATOM     19  O   UNL     1     -33.118  31.041   1.606  0.00  0.00    -0.341 OA
ATOM     20  C   UNL     1     -33.481  31.769   2.769  0.00  0.00    +0.176 C 
ENDBRANCH   6  19
BRANCH  15  21
ATOM     21  N   UNL     1     -36.175  25.213   3.013  0.00  0.00    -0.310 N 
ATOM     22  H   UNL     1     -37.119  25.495   2.986  0.00  0.00    +0.152 HD
BRANCH  21  23
ATOM     23  C   UNL     1     -35.908  24.045   3.733  0.00  0.00    +0.049 C 
ATOM     24  C   UNL     1     -35.811  22.813   3.074  0.00  0.00    +0.018 C 
ATOM     25  C   UNL     1     -35.733  24.091   5.123  0.00  0.00    +0.018 C 
ATOM     26  C   UNL     1     -35.545  21.647   3.792  0.00  0.00    +0.038 C 
ATOM     27  C   UNL     1     -35.467  22.925   5.840  0.00  0.00    +0.038 C 
ATOM     28  C   UNL     1     -35.372  21.703   5.175  0.00  0.00    +0.134 C 
BRANCH  28  29
ATOM     29  O   UNL     1     -35.112  20.564   5.875  0.00  0.00    -0.506 OA
ATOM     30  H   UNL     1     -35.273  19.728   5.485  0.00  0.00    +0.292 HD
ENDBRANCH  28  29
ENDBRANCH  21  23
ENDBRANCH  15  21
BRANCH   9  31
ATOM     31  C   UNL     1     -32.039  28.643   4.219  0.00  0.00    +0.218 C 
BRANCH  31  32
ATOM     32  O   UNL     1     -32.453  29.082   5.499  0.00  0.00    -0.434 OA
BRANCH  32  35
ATOM     33  O   UNL     1     -32.094  27.147   6.694  0.00  0.00    -0.227 OA
ATOM     34  N   UNL     1     -31.380  29.183   7.488  0.00  0.00    -0.295 N 
ATOM     35  C   UNL     1     -31.985  28.363   6.570  0.00  0.00    +0.398 C 
ATOM     36  H   UNL     1     -31.329  30.152   7.324  0.00  0.00    +0.148 HD
ATOM     37  H   UNL     1     -30.997  28.803   8.311  0.00  0.00    +0.148 HD
ENDBRANCH  32  35
ENDBRANCH  31  32
ENDBRANCH   9  31
TORSDOF 7
ENDMDL
MODEL 8
REMARK VINA RESULT:      -6.1      8.292     12.131
REMARK  Name = 51036
REMARK  7 active torsions:
REMARK  status: ('A' for Active; 'I' for Inactive)
REMARK    1  A    between atoms: C_6  and  O_19
REMARK    2  A    between atoms: C_9  and  C_31
REMARK    3  A    between atoms: C_15  and  N_21
REMARK    4  A    between atoms: N_21  and  C_23
REMARK    5  A    between atoms: C_28  and  O_29
REMARK    6  A    between atoms: C_31  and  O_32
REMARK    7  A    between atoms: O_32  and  C_35
REMARK                            x       y       z     vdW  Elec       q    Type
REMARK                         _______ _______ _______ _____ _____    ______ ____
ROOT
ATOM      1  O   UNL     1     -46.753  26.209   4.734  0.00  0.00    -0.286 OA
ATOM      2  O   UNL     1     -42.389  29.097   3.624  0.00  0.00    -0.286 OA
ATOM      3  N   UNL     1     -47.528  30.625   8.030  0.00  0.00    +0.388 N 
ATOM      4  N   UNL     1     -46.176  28.673   6.166  0.00  0.00    -0.290 N 
ATOM      5  C   UNL     1     -46.518  30.845   6.996  0.00  0.00    -0.036 C 
ATOM      6  C   UNL     1     -45.447  29.825   6.753  0.00  0.00    +0.141 C 
ATOM      7  C   UNL     1     -47.841  30.231   6.668  0.00  0.00    -0.057 C 
ATOM      8  C   UNL     1     -47.628  28.818   6.211  0.00  0.00    +0.070 C 
ATOM      9  C   UNL     1     -44.329  30.111   5.693  0.00  0.00    +0.111 C 
ATOM     10  C   UNL     1     -45.433  28.109   5.156  0.00  0.00    +0.088 C 
ATOM     11  C   UNL     1     -44.359  28.840   4.867  0.00  0.00    +0.042 C 
ATOM     12  C   UNL     1     -45.759  26.869   4.449  0.00  0.00    +0.206 C 
ATOM     13  C   UNL     1     -43.395  28.431   3.845  0.00  0.00    +0.206 C 
ATOM     14  C   UNL     1     -44.804  26.449   3.371  0.00  0.00    +0.035 C 
ATOM     15  C   UNL     1     -43.697  27.171   3.085  0.00  0.00    +0.087 C 
ATOM     16  C   UNL     1     -45.197  25.176   2.668  0.00  0.00    +0.036 C 
ATOM     17  H   UNL     1     -48.007  31.423   8.448  0.00  0.00    -0.084 HD
ATOM     18  H   UNL     1     -47.533  30.144   8.930  0.00  0.00    -0.084 HD
ENDROOT
BRANCH   6  19
ATOM     19  O   UNL     1     -44.839  29.448   7.988  0.00  0.00    -0.341 OA
ATOM     20  C   UNL     1     -43.880  30.407   8.405  0.00  0.00    +0.176 C 
ENDBRANCH   6  19
BRANCH  15  21
ATOM     21  N   UNL     1     -42.766  26.868   2.128  0.00  0.00    -0.310 N 
ATOM     22  H   UNL     1     -42.821  27.391   1.295  0.00  0.00    +0.152 HD
BRANCH  21  23
ATOM     23  C   UNL     1     -41.748  25.912   2.183  0.00  0.00    +0.049 C 
ATOM     24  C   UNL     1     -40.795  25.950   3.210  0.00  0.00    +0.018 C 
ATOM     25  C   UNL     1     -41.666  24.904   1.214  0.00  0.00    +0.018 C 
ATOM     26  C   UNL     1     -39.779  24.997   3.265  0.00  0.00    +0.038 C 
ATOM     27  C   UNL     1     -40.649  23.951   1.269  0.00  0.00    +0.038 C 
ATOM     28  C   UNL     1     -39.706  23.997   2.295  0.00  0.00    +0.134 C 
BRANCH  28  29
ATOM     29  O   UNL     1     -38.713  23.067   2.350  0.00  0.00    -0.506 OA
ATOM     30  H   UNL     1     -38.926  22.161   2.459  0.00  0.00    +0.292 HD
ENDBRANCH  28  29
ENDBRANCH  21  23
ENDBRANCH  15  21
BRANCH   9  31
ATOM     31  C   UNL     1     -44.573  31.329   4.805  0.00  0.00    +0.218 C 
BRANCH  31  32
ATOM     32  O   UNL     1     -43.786  32.402   5.287  0.00  0.00    -0.434 OA
BRANCH  32  35
ATOM     33  O   UNL     1     -43.073  34.308   4.210  0.00  0.00    -0.227 OA
ATOM     34  N   UNL     1     -45.301  33.958   4.657  0.00  0.00    -0.295 N 
ATOM     35  C   UNL     1     -43.973  33.616   4.677  0.00  0.00    +0.398 C 
ATOM     36  H   UNL     1     -45.971  33.354   5.052  0.00  0.00    +0.148 HD
ATOM     37  H   UNL     1     -45.585  34.808   4.249  0.00  0.00    +0.148 HD
ENDBRANCH  32  35
ENDBRANCH  31  32
ENDBRANCH   9  31
TORSDOF 7
ENDMDL
MODEL 9
REMARK VINA RESULT:      -6.1      3.371      7.508
REMARK  Name = 51036
REMARK  7 active torsions:
REMARK  status: ('A' for Active; 'I' for Inactive)
REMARK    1  A    between atoms: C_6  and  O_19
REMARK    2  A    between atoms: C_9  and  C_31
REMARK    3  A    between atoms: C_15  and  N_21
REMARK    4  A    between atoms: N_21  and  C_23
REMARK    5  A    between atoms: C_28  and  O_29
REMARK    6  A    between atoms: C_31  and  O_32
REMARK    7  A    between atoms: O_32  and  C_35
REMARK                            x       y       z     vdW  Elec       q    Type
REMARK                         _______ _______ _______ _____ _____    ______ ____
ROOT
ATOM      1  O   UNL     1     -33.090  24.605   0.727  0.00  0.00    -0.286 OA
ATOM      2  O   UNL     1     -34.261  26.842   5.444  0.00  0.00    -0.286 OA
ATOM      3  N   UNL     1     -37.144  21.244   2.526  0.00  0.00    +0.388 N 
ATOM      4  N   UNL     1     -35.019  23.389   2.531  0.00  0.00    -0.290 N 
ATOM      5  C   UNL     1     -37.074  22.510   3.256  0.00  0.00    -0.036 C 
ATOM      6  C   UNL     1     -35.760  23.021   3.763  0.00  0.00    +0.141 C 
ATOM      7  C   UNL     1     -37.025  22.473   1.763  0.00  0.00    -0.057 C 
ATOM      8  C   UNL     1     -35.684  22.964   1.302  0.00  0.00    +0.070 C 
ATOM      9  C   UNL     1     -35.714  24.340   4.609  0.00  0.00    +0.111 C 
ATOM     10  C   UNL     1     -34.321  24.557   2.730  0.00  0.00    +0.088 C 
ATOM     11  C   UNL     1     -34.629  25.122   3.895  0.00  0.00    +0.042 C 
ATOM     12  C   UNL     1     -33.362  25.146   1.794  0.00  0.00    +0.206 C 
ATOM     13  C   UNL     1     -33.994  26.360   4.347  0.00  0.00    +0.206 C 
ATOM     14  C   UNL     1     -32.725  26.436   2.221  0.00  0.00    +0.035 C 
ATOM     15  C   UNL     1     -33.012  27.007   3.412  0.00  0.00    +0.087 C 
ATOM     16  C   UNL     1     -31.760  27.003   1.214  0.00  0.00    +0.036 C 
ATOM     17  H   UNL     1     -38.018  20.719   2.506  0.00  0.00    -0.084 HD
ATOM     18  H   UNL     1     -36.614  20.372   2.560  0.00  0.00    -0.084 HD
ENDROOT
BRANCH   6  19
ATOM     19  O   UNL     1     -35.069  21.988   4.465  0.00  0.00    -0.341 OA
ATOM     20  C   UNL     1     -35.339  22.040   5.857  0.00  0.00    +0.176 C 
ENDBRANCH   6  19
BRANCH  15  21
ATOM     21  N   UNL     1     -32.481  28.174   3.891  0.00  0.00    -0.310 N 
ATOM     22  H   UNL     1     -31.813  28.079   4.609  0.00  0.00    +0.152 HD
BRANCH  21  23
ATOM     23  C   UNL     1     -32.768  29.483   3.493  0.00  0.00    +0.049 C 
ATOM     24  C   UNL     1     -34.053  29.824   3.052  0.00  0.00    +0.018 C 
ATOM     25  C   UNL     1     -31.774  30.470   3.528  0.00  0.00    +0.018 C 
ATOM     26  C   UNL     1     -34.339  31.130   2.653  0.00  0.00    +0.038 C 
ATOM     27  C   UNL     1     -32.061  31.776   3.129  0.00  0.00    +0.038 C 
ATOM     28  C   UNL     1     -33.343  32.105   2.692  0.00  0.00    +0.134 C 
BRANCH  28  29
ATOM     29  O   UNL     1     -33.624  33.380   2.303  0.00  0.00    -0.506 OA
ATOM     30  H   UNL     1     -33.191  33.748   1.558  0.00  0.00    +0.292 HD
ENDBRANCH  28  29
ENDBRANCH  21  23
ENDBRANCH  15  21
BRANCH   9  31
ATOM     31  C   UNL     1     -37.015  25.138   4.636  0.00  0.00    +0.218 C 
BRANCH  31  32
ATOM     32  O   UNL     1     -37.208  25.725   3.362  0.00  0.00    -0.434 OA
BRANCH  32  35
ATOM     33  O   UNL     1     -38.866  26.671   2.074  0.00  0.00    -0.227 OA
ATOM     34  N   UNL     1     -39.363  25.132   3.708  0.00  0.00    -0.295 N 
ATOM     35  C   UNL     1     -38.509  25.910   2.968  0.00  0.00    +0.398 C 
ATOM     36  H   UNL     1     -39.007  24.543   4.412  0.00  0.00    +0.148 HD
ATOM     37  H   UNL     1     -40.332  25.161   3.535  0.00  0.00    +0.148 HD
ENDBRANCH  32  35
ENDBRANCH  31  32
ENDBRANCH   9  31
TORSDOF 7
ENDMDL
