MODEL 1
REMARK VINA RESULT:      -6.1      0.000      0.000
REMARK  Name = 5386671
REMARK  8 active torsions:
REMARK  status: ('A' for Active; 'I' for Inactive)
REMARK    1  A    between atoms: C_3  and  O_29
REMARK    2  A    between atoms: C_8  and  C_20
REMARK    3  A    between atoms: C_15  and  C_17
REMARK    4  A    between atoms: C_17  and  O_18
REMARK    5  A    between atoms: C_21  and  C_22
REMARK    6  A    between atoms: C_23  and  C_26
REMARK    7  A    between atoms: C_26  and  O_27
REMARK    8  A    between atoms: O_29  and  C_31
REMARK                            x       y       z     vdW  Elec       q    Type
REMARK                         _______ _______ _______ _____ _____    ______ ____
ROOT
ATOM      1  O   UNL     1     -36.496  22.489   3.189  0.00  0.00    -0.451 OA
ATOM      2  O   UNL     1     -35.928  22.919   5.328  0.00  0.00    -0.250 OA
ATOM      3  C   UNL     1     -36.064  25.217   2.621  0.00  0.00    +0.149 C 
ATOM      4  C   UNL     1     -36.678  24.798   3.976  0.00  0.00    +0.127 C 
ATOM      5  C   UNL     1     -37.026  24.442   1.687  0.00  0.00    +0.078 C 
ATOM      6  C   UNL     1     -38.220  24.836   3.750  0.00  0.00    +0.015 C 
ATOM      7  C   UNL     1     -38.398  24.854   2.235  0.00  0.00    +0.008 C 
ATOM      8  C   UNL     1     -36.769  22.906   1.812  0.00  0.00    +0.158 C 
ATOM      9  C   UNL     1     -36.060  26.748   2.429  0.00  0.00    +0.046 C 
ATOM     10  C   UNL     1     -36.329  25.711   5.172  0.00  0.00    +0.040 C 
ATOM     11  C   UNL     1     -36.315  23.335   4.240  0.00  0.00    +0.320 C 
ATOM     12  C   UNL     1     -34.840  27.466   3.046  0.00  0.00    +0.036 C 
ATOM     13  C   UNL     1     -37.946  22.048   1.331  0.00  0.00    +0.048 C 
ATOM     14  C   UNL     1     -34.909  26.180   5.266  0.00  0.00    -0.023 C 
ATOM     15  C   UNL     1     -34.308  26.977   4.368  0.00  0.00    +0.049 C 
ENDROOT
BRANCH  15  17
ATOM     16  O   UNL     1     -32.016  27.375   3.895  0.00  0.00    -0.245 OA
ATOM     17  C   UNL     1     -32.932  27.377   4.702  0.00  0.00    +0.337 C 
BRANCH  17  18
ATOM     18  O   UNL     1     -32.889  27.727   6.011  0.00  0.00    -0.442 OA
ATOM     19  C   UNL     1     -31.812  28.598   6.375  0.00  0.00    +0.256 C 
ENDBRANCH  17  18
ENDBRANCH  15  17
BRANCH   8  20
ATOM     20  C   UNL     1     -35.573  22.489   0.993  0.00  0.00    +0.013 C 
ATOM     21  C   UNL     1     -34.812  21.420   1.276  0.00  0.00    -0.001 C 
BRANCH  21  22
ATOM     22  C   UNL     1     -33.666  21.036   0.477  0.00  0.00    +0.002 C 
ATOM     23  C   UNL     1     -32.981  19.879   0.556  0.00  0.00    +0.054 C 
ATOM     24  C   UNL     1     -33.261  18.742   1.500  0.00  0.00    +0.038 C 
BRANCH  23  26
ATOM     25  O   UNL     1     -31.643  18.626  -0.992  0.00  0.00    -0.245 OA
ATOM     26  C   UNL     1     -31.807  19.648  -0.340  0.00  0.00    +0.334 C 
BRANCH  26  27
ATOM     27  O   UNL     1     -30.960  20.703  -0.384  0.00  0.00    -0.477 OA
ATOM     28  H   UNL     1     -31.293  21.565  -0.535  0.00  0.00    +0.295 HD
ENDBRANCH  26  27
ENDBRANCH  23  26
ENDBRANCH  21  22
ENDBRANCH   8  20
BRANCH   3  29
ATOM     29  O   UNL     1     -34.725  24.752   2.469  0.00  0.00    -0.455 OA
BRANCH  29  31
ATOM     30  O   UNL     1     -34.637  25.435   0.264  0.00  0.00    -0.250 OA
ATOM     31  C   UNL     1     -34.095  25.132   1.319  0.00  0.00    +0.317 C 
ATOM     32  C   UNL     1     -32.611  25.125   1.530  0.00  0.00    +0.121 C 
ENDBRANCH  29  31
ENDBRANCH   3  29
TORSDOF 8
ENDMDL
MODEL 2
REMARK VINA RESULT:      -6.0      1.938      6.934
REMARK  Name = 5386671
REMARK  8 active torsions:
REMARK  status: ('A' for Active; 'I' for Inactive)
REMARK    1  A    between atoms: C_3  and  O_29
REMARK    2  A    between atoms: C_8  and  C_20
REMARK    3  A    between atoms: C_15  and  C_17
REMARK    4  A    between atoms: C_17  and  O_18
REMARK    5  A    between atoms: C_21  and  C_22
REMARK    6  A    between atoms: C_23  and  C_26
REMARK    7  A    between atoms: C_26  and  O_27
REMARK    8  A    between atoms: O_29  and  C_31
REMARK                            x       y       z     vdW  Elec       q    Type
REMARK                         _______ _______ _______ _____ _____    ______ ____
ROOT
ATOM      1  O   UNL     1     -34.791  26.770   1.054  0.00  0.00    -0.451 OA
ATOM      2  O   UNL     1     -34.097  25.109  -0.304  0.00  0.00    -0.250 OA
ATOM      3  C   UNL     1     -36.621  24.951   2.192  0.00  0.00    +0.149 C 
ATOM      4  C   UNL     1     -36.312  24.891   0.678  0.00  0.00    +0.127 C 
ATOM      5  C   UNL     1     -36.963  26.458   2.294  0.00  0.00    +0.078 C 
ATOM      6  C   UNL     1     -37.390  25.796   0.010  0.00  0.00    +0.015 C 
ATOM      7  C   UNL     1     -37.968  26.632   1.148  0.00  0.00    +0.008 C 
ATOM      8  C   UNL     1     -35.671  27.313   2.090  0.00  0.00    +0.158 C 
ATOM      9  C   UNL     1     -37.763  23.993   2.594  0.00  0.00    +0.046 C 
ATOM     10  C   UNL     1     -36.381  23.485   0.043  0.00  0.00    +0.040 C 
ATOM     11  C   UNL     1     -34.964  25.570   0.433  0.00  0.00    +0.320 C 
ATOM     12  C   UNL     1     -37.310  22.546   2.885  0.00  0.00    +0.036 C 
ATOM     13  C   UNL     1     -35.956  28.766   1.690  0.00  0.00    +0.048 C 
ATOM     14  C   UNL     1     -35.780  22.362   0.833  0.00  0.00    -0.023 C 
ATOM     15  C   UNL     1     -36.230  21.942   2.026  0.00  0.00    +0.049 C 
ENDROOT
BRANCH  15  17
ATOM     16  O   UNL     1     -35.259  20.653   3.768  0.00  0.00    -0.245 OA
ATOM     17  C   UNL     1     -35.536  20.770   2.585  0.00  0.00    +0.337 C 
BRANCH  17  18
ATOM     18  O   UNL     1     -35.281  19.898   1.578  0.00  0.00    -0.442 OA
ATOM     19  C   UNL     1     -33.943  19.392   1.534  0.00  0.00    +0.256 C 
ENDBRANCH  17  18
ENDBRANCH  15  17
BRANCH   8  20
ATOM     20  C   UNL     1     -34.856  27.370   3.358  0.00  0.00    +0.013 C 
ATOM     21  C   UNL     1     -33.543  27.648   3.388  0.00  0.00    -0.001 C 
BRANCH  21  22
ATOM     22  C   UNL     1     -32.776  27.698   4.617  0.00  0.00    +0.002 C 
ATOM     23  C   UNL     1     -32.199  28.786   5.162  0.00  0.00    +0.054 C 
ATOM     24  C   UNL     1     -32.225  30.182   4.602  0.00  0.00    +0.038 C 
BRANCH  23  26
ATOM     25  O   UNL     1     -31.094  29.613   7.124  0.00  0.00    -0.245 OA
ATOM     26  C   UNL     1     -31.428  28.659   6.436  0.00  0.00    +0.334 C 
BRANCH  26  27
ATOM     27  O   UNL     1     -31.168  27.373   6.770  0.00  0.00    -0.477 OA
ATOM     28  H   UNL     1     -30.945  27.154   7.652  0.00  0.00    +0.295 HD
ENDBRANCH  26  27
ENDBRANCH  23  26
ENDBRANCH  21  22
ENDBRANCH   8  20
BRANCH   3  29
ATOM     29  O   UNL     1     -35.482  24.634   2.987  0.00  0.00    -0.455 OA
BRANCH  29  31
ATOM     30  O   UNL     1     -36.631  25.143   4.926  0.00  0.00    -0.250 OA
ATOM     31  C   UNL     1     -35.686  24.635   4.337  0.00  0.00    +0.317 C 
ATOM     32  C   UNL     1     -34.565  23.909   5.018  0.00  0.00    +0.121 C 
ENDBRANCH  29  31
ENDBRANCH   3  29
TORSDOF 8
ENDMDL
MODEL 3
REMARK VINA RESULT:      -5.8      2.981      6.332
REMARK  Name = 5386671
REMARK  8 active torsions:
REMARK  status: ('A' for Active; 'I' for Inactive)
REMARK    1  A    between atoms: C_3  and  O_29
REMARK    2  A    between atoms: C_8  and  C_20
REMARK    3  A    between atoms: C_15  and  C_17
REMARK    4  A    between atoms: C_17  and  O_18
REMARK    5  A    between atoms: C_21  and  C_22
REMARK    6  A    between atoms: C_23  and  C_26
REMARK    7  A    between atoms: C_26  and  O_27
REMARK    8  A    between atoms: O_29  and  C_31
REMARK                            x       y       z     vdW  Elec       q    Type
REMARK                         _______ _______ _______ _____ _____    ______ ____
ROOT
ATOM      1  O   UNL     1     -37.037  24.474   4.659  0.00  0.00    -0.451 OA
ATOM      2  O   UNL     1     -39.083  24.750   3.752  0.00  0.00    -0.250 OA
ATOM      3  C   UNL     1     -35.942  24.919   2.099  0.00  0.00    +0.149 C 
ATOM      4  C   UNL     1     -37.270  24.142   2.246  0.00  0.00    +0.127 C 
ATOM      5  C   UNL     1     -35.090  24.104   3.102  0.00  0.00    +0.078 C 
ATOM      6  C   UNL     1     -36.854  22.643   2.334  0.00  0.00    +0.015 C 
ATOM      7  C   UNL     1     -35.362  22.664   2.650  0.00  0.00    +0.008 C 
ATOM      8  C   UNL     1     -35.580  24.374   4.561  0.00  0.00    +0.158 C 
ATOM      9  C   UNL     1     -35.421  24.916   0.646  0.00  0.00    +0.046 C 
ATOM     10  C   UNL     1     -38.271  24.313   1.082  0.00  0.00    +0.040 C 
ATOM     11  C   UNL     1     -37.891  24.499   3.598  0.00  0.00    +0.320 C 
ATOM     12  C   UNL     1     -36.011  26.030  -0.247  0.00  0.00    +0.036 C 
ATOM     13  C   UNL     1     -35.158  23.289   5.559  0.00  0.00    +0.048 C 
ATOM     14  C   UNL     1     -38.432  25.699   0.534  0.00  0.00    -0.023 C 
ATOM     15  C   UNL     1     -37.463  26.395  -0.080  0.00  0.00    +0.049 C 
ENDROOT
BRANCH  15  17
ATOM     16  O   UNL     1     -38.068  27.922  -1.794  0.00  0.00    -0.245 OA
ATOM     17  C   UNL     1     -37.867  27.707  -0.609  0.00  0.00    +0.337 C 
BRANCH  17  18
ATOM     18  O   UNL     1     -37.966  28.579   0.425  0.00  0.00    -0.442 OA
ATOM     19  C   UNL     1     -37.567  29.921   0.131  0.00  0.00    +0.256 C 
ENDBRANCH  17  18
ENDBRANCH  15  17
BRANCH   8  20
ATOM     20  C   UNL     1     -35.025  25.676   5.085  0.00  0.00    +0.013 C 
ATOM     21  C   UNL     1     -33.778  25.817   5.559  0.00  0.00    -0.001 C 
BRANCH  21  22
ATOM     22  C   UNL     1     -33.263  27.077   6.059  0.00  0.00    +0.002 C 
ATOM     23  C   UNL     1     -32.388  27.892   5.440  0.00  0.00    +0.054 C 
ATOM     24  C   UNL     1     -31.754  27.659   4.096  0.00  0.00    +0.038 C 
BRANCH  23  26
ATOM     25  O   UNL     1     -32.369  30.263   5.802  0.00  0.00    -0.245 OA
ATOM     26  C   UNL     1     -31.949  29.156   6.106  0.00  0.00    +0.334 C 
BRANCH  26  27
ATOM     27  O   UNL     1     -31.064  28.944   7.108  0.00  0.00    -0.477 OA
ATOM     28  H   UNL     1     -31.208  29.330   7.949  0.00  0.00    +0.295 HD
ENDBRANCH  26  27
ENDBRANCH  23  26
ENDBRANCH  21  22
ENDBRANCH   8  20
BRANCH   3  29
ATOM     29  O   UNL     1     -36.061  26.276   2.519  0.00  0.00    -0.455 OA
BRANCH  29  31
ATOM     30  O   UNL     1     -33.844  26.656   1.997  0.00  0.00    -0.250 OA
ATOM     31  C   UNL     1     -34.950  27.049   2.341  0.00  0.00    +0.317 C 
ATOM     32  C   UNL     1     -35.280  28.482   2.632  0.00  0.00    +0.121 C 
ENDBRANCH  29  31
ENDBRANCH   3  29
TORSDOF 8
ENDMDL
MODEL 4
REMARK VINA RESULT:      -5.7      3.367      4.867
REMARK  Name = 5386671
REMARK  8 active torsions:
REMARK  status: ('A' for Active; 'I' for Inactive)
REMARK    1  A    between atoms: C_3  and  O_29
REMARK    2  A    between atoms: C_8  and  C_20
REMARK    3  A    between atoms: C_15  and  C_17
REMARK    4  A    between atoms: C_17  and  O_18
REMARK    5  A    between atoms: C_21  and  C_22
REMARK    6  A    between atoms: C_23  and  C_26
REMARK    7  A    between atoms: C_26  and  O_27
REMARK    8  A    between atoms: O_29  and  C_31
REMARK                            x       y       z     vdW  Elec       q    Type
REMARK                         _______ _______ _______ _____ _____    ______ ____
ROOT
ATOM      1  O   UNL     1     -39.828  22.160   0.692  0.00  0.00    -0.451 OA
ATOM      2  O   UNL     1     -40.318  23.330   2.556  0.00  0.00    -0.250 OA
ATOM      3  C   UNL     1     -37.201  23.171   0.856  0.00  0.00    +0.149 C 
ATOM      4  C   UNL     1     -38.399  24.065   1.252  0.00  0.00    +0.127 C 
ATOM      5  C   UNL     1     -37.703  22.724  -0.539  0.00  0.00    +0.078 C 
ATOM      6  C   UNL     1     -38.778  24.832  -0.050  0.00  0.00    +0.015 C 
ATOM      7  C   UNL     1     -38.095  24.063  -1.177  0.00  0.00    +0.008 C 
ATOM      8  C   UNL     1     -38.920  21.757  -0.383  0.00  0.00    +0.158 C 
ATOM      9  C   UNL     1     -35.868  23.949   0.853  0.00  0.00    +0.046 C 
ATOM     10  C   UNL     1     -38.118  25.092   2.370  0.00  0.00    +0.040 C 
ATOM     11  C   UNL     1     -39.587  23.160   1.584  0.00  0.00    +0.320 C 
ATOM     12  C   UNL     1     -35.173  24.031   2.230  0.00  0.00    +0.036 C 
ATOM     13  C   UNL     1     -39.779  21.647  -1.649  0.00  0.00    +0.048 C 
ATOM     14  C   UNL     1     -37.305  24.612   3.534  0.00  0.00    -0.023 C 
ATOM     15  C   UNL     1     -36.026  24.213   3.458  0.00  0.00    +0.049 C 
ENDROOT
BRANCH  15  17
ATOM     16  O   UNL     1     -34.383  24.385   5.164  0.00  0.00    -0.245 OA
ATOM     17  C   UNL     1     -35.399  23.857   4.742  0.00  0.00    +0.337 C 
BRANCH  17  18
ATOM     18  O   UNL     1     -36.136  22.880   5.327  0.00  0.00    -0.442 OA
ATOM     19  C   UNL     1     -35.457  22.124   6.333  0.00  0.00    +0.256 C 
ENDBRANCH  17  18
ENDBRANCH  15  17
BRANCH   8  20
ATOM     20  C   UNL     1     -38.461  20.358  -0.055  0.00  0.00    +0.013 C 
ATOM     21  C   UNL     1     -38.205  19.422  -0.981  0.00  0.00    -0.001 C 
BRANCH  21  22
ATOM     22  C   UNL     1     -37.765  18.082  -0.646  0.00  0.00    +0.002 C 
ATOM     23  C   UNL     1     -38.446  16.937  -0.846  0.00  0.00    +0.054 C 
ATOM     24  C   UNL     1     -39.815  16.811  -1.455  0.00  0.00    +0.038 C 
BRANCH  23  26
ATOM     25  O   UNL     1     -37.948  14.602  -1.077  0.00  0.00    -0.245 OA
ATOM     26  C   UNL     1     -37.847  15.633  -0.428  0.00  0.00    +0.334 C 
BRANCH  26  27
ATOM     27  O   UNL     1     -37.148  15.720   0.728  0.00  0.00    -0.477 OA
ATOM     28  H   UNL     1     -36.667  14.981   1.042  0.00  0.00    +0.295 HD
ENDBRANCH  26  27
ENDBRANCH  23  26
ENDBRANCH  21  22
ENDBRANCH   8  20
BRANCH   3  29
ATOM     29  O   UNL     1     -37.054  22.051   1.726  0.00  0.00    -0.455 OA
BRANCH  29  31
ATOM     30  O   UNL     1     -35.399  21.119   0.411  0.00  0.00    -0.250 OA
ATOM     31  C   UNL     1     -35.971  21.255   1.484  0.00  0.00    +0.317 C 
ATOM     32  C   UNL     1     -35.570  20.551   2.746  0.00  0.00    +0.121 C 
ENDBRANCH  29  31
ENDBRANCH   3  29
TORSDOF 8
ENDMDL
MODEL 5
REMARK VINA RESULT:      -5.6      2.879      4.498
REMARK  Name = 5386671
REMARK  8 active torsions:
REMARK  status: ('A' for Active; 'I' for Inactive)
REMARK    1  A    between atoms: C_3  and  O_29
REMARK    2  A    between atoms: C_8  and  C_20
REMARK    3  A    between atoms: C_15  and  C_17
REMARK    4  A    between atoms: C_17  and  O_18
REMARK    5  A    between atoms: C_21  and  C_22
REMARK    6  A    between atoms: C_23  and  C_26
REMARK    7  A    between atoms: C_26  and  O_27
REMARK    8  A    between atoms: O_29  and  C_31
REMARK                            x       y       z     vdW  Elec       q    Type
REMARK                         _______ _______ _______ _____ _____    ______ ____
ROOT
ATOM      1  O   UNL     1     -39.273  20.261   0.249  0.00  0.00    -0.451 OA
ATOM      2  O   UNL     1     -40.459  21.208   1.916  0.00  0.00    -0.250 OA
ATOM      3  C   UNL     1     -37.476  22.427   0.420  0.00  0.00    +0.149 C 
ATOM      4  C   UNL     1     -38.989  22.661   0.632  0.00  0.00    +0.127 C 
ATOM      5  C   UNL     1     -37.549  21.672  -0.930  0.00  0.00    +0.078 C 
ATOM      6  C   UNL     1     -39.542  23.030  -0.778  0.00  0.00    +0.015 C 
ATOM      7  C   UNL     1     -38.457  22.592  -1.756  0.00  0.00    +0.008 C 
ATOM      8  C   UNL     1     -38.171  20.255  -0.716  0.00  0.00    +0.158 C 
ATOM      9  C   UNL     1     -36.679  23.749   0.387  0.00  0.00    +0.046 C 
ATOM     10  C   UNL     1     -39.353  23.790   1.620  0.00  0.00    +0.040 C 
ATOM     11  C   UNL     1     -39.634  21.327   1.014  0.00  0.00    +0.320 C 
ATOM     12  C   UNL     1     -36.262  24.279   1.777  0.00  0.00    +0.036 C 
ATOM     13  C   UNL     1     -38.731  19.632  -2.000  0.00  0.00    +0.048 C 
ATOM     14  C   UNL     1     -38.543  23.868   2.879  0.00  0.00    -0.023 C 
ATOM     15  C   UNL     1     -37.228  24.132   2.924  0.00  0.00    +0.049 C 
ENDROOT
BRANCH  15  17
ATOM     16  O   UNL     1     -36.447  25.302   4.836  0.00  0.00    -0.245 OA
ATOM     17  C   UNL     1     -36.652  24.238   4.274  0.00  0.00    +0.337 C 
BRANCH  17  18
ATOM     18  O   UNL     1     -36.410  22.988   4.741  0.00  0.00    -0.442 OA
ATOM     19  C   UNL     1     -35.306  22.878   5.644  0.00  0.00    +0.256 C 
ENDBRANCH  17  18
ENDBRANCH  15  17
BRANCH   8  20
ATOM     20  C   UNL     1     -37.142  19.288  -0.184  0.00  0.00    +0.013 C 
ATOM     21  C   UNL     1     -36.445  18.443  -0.959  0.00  0.00    -0.001 C 
BRANCH  21  22
ATOM     22  C   UNL     1     -35.460  17.520  -0.429  0.00  0.00    +0.002 C 
ATOM     23  C   UNL     1     -34.124  17.688  -0.416  0.00  0.00    +0.054 C 
ATOM     24  C   UNL     1     -33.371  18.872  -0.958  0.00  0.00    +0.038 C 
BRANCH  23  26
ATOM     25  O   UNL     1     -32.230  16.857   0.799  0.00  0.00    -0.245 OA
ATOM     26  C   UNL     1     -33.247  16.624   0.161  0.00  0.00    +0.334 C 
BRANCH  26  27
ATOM     27  O   UNL     1     -33.714  15.374  -0.065  0.00  0.00    -0.477 OA
ATOM     28  H   UNL     1     -33.929  14.817   0.656  0.00  0.00    +0.295 HD
ENDBRANCH  26  27
ENDBRANCH  23  26
ENDBRANCH  21  22
ENDBRANCH   8  20
BRANCH   3  29
ATOM     29  O   UNL     1     -36.911  21.600   1.434  0.00  0.00    -0.455 OA
BRANCH  29  31
ATOM     30  O   UNL     1     -34.864  21.660   0.366  0.00  0.00    -0.250 OA
ATOM     31  C   UNL     1     -35.578  21.332   1.304  0.00  0.00    +0.317 C 
ATOM     32  C   UNL     1     -35.099  20.561   2.496  0.00  0.00    +0.121 C 
ENDBRANCH  29  31
ENDBRANCH   3  29
TORSDOF 8
ENDMDL
MODEL 6
REMARK VINA RESULT:      -5.5     11.833     15.547
REMARK  Name = 5386671
REMARK  8 active torsions:
REMARK  status: ('A' for Active; 'I' for Inactive)
REMARK    1  A    between atoms: C_3  and  O_29
REMARK    2  A    between atoms: C_8  and  C_20
REMARK    3  A    between atoms: C_15  and  C_17
REMARK    4  A    between atoms: C_17  and  O_18
REMARK    5  A    between atoms: C_21  and  C_22
REMARK    6  A    between atoms: C_23  and  C_26
REMARK    7  A    between atoms: C_26  and  O_27
REMARK    8  A    between atoms: O_29  and  C_31
REMARK                            x       y       z     vdW  Elec       q    Type
REMARK                         _______ _______ _______ _____ _____    ______ ____
ROOT
ATOM      1  O   UNL     1     -47.705  30.575   7.050  0.00  0.00    -0.451 OA
ATOM      2  O   UNL     1     -48.102  28.701   5.861  0.00  0.00    -0.250 OA
ATOM      3  C   UNL     1     -44.986  30.342   6.340  0.00  0.00    +0.149 C 
ATOM      4  C   UNL     1     -45.822  29.073   6.626  0.00  0.00    +0.127 C 
ATOM      5  C   UNL     1     -45.316  31.126   7.633  0.00  0.00    +0.078 C 
ATOM      6  C   UNL     1     -45.610  28.783   8.142  0.00  0.00    +0.015 C 
ATOM      7  C   UNL     1     -45.042  30.076   8.718  0.00  0.00    +0.008 C 
ATOM      8  C   UNL     1     -46.808  31.588   7.612  0.00  0.00    +0.158 C 
ATOM      9  C   UNL     1     -43.490  30.022   6.133  0.00  0.00    +0.046 C 
ATOM     10  C   UNL     1     -45.419  27.819   5.819  0.00  0.00    +0.040 C 
ATOM     11  C   UNL     1     -47.302  29.420   6.453  0.00  0.00    +0.320 C 
ATOM     12  C   UNL     1     -43.117  29.619   4.689  0.00  0.00    +0.036 C 
ATOM     13  C   UNL     1     -47.364  31.927   9.000  0.00  0.00    +0.048 C 
ATOM     14  C   UNL     1     -45.103  28.026   4.369  0.00  0.00    -0.023 C 
ATOM     15  C   UNL     1     -44.077  28.760   3.909  0.00  0.00    +0.049 C 
ENDROOT
BRANCH  15  17
ATOM     16  O   UNL     1     -44.490  27.989   1.702  0.00  0.00    -0.245 OA
ATOM     17  C   UNL     1     -43.909  28.761   2.447  0.00  0.00    +0.337 C 
BRANCH  17  18
ATOM     18  O   UNL     1     -43.028  29.737   2.114  0.00  0.00    -0.442 OA
ATOM     19  C   UNL     1     -43.337  30.454   0.915  0.00  0.00    +0.256 C 
ENDBRANCH  17  18
ENDBRANCH  15  17
BRANCH   8  20
ATOM     20  C   UNL     1     -46.979  32.826   6.768  0.00  0.00    +0.013 C 
ATOM     21  C   UNL     1     -47.901  33.771   7.009  0.00  0.00    -0.001 C 
BRANCH  21  22
ATOM     22  C   UNL     1     -48.050  34.955   6.186  0.00  0.00    +0.002 C 
ATOM     23  C   UNL     1     -48.489  36.164   6.587  0.00  0.00    +0.054 C 
ATOM     24  C   UNL     1     -48.925  36.536   7.977  0.00  0.00    +0.038 C 
BRANCH  23  26
ATOM     25  O   UNL     1     -48.541  38.463   5.905  0.00  0.00    -0.245 OA
ATOM     26  C   UNL     1     -48.595  37.281   5.599  0.00  0.00    +0.334 C 
BRANCH  26  27
ATOM     27  O   UNL     1     -48.720  36.847   4.323  0.00  0.00    -0.477 OA
ATOM     28  H   UNL     1     -48.572  37.437   3.611  0.00  0.00    +0.295 HD
ENDBRANCH  26  27
ENDBRANCH  23  26
ENDBRANCH  21  22
ENDBRANCH   8  20
BRANCH   3  29
ATOM     29  O   UNL     1     -45.449  31.043   5.189  0.00  0.00    -0.455 OA
BRANCH  29  31
ATOM     30  O   UNL     1     -43.804  32.639   5.481  0.00  0.00    -0.250 OA
ATOM     31  C   UNL     1     -44.733  32.155   4.848  0.00  0.00    +0.317 C 
ATOM     32  C   UNL     1     -45.255  32.718   3.561  0.00  0.00    +0.121 C 
ENDBRANCH  29  31
ENDBRANCH   3  29
TORSDOF 8
ENDMDL
MODEL 7
REMARK VINA RESULT:      -5.5      2.885      5.530
REMARK  Name = 5386671
REMARK  8 active torsions:
REMARK  status: ('A' for Active; 'I' for Inactive)
REMARK    1  A    between atoms: C_3  and  O_29
REMARK    2  A    between atoms: C_8  and  C_20
REMARK    3  A    between atoms: C_15  and  C_17
REMARK    4  A    between atoms: C_17  and  O_18
REMARK    5  A    between atoms: C_21  and  C_22
REMARK    6  A    between atoms: C_23  and  C_26
REMARK    7  A    between atoms: C_26  and  O_27
REMARK    8  A    between atoms: O_29  and  C_31
REMARK                            x       y       z     vdW  Elec       q    Type
REMARK                         _______ _______ _______ _____ _____    ______ ____
ROOT
ATOM      1  O   UNL     1     -35.925  29.566   2.243  0.00  0.00    -0.451 OA
ATOM      2  O   UNL     1     -35.420  31.184   3.730  0.00  0.00    -0.250 OA
ATOM      3  C   UNL     1     -33.278  28.629   2.500  0.00  0.00    +0.149 C 
ATOM      4  C   UNL     1     -33.567  30.147   2.541  0.00  0.00    +0.127 C 
ATOM      5  C   UNL     1     -34.025  28.290   1.187  0.00  0.00    +0.078 C 
ATOM      6  C   UNL     1     -33.418  30.626   1.065  0.00  0.00    +0.015 C 
ATOM      7  C   UNL     1     -33.473  29.352   0.227  0.00  0.00    +0.008 C 
ATOM      8  C   UNL     1     -35.567  28.423   1.401  0.00  0.00    +0.158 C 
ATOM      9  C   UNL     1     -31.765  28.322   2.489  0.00  0.00    +0.046 C 
ATOM     10  C   UNL     1     -32.618  30.979   3.431  0.00  0.00    +0.040 C 
ATOM     11  C   UNL     1     -35.037  30.349   2.915  0.00  0.00    +0.320 C 
ATOM     12  C   UNL     1     -31.114  28.268   3.888  0.00  0.00    +0.036 C 
ATOM     13  C   UNL     1     -36.353  28.591   0.095  0.00  0.00    +0.048 C 
ATOM     14  C   UNL     1     -32.260  30.391   4.763  0.00  0.00    -0.023 C 
ATOM     15  C   UNL     1     -31.568  29.254   4.933  0.00  0.00    +0.049 C 
ENDROOT
BRANCH  15  17
ATOM     16  O   UNL     1     -31.741  29.489   7.289  0.00  0.00    -0.245 OA
ATOM     17  C   UNL     1     -31.261  28.906   6.330  0.00  0.00    +0.337 C 
BRANCH  17  18
ATOM     18  O   UNL     1     -30.390  27.868   6.336  0.00  0.00    -0.442 OA
ATOM     19  C   UNL     1     -29.048  28.200   6.707  0.00  0.00    +0.256 C 
ENDBRANCH  17  18
ENDBRANCH  15  17
BRANCH   8  20
ATOM     20  C   UNL     1     -36.125  27.198   2.082  0.00  0.00    +0.013 C 
ATOM     21  C   UNL     1     -36.461  26.073   1.433  0.00  0.00    -0.001 C 
BRANCH  21  22
ATOM     22  C   UNL     1     -36.997  24.905   2.105  0.00  0.00    +0.002 C 
ATOM     23  C   UNL     1     -36.401  23.704   2.230  0.00  0.00    +0.054 C 
ATOM     24  C   UNL     1     -35.051  23.320   1.690  0.00  0.00    +0.038 C 
BRANCH  23  26
ATOM     25  O   UNL     1     -37.950  21.883   2.430  0.00  0.00    -0.245 OA
ATOM     26  C   UNL     1     -37.103  22.597   2.949  0.00  0.00    +0.334 C 
BRANCH  26  27
ATOM     27  O   UNL     1     -36.678  22.442   4.224  0.00  0.00    -0.477 OA
ATOM     28  H   UNL     1     -37.226  22.015   4.852  0.00  0.00    +0.295 HD
ENDBRANCH  26  27
ENDBRANCH  23  26
ENDBRANCH  21  22
ENDBRANCH   8  20
BRANCH   3  29
ATOM     29  O   UNL     1     -33.857  27.940   3.605  0.00  0.00    -0.455 OA
BRANCH  29  31
ATOM     30  O   UNL     1     -33.108  25.912   2.792  0.00  0.00    -0.250 OA
ATOM     31  C   UNL     1     -33.572  26.607   3.686  0.00  0.00    +0.317 C 
ATOM     32  C   UNL     1     -33.915  26.099   5.053  0.00  0.00    +0.121 C 
ENDBRANCH  29  31
ENDBRANCH   3  29
TORSDOF 8
ENDMDL
MODEL 8
REMARK VINA RESULT:      -5.4      2.399      4.790
REMARK  Name = 5386671
REMARK  8 active torsions:
REMARK  status: ('A' for Active; 'I' for Inactive)
REMARK    1  A    between atoms: C_3  and  O_29
REMARK    2  A    between atoms: C_8  and  C_20
REMARK    3  A    between atoms: C_15  and  C_17
REMARK    4  A    between atoms: C_17  and  O_18
REMARK    5  A    between atoms: C_21  and  C_22
REMARK    6  A    between atoms: C_23  and  C_26
REMARK    7  A    between atoms: C_26  and  O_27
REMARK    8  A    between atoms: O_29  and  C_31
REMARK                            x       y       z     vdW  Elec       q    Type
REMARK                         _______ _______ _______ _____ _____    ______ ____
ROOT
ATOM      1  O   UNL     1     -34.392  23.807   3.469  0.00  0.00    -0.451 OA
ATOM      2  O   UNL     1     -33.583  25.371   2.061  0.00  0.00    -0.250 OA
ATOM      3  C   UNL     1     -36.924  25.024   3.222  0.00  0.00    +0.149 C 
ATOM      4  C   UNL     1     -35.647  25.895   3.240  0.00  0.00    +0.127 C 
ATOM      5  C   UNL     1     -36.656  24.201   4.506  0.00  0.00    +0.078 C 
ATOM      6  C   UNL     1     -35.438  26.275   4.737  0.00  0.00    +0.015 C 
ATOM      7  C   UNL     1     -36.313  25.300   5.519  0.00  0.00    +0.008 C 
ATOM      8  C   UNL     1     -35.467  23.215   4.268  0.00  0.00    +0.158 C 
ATOM      9  C   UNL     1     -38.212  25.875   3.248  0.00  0.00    +0.046 C 
ATOM     10  C   UNL     1     -35.717  27.191   2.403  0.00  0.00    +0.040 C 
ATOM     11  C   UNL     1     -34.458  25.017   2.847  0.00  0.00    +0.320 C 
ATOM     12  C   UNL     1     -38.688  26.357   1.861  0.00  0.00    +0.036 C 
ATOM     13  C   UNL     1     -34.813  22.723   5.565  0.00  0.00    +0.048 C 
ATOM     14  C   UNL     1     -36.363  27.086   1.055  0.00  0.00    -0.023 C 
ATOM     15  C   UNL     1     -37.653  26.778   0.850  0.00  0.00    +0.049 C 
ENDROOT
BRANCH  15  17
ATOM     16  O   UNL     1     -39.241  26.587  -0.905  0.00  0.00    -0.245 OA
ATOM     17  C   UNL     1     -38.093  26.809  -0.555  0.00  0.00    +0.337 C 
BRANCH  17  18
ATOM     18  O   UNL     1     -37.027  27.115  -1.335  0.00  0.00    -0.442 OA
ATOM     19  C   UNL     1     -37.143  26.725  -2.707  0.00  0.00    +0.256 C 
ENDBRANCH  17  18
ENDBRANCH  15  17
BRANCH   8  20
ATOM     20  C   UNL     1     -35.925  21.985   3.526  0.00  0.00    +0.013 C 
ATOM     21  C   UNL     1     -35.192  21.364   2.589  0.00  0.00    -0.001 C 
BRANCH  21  22
ATOM     22  C   UNL     1     -35.650  20.182   1.885  0.00  0.00    +0.002 C 
ATOM     23  C   UNL     1     -35.526  19.931   0.568  0.00  0.00    +0.054 C 
ATOM     24  C   UNL     1     -34.891  20.833  -0.454  0.00  0.00    +0.038 C 
BRANCH  23  26
ATOM     25  O   UNL     1     -35.640  18.135  -1.019  0.00  0.00    -0.245 OA
ATOM     26  C   UNL     1     -36.069  18.659  -0.001  0.00  0.00    +0.334 C 
BRANCH  26  27
ATOM     27  O   UNL     1     -37.062  18.127   0.750  0.00  0.00    -0.477 OA
ATOM     28  H   UNL     1     -37.093  17.203   0.898  0.00  0.00    +0.295 HD
ENDBRANCH  26  27
ENDBRANCH  23  26
ENDBRANCH  21  22
ENDBRANCH   8  20
BRANCH   3  29
ATOM     29  O   UNL     1     -36.981  24.176   2.078  0.00  0.00    -0.455 OA
BRANCH  29  31
ATOM     30  O   UNL     1     -38.905  23.154   2.847  0.00  0.00    -0.250 OA
ATOM     31  C   UNL     1     -38.120  23.433   1.950  0.00  0.00    +0.317 C 
ATOM     32  C   UNL     1     -38.280  22.994   0.526  0.00  0.00    +0.121 C 
ENDBRANCH  29  31
ENDBRANCH   3  29
TORSDOF 8
ENDMDL
MODEL 9
REMARK VINA RESULT:      -5.4      2.497      5.653
REMARK  Name = 5386671
REMARK  8 active torsions:
REMARK  status: ('A' for Active; 'I' for Inactive)
REMARK    1  A    between atoms: C_3  and  O_29
REMARK    2  A    between atoms: C_8  and  C_20
REMARK    3  A    between atoms: C_15  and  C_17
REMARK    4  A    between atoms: C_17  and  O_18
REMARK    5  A    between atoms: C_21  and  C_22
REMARK    6  A    between atoms: C_23  and  C_26
REMARK    7  A    between atoms: C_26  and  O_27
REMARK    8  A    between atoms: O_29  and  C_31
REMARK                            x       y       z     vdW  Elec       q    Type
REMARK                         _______ _______ _______ _____ _____    ______ ____
ROOT
ATOM      1  O   UNL     1     -35.092  25.147   0.355  0.00  0.00    -0.451 OA
ATOM      2  O   UNL     1     -36.524  25.775  -1.268  0.00  0.00    -0.250 OA
ATOM      3  C   UNL     1     -37.200  25.440   2.204  0.00  0.00    +0.149 C 
ATOM      4  C   UNL     1     -37.076  26.417   1.013  0.00  0.00    +0.127 C 
ATOM      5  C   UNL     1     -35.757  25.563   2.750  0.00  0.00    +0.078 C 
ATOM      6  C   UNL     1     -36.230  27.609   1.554  0.00  0.00    +0.015 C 
ATOM      7  C   UNL     1     -35.579  27.085   2.831  0.00  0.00    +0.008 C 
ATOM      8  C   UNL     1     -34.752  24.896   1.757  0.00  0.00    +0.158 C 
ATOM      9  C   UNL     1     -38.311  25.860   3.191  0.00  0.00    +0.046 C 
ATOM     10  C   UNL     1     -38.411  26.966   0.464  0.00  0.00    +0.040 C 
ATOM     11  C   UNL     1     -36.235  25.748  -0.076  0.00  0.00    +0.320 C 
ATOM     12  C   UNL     1     -39.723  25.361   2.814  0.00  0.00    +0.036 C 
ATOM     13  C   UNL     1     -33.306  25.372   1.938  0.00  0.00    +0.048 C 
ATOM     14  C   UNL     1     -39.537  25.984   0.332  0.00  0.00    -0.023 C 
ATOM     15  C   UNL     1     -40.119  25.349   1.361  0.00  0.00    +0.049 C 
ENDROOT
BRANCH  15  17
ATOM     16  O   UNL     1     -41.176  23.276   0.891  0.00  0.00    -0.245 OA
ATOM     17  C   UNL     1     -41.259  24.488   1.006  0.00  0.00    +0.337 C 
BRANCH  17  18
ATOM     18  O   UNL     1     -42.355  25.269   0.843  0.00  0.00    -0.442 OA
ATOM     19  C   UNL     1     -43.532  24.583   0.403  0.00  0.00    +0.256 C 
ENDBRANCH  17  18
ENDBRANCH  15  17
BRANCH   8  20
ATOM     20  C   UNL     1     -34.734  23.397   1.932  0.00  0.00    +0.013 C 
ATOM     21  C   UNL     1     -34.473  22.535   0.938  0.00  0.00    -0.001 C 
BRANCH  21  22
ATOM     22  C   UNL     1     -34.461  21.097   1.125  0.00  0.00    +0.002 C 
ATOM     23  C   UNL     1     -33.498  20.242   0.731  0.00  0.00    +0.054 C 
ATOM     24  C   UNL     1     -32.231  20.602   0.004  0.00  0.00    +0.038 C 
BRANCH  23  26
ATOM     25  O   UNL     1     -32.776  18.086   1.496  0.00  0.00    -0.245 OA
ATOM     26  C   UNL     1     -33.650  18.778   0.994  0.00  0.00    +0.334 C 
BRANCH  26  27
ATOM     27  O   UNL     1     -34.872  18.305   0.653  0.00  0.00    -0.477 OA
ATOM     28  H   UNL     1     -35.328  18.670  -0.078  0.00  0.00    +0.295 HD
ENDBRANCH  26  27
ENDBRANCH  23  26
ENDBRANCH  21  22
ENDBRANCH   8  20
BRANCH   3  29
ATOM     29  O   UNL     1     -37.471  24.106   1.781  0.00  0.00    -0.455 OA
BRANCH  29  31
ATOM     30  O   UNL     1     -37.242  23.314   3.939  0.00  0.00    -0.250 OA
ATOM     31  C   UNL     1     -37.616  23.188   2.780  0.00  0.00    +0.317 C 
ATOM     32  C   UNL     1     -38.314  21.971   2.251  0.00  0.00    +0.121 C 
ENDBRANCH  29  31
ENDBRANCH   3  29
TORSDOF 8
ENDMDL
