MODEL 1
REMARK VINA RESULT:      -6.0      0.000      0.000
REMARK  Name = 57517924
REMARK  11 active torsions:
REMARK  status: ('A' for Active; 'I' for Inactive)
REMARK    1  A    between atoms: O_1  and  C_3
REMARK    2  A    between atoms: O_1  and  C_14
REMARK    3  A    between atoms: C_3  and  C_5
REMARK    4  A    between atoms: C_4  and  C_6
REMARK    5  A    between atoms: C_11  and  O_12
REMARK    6  A    between atoms: C_14  and  C_16
REMARK    7  A    between atoms: C_14  and  C_19
REMARK    8  A    between atoms: C_16  and  O_17
REMARK    9  A    between atoms: C_19  and  O_20
REMARK   10  A    between atoms: C_19  and  C_23
REMARK   11  A    between atoms: C_23  and  O_24
REMARK                            x       y       z     vdW  Elec       q    Type
REMARK                         _______ _______ _______ _____ _____    ______ ____
ROOT
ATOM      1  O   UNL     1     -36.753  22.430   3.638  0.00  0.00    -0.434 OA
ENDROOT
BRANCH   1   3
ATOM      2  O   UNL     1     -37.946  21.640   1.826  0.00  0.00    -0.245 OA
ATOM      3  C   UNL     1     -36.895  21.872   2.401  0.00  0.00    +0.342 C 
BRANCH   3   5
ATOM      4  C   UNL     1     -35.140  20.324   1.715  0.00  0.00    +0.007 C 
ATOM      5  C   UNL     1     -35.543  21.595   1.867  0.00  0.00    +0.082 C 
BRANCH   4   6
ATOM      6  C   UNL     1     -33.818  19.922   1.205  0.00  0.00    +0.000 C 
ATOM      7  C   UNL     1     -33.104  20.778   0.367  0.00  0.00    +0.003 C 
ATOM      8  C   UNL     1     -33.281  18.684   1.560  0.00  0.00    +0.003 C 
ATOM      9  C   UNL     1     -31.852  20.395  -0.118  0.00  0.00    +0.037 C 
ATOM     10  C   UNL     1     -32.031  18.302   1.075  0.00  0.00    +0.037 C 
ATOM     11  C   UNL     1     -31.316  19.157   0.237  0.00  0.00    +0.134 C 
BRANCH  11  12
ATOM     12  O   UNL     1     -30.096  18.784  -0.237  0.00  0.00    -0.506 OA
ATOM     13  H   UNL     1     -29.343  19.316  -0.063  0.00  0.00    +0.292 HD
ENDBRANCH  11  12
ENDBRANCH   4   6
ENDBRANCH   3   5
ENDBRANCH   1   3
BRANCH   1  14
ATOM     14  C   UNL     1     -35.771  23.453   3.747  0.00  0.00    +0.304 C 
BRANCH  14  16
ATOM     15  O   UNL     1     -36.068  25.822   3.269  0.00  0.00    -0.246 OA
ATOM     16  C   UNL     1     -36.493  24.790   3.772  0.00  0.00    +0.358 C 
BRANCH  16  17
ATOM     17  O   UNL     1     -37.670  24.727   4.446  0.00  0.00    -0.478 OA
ATOM     18  H   UNL     1     -37.671  24.647   5.380  0.00  0.00    +0.295 HD
ENDBRANCH  16  17
ENDBRANCH  14  16
BRANCH  14  19
ATOM     19  C   UNL     1     -34.931  23.182   4.995  0.00  0.00    +0.261 C 
BRANCH  19  20
ATOM     20  O   UNL     1     -34.882  24.358   5.786  0.00  0.00    -0.371 OA
ATOM     21  H   UNL     1     -34.830  25.135   5.208  0.00  0.00    +0.211 HD
ENDBRANCH  19  20
BRANCH  19  23
ATOM     22  O   UNL     1     -36.145  22.113   6.797  0.00  0.00    -0.247 OA
ATOM     23  C   UNL     1     -35.451  21.998   5.794  0.00  0.00    +0.345 C 
BRANCH  23  24
ATOM     24  O   UNL     1     -35.048  20.798   5.309  0.00  0.00    -0.478 OA
ATOM     25  H   UNL     1     -34.303  20.368   5.681  0.00  0.00    +0.295 HD
ENDBRANCH  23  24
ENDBRANCH  19  23
ENDBRANCH  14  19
ENDBRANCH   1  14
TORSDOF 11
ENDMDL
MODEL 2
REMARK VINA RESULT:      -5.8      1.778      3.218
REMARK  Name = 57517924
REMARK  11 active torsions:
REMARK  status: ('A' for Active; 'I' for Inactive)
REMARK    1  A    between atoms: O_1  and  C_3
REMARK    2  A    between atoms: O_1  and  C_14
REMARK    3  A    between atoms: C_3  and  C_5
REMARK    4  A    between atoms: C_4  and  C_6
REMARK    5  A    between atoms: C_11  and  O_12
REMARK    6  A    between atoms: C_14  and  C_16
REMARK    7  A    between atoms: C_14  and  C_19
REMARK    8  A    between atoms: C_16  and  O_17
REMARK    9  A    between atoms: C_19  and  O_20
REMARK   10  A    between atoms: C_19  and  C_23
REMARK   11  A    between atoms: C_23  and  O_24
REMARK                            x       y       z     vdW  Elec       q    Type
REMARK                         _______ _______ _______ _____ _____    ______ ____
ROOT
ATOM      1  O   UNL     1     -35.709  23.354   3.746  0.00  0.00    -0.434 OA
ENDROOT
BRANCH   1   3
ATOM      2  O   UNL     1     -37.981  23.486   3.359  0.00  0.00    -0.245 OA
ATOM      3  C   UNL     1     -36.885  22.987   3.161  0.00  0.00    +0.342 C 
BRANCH   3   5
ATOM      4  C   UNL     1     -35.518  21.107   2.426  0.00  0.00    +0.007 C 
ATOM      5  C   UNL     1     -36.604  21.870   2.233  0.00  0.00    +0.082 C 
BRANCH   4   6
ATOM      6  C   UNL     1     -35.127  19.976   1.566  0.00  0.00    +0.000 C 
ATOM      7  C   UNL     1     -36.037  19.448   0.651  0.00  0.00    +0.003 C 
ATOM      8  C   UNL     1     -33.846  19.432   1.670  0.00  0.00    +0.003 C 
ATOM      9  C   UNL     1     -35.667  18.375  -0.161  0.00  0.00    +0.037 C 
ATOM     10  C   UNL     1     -33.476  18.360   0.859  0.00  0.00    +0.037 C 
ATOM     11  C   UNL     1     -34.386  17.831  -0.057  0.00  0.00    +0.134 C 
BRANCH  11  12
ATOM     12  O   UNL     1     -34.026  16.784  -0.849  0.00  0.00    -0.506 OA
ATOM     13  H   UNL     1     -34.519  16.591  -1.622  0.00  0.00    +0.292 HD
ENDBRANCH  11  12
ENDBRANCH   4   6
ENDBRANCH   3   5
ENDBRANCH   1   3
BRANCH   1  14
ATOM     14  C   UNL     1     -35.769  23.629   5.140  0.00  0.00    +0.304 C 
BRANCH  14  16
ATOM     15  O   UNL     1     -34.179  21.917   5.824  0.00  0.00    -0.246 OA
ATOM     16  C   UNL     1     -35.309  22.385   5.880  0.00  0.00    +0.358 C 
BRANCH  16  17
ATOM     17  O   UNL     1     -36.307  21.817   6.605  0.00  0.00    -0.478 OA
ATOM     18  H   UNL     1     -36.435  20.889   6.580  0.00  0.00    +0.295 HD
ENDBRANCH  16  17
ENDBRANCH  14  16
BRANCH  14  19
ATOM     19  C   UNL     1     -34.916  24.866   5.424  0.00  0.00    +0.261 C 
BRANCH  19  20
ATOM     20  O   UNL     1     -33.636  24.691   4.841  0.00  0.00    -0.371 OA
ATOM     21  H   UNL     1     -33.642  25.042   3.937  0.00  0.00    +0.211 HD
ENDBRANCH  19  20
BRANCH  19  23
ATOM     22  O   UNL     1     -34.956  27.171   4.680  0.00  0.00    -0.247 OA
ATOM     23  C   UNL     1     -35.577  26.146   4.937  0.00  0.00    +0.345 C 
BRANCH  23  24
ATOM     24  O   UNL     1     -36.926  26.057   4.841  0.00  0.00    -0.478 OA
ATOM     25  H   UNL     1     -37.373  26.469   4.127  0.00  0.00    +0.295 HD
ENDBRANCH  23  24
ENDBRANCH  19  23
ENDBRANCH  14  19
ENDBRANCH   1  14
TORSDOF 11
ENDMDL
MODEL 3
REMARK VINA RESULT:      -5.7      1.995      3.539
REMARK  Name = 57517924
REMARK  11 active torsions:
REMARK  status: ('A' for Active; 'I' for Inactive)
REMARK    1  A    between atoms: O_1  and  C_3
REMARK    2  A    between atoms: O_1  and  C_14
REMARK    3  A    between atoms: C_3  and  C_5
REMARK    4  A    between atoms: C_4  and  C_6
REMARK    5  A    between atoms: C_11  and  O_12
REMARK    6  A    between atoms: C_14  and  C_16
REMARK    7  A    between atoms: C_14  and  C_19
REMARK    8  A    between atoms: C_16  and  O_17
REMARK    9  A    between atoms: C_19  and  O_20
REMARK   10  A    between atoms: C_19  and  C_23
REMARK   11  A    between atoms: C_23  and  O_24
REMARK                            x       y       z     vdW  Elec       q    Type
REMARK                         _______ _______ _______ _____ _____    ______ ____
ROOT
ATOM      1  O   UNL     1     -35.016  23.520   4.802  0.00  0.00    -0.434 OA
ENDROOT
BRANCH   1   3
ATOM      2  O   UNL     1     -35.853  22.203   6.503  0.00  0.00    -0.245 OA
ATOM      3  C   UNL     1     -35.404  22.346   5.378  0.00  0.00    +0.342 C 
BRANCH   3   5
ATOM      4  C   UNL     1     -35.590  21.431   3.125  0.00  0.00    +0.007 C 
ATOM      5  C   UNL     1     -35.189  21.262   4.394  0.00  0.00    +0.082 C 
BRANCH   4   6
ATOM      6  C   UNL     1     -35.441  20.424   2.059  0.00  0.00    +0.000 C 
ATOM      7  C   UNL     1     -36.543  20.058   1.287  0.00  0.00    +0.003 C 
ATOM      8  C   UNL     1     -34.198  19.836   1.826  0.00  0.00    +0.003 C 
ATOM      9  C   UNL     1     -36.402  19.102   0.280  0.00  0.00    +0.037 C 
ATOM     10  C   UNL     1     -34.058  18.881   0.819  0.00  0.00    +0.037 C 
ATOM     11  C   UNL     1     -35.159  18.514   0.046  0.00  0.00    +0.134 C 
BRANCH  11  12
ATOM     12  O   UNL     1     -35.022  17.582  -0.936  0.00  0.00    -0.506 OA
ATOM     13  H   UNL     1     -34.220  17.103  -1.019  0.00  0.00    +0.292 HD
ENDBRANCH  11  12
ENDBRANCH   4   6
ENDBRANCH   3   5
ENDBRANCH   1   3
BRANCH   1  14
ATOM     14  C   UNL     1     -35.241  24.693   5.574  0.00  0.00    +0.304 C 
BRANCH  14  16
ATOM     15  O   UNL     1     -33.779  26.571   6.089  0.00  0.00    -0.246 OA
ATOM     16  C   UNL     1     -34.056  25.621   5.367  0.00  0.00    +0.358 C 
BRANCH  16  17
ATOM     17  O   UNL     1     -33.334  25.297   4.264  0.00  0.00    -0.478 OA
ATOM     18  H   UNL     1     -33.165  25.944   3.608  0.00  0.00    +0.295 HD
ENDBRANCH  16  17
ENDBRANCH  14  16
BRANCH  14  19
ATOM     19  C   UNL     1     -36.580  25.299   5.149  0.00  0.00    +0.261 C 
BRANCH  19  20
ATOM     20  O   UNL     1     -36.483  26.712   5.192  0.00  0.00    -0.371 OA
ATOM     21  H   UNL     1     -37.069  27.056   5.885  0.00  0.00    +0.211 HD
ENDBRANCH  19  20
BRANCH  19  23
ATOM     22  O   UNL     1     -38.036  24.155   3.589  0.00  0.00    -0.247 OA
ATOM     23  C   UNL     1     -37.022  24.815   3.777  0.00  0.00    +0.345 C 
BRANCH  23  24
ATOM     24  O   UNL     1     -36.169  25.159   2.780  0.00  0.00    -0.478 OA
ATOM     25  H   UNL     1     -35.389  25.640   2.976  0.00  0.00    +0.295 HD
ENDBRANCH  23  24
ENDBRANCH  19  23
ENDBRANCH  14  19
ENDBRANCH   1  14
TORSDOF 11
ENDMDL
MODEL 4
REMARK VINA RESULT:      -5.7      1.996      3.568
REMARK  Name = 57517924
REMARK  11 active torsions:
REMARK  status: ('A' for Active; 'I' for Inactive)
REMARK    1  A    between atoms: O_1  and  C_3
REMARK    2  A    between atoms: O_1  and  C_14
REMARK    3  A    between atoms: C_3  and  C_5
REMARK    4  A    between atoms: C_4  and  C_6
REMARK    5  A    between atoms: C_11  and  O_12
REMARK    6  A    between atoms: C_14  and  C_16
REMARK    7  A    between atoms: C_14  and  C_19
REMARK    8  A    between atoms: C_16  and  O_17
REMARK    9  A    between atoms: C_19  and  O_20
REMARK   10  A    between atoms: C_19  and  C_23
REMARK   11  A    between atoms: C_23  and  O_24
REMARK                            x       y       z     vdW  Elec       q    Type
REMARK                         _______ _______ _______ _____ _____    ______ ____
ROOT
ATOM      1  O   UNL     1     -34.969  23.534   4.833  0.00  0.00    -0.434 OA
ENDROOT
BRANCH   1   3
ATOM      2  O   UNL     1     -35.831  22.228   6.531  0.00  0.00    -0.245 OA
ATOM      3  C   UNL     1     -35.376  22.365   5.407  0.00  0.00    +0.342 C 
BRANCH   3   5
ATOM      4  C   UNL     1     -35.574  21.451   3.155  0.00  0.00    +0.007 C 
ATOM      5  C   UNL     1     -35.174  21.278   4.423  0.00  0.00    +0.082 C 
BRANCH   4   6
ATOM      6  C   UNL     1     -35.437  20.442   2.090  0.00  0.00    +0.000 C 
ATOM      7  C   UNL     1     -34.199  19.849   1.846  0.00  0.00    +0.003 C 
ATOM      8  C   UNL     1     -36.547  20.082   1.324  0.00  0.00    +0.003 C 
ATOM      9  C   UNL     1     -34.070  18.895   0.835  0.00  0.00    +0.037 C 
ATOM     10  C   UNL     1     -36.417  19.129   0.314  0.00  0.00    +0.037 C 
ATOM     11  C   UNL     1     -35.179  18.536   0.070  0.00  0.00    +0.134 C 
BRANCH  11  12
ATOM     12  O   UNL     1     -35.052  17.606  -0.916  0.00  0.00    -0.506 OA
ATOM     13  H   UNL     1     -35.472  17.740  -1.744  0.00  0.00    +0.292 HD
ENDBRANCH  11  12
ENDBRANCH   4   6
ENDBRANCH   3   5
ENDBRANCH   1   3
BRANCH   1  14
ATOM     14  C   UNL     1     -35.208  24.713   5.591  0.00  0.00    +0.304 C 
BRANCH  14  16
ATOM     15  O   UNL     1     -33.745  26.590   6.103  0.00  0.00    -0.246 OA
ATOM     16  C   UNL     1     -34.034  25.653   5.371  0.00  0.00    +0.358 C 
BRANCH  16  17
ATOM     17  O   UNL     1     -33.341  25.356   4.242  0.00  0.00    -0.478 OA
ATOM     18  H   UNL     1     -32.459  25.045   4.303  0.00  0.00    +0.295 HD
ENDBRANCH  16  17
ENDBRANCH  14  16
BRANCH  14  19
ATOM     19  C   UNL     1     -36.554  25.296   5.162  0.00  0.00    +0.261 C 
BRANCH  19  20
ATOM     20  O   UNL     1     -36.482  26.711   5.203  0.00  0.00    -0.371 OA
ATOM     21  H   UNL     1     -37.172  27.053   5.793  0.00  0.00    +0.211 HD
ENDBRANCH  19  20
BRANCH  19  23
ATOM     22  O   UNL     1     -37.994  24.136   3.598  0.00  0.00    -0.247 OA
ATOM     23  C   UNL     1     -36.985  24.803   3.789  0.00  0.00    +0.345 C 
BRANCH  23  24
ATOM     24  O   UNL     1     -36.128  25.147   2.796  0.00  0.00    -0.478 OA
ATOM     25  H   UNL     1     -35.892  26.046   2.672  0.00  0.00    +0.295 HD
ENDBRANCH  23  24
ENDBRANCH  19  23
ENDBRANCH  14  19
ENDBRANCH   1  14
TORSDOF 11
ENDMDL
MODEL 5
REMARK VINA RESULT:      -5.7      3.320      6.796
REMARK  Name = 57517924
REMARK  11 active torsions:
REMARK  status: ('A' for Active; 'I' for Inactive)
REMARK    1  A    between atoms: O_1  and  C_3
REMARK    2  A    between atoms: O_1  and  C_14
REMARK    3  A    between atoms: C_3  and  C_5
REMARK    4  A    between atoms: C_4  and  C_6
REMARK    5  A    between atoms: C_11  and  O_12
REMARK    6  A    between atoms: C_14  and  C_16
REMARK    7  A    between atoms: C_14  and  C_19
REMARK    8  A    between atoms: C_16  and  O_17
REMARK    9  A    between atoms: C_19  and  O_20
REMARK   10  A    between atoms: C_19  and  C_23
REMARK   11  A    between atoms: C_23  and  O_24
REMARK                            x       y       z     vdW  Elec       q    Type
REMARK                         _______ _______ _______ _____ _____    ______ ____
ROOT
ATOM      1  O   UNL     1     -36.644  23.250   4.795  0.00  0.00    -0.434 OA
ENDROOT
BRANCH   1   3
ATOM      2  O   UNL     1     -35.374  22.239   6.437  0.00  0.00    -0.245 OA
ATOM      3  C   UNL     1     -35.544  23.099   5.588  0.00  0.00    +0.342 C 
BRANCH   3   5
ATOM      4  C   UNL     1     -34.589  25.316   5.929  0.00  0.00    +0.007 C 
ATOM      5  C   UNL     1     -34.580  24.166   5.239  0.00  0.00    +0.082 C 
BRANCH   4   6
ATOM      6  C   UNL     1     -33.687  26.453   5.670  0.00  0.00    +0.000 C 
ATOM      7  C   UNL     1     -32.937  27.000   6.710  0.00  0.00    +0.003 C 
ATOM      8  C   UNL     1     -33.587  26.984   4.383  0.00  0.00    +0.003 C 
ATOM      9  C   UNL     1     -32.086  28.078   6.465  0.00  0.00    +0.037 C 
ATOM     10  C   UNL     1     -32.737  28.061   4.138  0.00  0.00    +0.037 C 
ATOM     11  C   UNL     1     -31.986  28.609   5.178  0.00  0.00    +0.134 C 
BRANCH  11  12
ATOM     12  O   UNL     1     -31.156  29.661   4.939  0.00  0.00    -0.506 OA
ATOM     13  H   UNL     1     -30.256  29.508   4.729  0.00  0.00    +0.292 HD
ENDBRANCH  11  12
ENDBRANCH   4   6
ENDBRANCH   3   5
ENDBRANCH   1   3
BRANCH   1  14
ATOM     14  C   UNL     1     -36.388  23.419   3.406  0.00  0.00    +0.304 C 
BRANCH  14  16
ATOM     15  O   UNL     1     -35.361  21.458   2.391  0.00  0.00    -0.246 OA
ATOM     16  C   UNL     1     -36.371  22.041   2.766  0.00  0.00    +0.358 C 
BRANCH  16  17
ATOM     17  O   UNL     1     -37.618  21.523   2.625  0.00  0.00    -0.478 OA
ATOM     18  H   UNL     1     -37.941  20.905   3.251  0.00  0.00    +0.295 HD
ENDBRANCH  16  17
ENDBRANCH  14  16
BRANCH  14  19
ATOM     19  C   UNL     1     -37.452  24.353   2.831  0.00  0.00    +0.261 C 
BRANCH  19  20
ATOM     20  O   UNL     1     -38.715  24.010   3.375  0.00  0.00    -0.371 OA
ATOM     21  H   UNL     1     -39.089  23.264   2.880  0.00  0.00    +0.211 HD
ENDBRANCH  19  20
BRANCH  19  23
ATOM     22  O   UNL     1     -36.604  26.541   2.231  0.00  0.00    -0.247 OA
ATOM     23  C   UNL     1     -37.125  25.818   3.072  0.00  0.00    +0.345 C 
BRANCH  23  24
ATOM     24  O   UNL     1     -37.437  26.245   4.321  0.00  0.00    -0.478 OA
ATOM     25  H   UNL     1     -38.277  26.049   4.686  0.00  0.00    +0.295 HD
ENDBRANCH  23  24
ENDBRANCH  19  23
ENDBRANCH  14  19
ENDBRANCH   1  14
TORSDOF 11
ENDMDL
MODEL 6
REMARK VINA RESULT:      -5.6      1.706      2.158
REMARK  Name = 57517924
REMARK  11 active torsions:
REMARK  status: ('A' for Active; 'I' for Inactive)
REMARK    1  A    between atoms: O_1  and  C_3
REMARK    2  A    between atoms: O_1  and  C_14
REMARK    3  A    between atoms: C_3  and  C_5
REMARK    4  A    between atoms: C_4  and  C_6
REMARK    5  A    between atoms: C_11  and  O_12
REMARK    6  A    between atoms: C_14  and  C_16
REMARK    7  A    between atoms: C_14  and  C_19
REMARK    8  A    between atoms: C_16  and  O_17
REMARK    9  A    between atoms: C_19  and  O_20
REMARK   10  A    between atoms: C_19  and  C_23
REMARK   11  A    between atoms: C_23  and  O_24
REMARK                            x       y       z     vdW  Elec       q    Type
REMARK                         _______ _______ _______ _____ _____    ______ ____
ROOT
ATOM      1  O   UNL     1     -36.333  23.957   2.882  0.00  0.00    -0.434 OA
ENDROOT
BRANCH   1   3
ATOM      2  O   UNL     1     -36.342  23.982   0.573  0.00  0.00    -0.245 OA
ATOM      3  C   UNL     1     -35.986  23.510   1.641  0.00  0.00    +0.342 C 
BRANCH   3   5
ATOM      4  C   UNL     1     -34.489  21.812   0.735  0.00  0.00    +0.007 C 
ATOM      5  C   UNL     1     -35.091  22.344   1.809  0.00  0.00    +0.082 C 
BRANCH   4   6
ATOM      6  C   UNL     1     -33.587  20.647   0.773  0.00  0.00    +0.000 C 
ATOM      7  C   UNL     1     -32.364  20.690   0.104  0.00  0.00    +0.003 C 
ATOM      8  C   UNL     1     -33.958  19.501   1.476  0.00  0.00    +0.003 C 
ATOM      9  C   UNL     1     -31.511  19.585   0.139  0.00  0.00    +0.037 C 
ATOM     10  C   UNL     1     -33.106  18.397   1.510  0.00  0.00    +0.037 C 
ATOM     11  C   UNL     1     -31.883  18.439   0.842  0.00  0.00    +0.134 C 
BRANCH  11  12
ATOM     12  O   UNL     1     -31.051  17.362   0.874  0.00  0.00    -0.506 OA
ATOM     13  H   UNL     1     -31.179  16.654   0.273  0.00  0.00    +0.292 HD
ENDBRANCH  11  12
ENDBRANCH   4   6
ENDBRANCH   3   5
ENDBRANCH   1   3
BRANCH   1  14
ATOM     14  C   UNL     1     -36.514  25.362   3.007  0.00  0.00    +0.304 C 
BRANCH  14  16
ATOM     15  O   UNL     1     -38.624  26.503   2.592  0.00  0.00    -0.246 OA
ATOM     16  C   UNL     1     -38.001  25.626   3.175  0.00  0.00    +0.358 C 
BRANCH  16  17
ATOM     17  O   UNL     1     -38.574  24.788   4.076  0.00  0.00    -0.478 OA
ATOM     18  H   UNL     1     -39.498  24.632   4.048  0.00  0.00    +0.295 HD
ENDBRANCH  16  17
ENDBRANCH  14  16
BRANCH  14  19
ATOM     19  C   UNL     1     -35.664  25.854   4.179  0.00  0.00    +0.261 C 
BRANCH  19  20
ATOM     20  O   UNL     1     -36.461  26.672   5.018  0.00  0.00    -0.371 OA
ATOM     21  H   UNL     1     -37.345  26.283   5.105  0.00  0.00    +0.211 HD
ENDBRANCH  19  20
BRANCH  19  23
ATOM     22  O   UNL     1     -33.830  24.489   4.976  0.00  0.00    -0.247 OA
ATOM     23  C   UNL     1     -35.035  24.709   4.956  0.00  0.00    +0.345 C 
BRANCH  23  24
ATOM     24  O   UNL     1     -35.938  23.933   5.604  0.00  0.00    -0.478 OA
ATOM     25  H   UNL     1     -36.454  23.315   5.124  0.00  0.00    +0.295 HD
ENDBRANCH  23  24
ENDBRANCH  19  23
ENDBRANCH  14  19
ENDBRANCH   1  14
TORSDOF 11
ENDMDL
MODEL 7
REMARK VINA RESULT:      -5.6      1.425      2.132
REMARK  Name = 57517924
REMARK  11 active torsions:
REMARK  status: ('A' for Active; 'I' for Inactive)
REMARK    1  A    between atoms: O_1  and  C_3
REMARK    2  A    between atoms: O_1  and  C_14
REMARK    3  A    between atoms: C_3  and  C_5
REMARK    4  A    between atoms: C_4  and  C_6
REMARK    5  A    between atoms: C_11  and  O_12
REMARK    6  A    between atoms: C_14  and  C_16
REMARK    7  A    between atoms: C_14  and  C_19
REMARK    8  A    between atoms: C_16  and  O_17
REMARK    9  A    between atoms: C_19  and  O_20
REMARK   10  A    between atoms: C_19  and  C_23
REMARK   11  A    between atoms: C_23  and  O_24
REMARK                            x       y       z     vdW  Elec       q    Type
REMARK                         _______ _______ _______ _____ _____    ______ ____
ROOT
ATOM      1  O   UNL     1     -36.974  23.522   3.784  0.00  0.00    -0.434 OA
ENDROOT
BRANCH   1   3
ATOM      2  O   UNL     1     -38.140  22.158   2.331  0.00  0.00    -0.245 OA
ATOM      3  C   UNL     1     -37.098  22.580   2.805  0.00  0.00    +0.342 C 
BRANCH   3   5
ATOM      4  C   UNL     1     -35.585  21.073   1.627  0.00  0.00    +0.007 C 
ATOM      5  C   UNL     1     -35.737  22.153   2.408  0.00  0.00    +0.082 C 
BRANCH   4   6
ATOM      6  C   UNL     1     -34.286  20.545   1.175  0.00  0.00    +0.000 C 
ATOM      7  C   UNL     1     -33.852  19.293   1.611  0.00  0.00    +0.003 C 
ATOM      8  C   UNL     1     -33.489  21.298   0.312  0.00  0.00    +0.003 C 
ATOM      9  C   UNL     1     -32.620  18.794   1.184  0.00  0.00    +0.037 C 
ATOM     10  C   UNL     1     -32.259  20.799  -0.114  0.00  0.00    +0.037 C 
ATOM     11  C   UNL     1     -31.824  19.548   0.322  0.00  0.00    +0.134 C 
BRANCH  11  12
ATOM     12  O   UNL     1     -30.623  19.061  -0.094  0.00  0.00    -0.506 OA
ATOM     13  H   UNL     1     -29.865  19.158   0.450  0.00  0.00    +0.292 HD
ENDBRANCH  11  12
ENDBRANCH   4   6
ENDBRANCH   3   5
ENDBRANCH   1   3
BRANCH   1  14
ATOM     14  C   UNL     1     -36.810  24.862   3.338  0.00  0.00    +0.304 C 
BRANCH  14  16
ATOM     15  O   UNL     1     -38.446  26.498   2.580  0.00  0.00    -0.246 OA
ATOM     16  C   UNL     1     -38.190  25.485   3.219  0.00  0.00    +0.358 C 
BRANCH  16  17
ATOM     17  O   UNL     1     -39.125  24.805   3.929  0.00  0.00    -0.478 OA
ATOM     18  H   UNL     1     -39.286  23.900   3.746  0.00  0.00    +0.295 HD
ENDBRANCH  16  17
ENDBRANCH  14  16
BRANCH  14  19
ATOM     19  C   UNL     1     -35.888  25.587   4.320  0.00  0.00    +0.261 C 
BRANCH  19  20
ATOM     20  O   UNL     1     -36.677  26.259   5.286  0.00  0.00    -0.371 OA
ATOM     21  H   UNL     1     -37.610  26.023   5.164  0.00  0.00    +0.211 HD
ENDBRANCH  19  20
BRANCH  19  23
ATOM     22  O   UNL     1     -33.719  24.555   4.629  0.00  0.00    -0.247 OA
ATOM     23  C   UNL     1     -34.891  24.646   4.976  0.00  0.00    +0.345 C 
BRANCH  23  24
ATOM     24  O   UNL     1     -35.428  23.890   5.965  0.00  0.00    -0.478 OA
ATOM     25  H   UNL     1     -35.156  24.019   6.853  0.00  0.00    +0.295 HD
ENDBRANCH  23  24
ENDBRANCH  19  23
ENDBRANCH  14  19
ENDBRANCH   1  14
TORSDOF 11
ENDMDL
MODEL 8
REMARK VINA RESULT:      -5.6      2.172      3.426
REMARK  Name = 57517924
REMARK  11 active torsions:
REMARK  status: ('A' for Active; 'I' for Inactive)
REMARK    1  A    between atoms: O_1  and  C_3
REMARK    2  A    between atoms: O_1  and  C_14
REMARK    3  A    between atoms: C_3  and  C_5
REMARK    4  A    between atoms: C_4  and  C_6
REMARK    5  A    between atoms: C_11  and  O_12
REMARK    6  A    between atoms: C_14  and  C_16
REMARK    7  A    between atoms: C_14  and  C_19
REMARK    8  A    between atoms: C_16  and  O_17
REMARK    9  A    between atoms: C_19  and  O_20
REMARK   10  A    between atoms: C_19  and  C_23
REMARK   11  A    between atoms: C_23  and  O_24
REMARK                            x       y       z     vdW  Elec       q    Type
REMARK                         _______ _______ _______ _____ _____    ______ ____
ROOT
ATOM      1  O   UNL     1     -36.371  23.851   5.260  0.00  0.00    -0.434 OA
ENDROOT
BRANCH   1   3
ATOM      2  O   UNL     1     -34.744  22.391   6.003  0.00  0.00    -0.245 OA
ATOM      3  C   UNL     1     -35.516  22.794   5.148  0.00  0.00    +0.342 C 
BRANCH   3   5
ATOM      4  C   UNL     1     -35.236  20.970   3.555  0.00  0.00    +0.007 C 
ATOM      5  C   UNL     1     -35.685  22.210   3.799  0.00  0.00    +0.082 C 
BRANCH   4   6
ATOM      6  C   UNL     1     -35.337  20.285   2.253  0.00  0.00    +0.000 C 
ATOM      7  C   UNL     1     -36.562  20.221   1.592  0.00  0.00    +0.003 C 
ATOM      8  C   UNL     1     -34.205  19.700   1.685  0.00  0.00    +0.003 C 
ATOM      9  C   UNL     1     -36.657  19.571   0.361  0.00  0.00    +0.037 C 
ATOM     10  C   UNL     1     -34.300  19.050   0.454  0.00  0.00    +0.037 C 
ATOM     11  C   UNL     1     -35.526  18.985  -0.208  0.00  0.00    +0.134 C 
BRANCH  11  12
ATOM     12  O   UNL     1     -35.619  18.351  -1.408  0.00  0.00    -0.506 OA
ATOM     13  H   UNL     1     -35.336  18.784  -2.190  0.00  0.00    +0.292 HD
ENDBRANCH  11  12
ENDBRANCH   4   6
ENDBRANCH   3   5
ENDBRANCH   1   3
BRANCH   1  14
ATOM     14  C   UNL     1     -36.324  24.800   4.202  0.00  0.00    +0.304 C 
BRANCH  14  16
ATOM     15  O   UNL     1     -38.484  24.031   3.383  0.00  0.00    -0.246 OA
ATOM     16  C   UNL     1     -37.733  24.959   3.656  0.00  0.00    +0.358 C 
BRANCH  16  17
ATOM     17  O   UNL     1     -38.072  26.261   3.475  0.00  0.00    -0.478 OA
ATOM     18  H   UNL     1     -37.872  26.688   2.666  0.00  0.00    +0.295 HD
ENDBRANCH  16  17
ENDBRANCH  14  16
BRANCH  14  19
ATOM     19  C   UNL     1     -35.724  26.097   4.747  0.00  0.00    +0.261 C 
BRANCH  19  20
ATOM     20  O   UNL     1     -36.576  26.616   5.753  0.00  0.00    -0.371 OA
ATOM     21  H   UNL     1     -36.286  26.295   6.621  0.00  0.00    +0.211 HD
ENDBRANCH  19  20
BRANCH  19  23
ATOM     22  O   UNL     1     -33.858  26.497   6.238  0.00  0.00    -0.247 OA
ATOM     23  C   UNL     1     -34.308  25.904   5.265  0.00  0.00    +0.345 C 
BRANCH  23  24
ATOM     24  O   UNL     1     -33.576  25.032   4.529  0.00  0.00    -0.478 OA
ATOM     25  H   UNL     1     -32.749  24.727   4.850  0.00  0.00    +0.295 HD
ENDBRANCH  23  24
ENDBRANCH  19  23
ENDBRANCH  14  19
ENDBRANCH   1  14
TORSDOF 11
ENDMDL
MODEL 9
REMARK VINA RESULT:      -5.5      4.160      6.730
REMARK  Name = 57517924
REMARK  11 active torsions:
REMARK  status: ('A' for Active; 'I' for Inactive)
REMARK    1  A    between atoms: O_1  and  C_3
REMARK    2  A    between atoms: O_1  and  C_14
REMARK    3  A    between atoms: C_3  and  C_5
REMARK    4  A    between atoms: C_4  and  C_6
REMARK    5  A    between atoms: C_11  and  O_12
REMARK    6  A    between atoms: C_14  and  C_16
REMARK    7  A    between atoms: C_14  and  C_19
REMARK    8  A    between atoms: C_16  and  O_17
REMARK    9  A    between atoms: C_19  and  O_20
REMARK   10  A    between atoms: C_19  and  C_23
REMARK   11  A    between atoms: C_23  and  O_24
REMARK                            x       y       z     vdW  Elec       q    Type
REMARK                         _______ _______ _______ _____ _____    ______ ____
ROOT
ATOM      1  O   UNL     1     -34.191  28.597   3.673  0.00  0.00    -0.434 OA
ENDROOT
BRANCH   1   3
ATOM      2  O   UNL     1     -34.671  28.006   1.493  0.00  0.00    -0.245 OA
ATOM      3  C   UNL     1     -34.411  27.720   2.650  0.00  0.00    +0.342 C 
BRANCH   3   5
ATOM      4  C   UNL     1     -35.360  25.719   3.671  0.00  0.00    +0.007 C 
ATOM      5  C   UNL     1     -34.278  26.348   3.188  0.00  0.00    +0.082 C 
BRANCH   4   6
ATOM      6  C   UNL     1     -35.353  24.360   4.241  0.00  0.00    +0.000 C 
ATOM      7  C   UNL     1     -35.220  24.182   5.618  0.00  0.00    +0.003 C 
ATOM      8  C   UNL     1     -35.476  23.252   3.402  0.00  0.00    +0.003 C 
ATOM      9  C   UNL     1     -35.210  22.895   6.157  0.00  0.00    +0.037 C 
ATOM     10  C   UNL     1     -35.466  21.966   3.941  0.00  0.00    +0.037 C 
ATOM     11  C   UNL     1     -35.333  21.787   5.318  0.00  0.00    +0.134 C 
BRANCH  11  12
ATOM     12  O   UNL     1     -35.323  20.532   5.844  0.00  0.00    -0.506 OA
ATOM     13  H   UNL     1     -34.785  19.867   5.460  0.00  0.00    +0.292 HD
ENDBRANCH  11  12
ENDBRANCH   4   6
ENDBRANCH   3   5
ENDBRANCH   1   3
BRANCH   1  14
ATOM     14  C   UNL     1     -33.351  29.704   3.370  0.00  0.00    +0.304 C 
BRANCH  14  16
ATOM     15  O   UNL     1     -33.882  32.008   2.791  0.00  0.00    -0.246 OA
ATOM     16  C   UNL     1     -34.228  30.942   3.283  0.00  0.00    +0.358 C 
BRANCH  16  17
ATOM     17  O   UNL     1     -35.450  30.748   3.840  0.00  0.00    -0.478 OA
ATOM     18  H   UNL     1     -36.153  31.335   3.643  0.00  0.00    +0.295 HD
ENDBRANCH  16  17
ENDBRANCH  14  16
BRANCH  14  19
ATOM     19  C   UNL     1     -32.264  29.791   4.442  0.00  0.00    +0.261 C 
BRANCH  19  20
ATOM     20  O   UNL     1     -32.697  30.665   5.470  0.00  0.00    -0.371 OA
ATOM     21  H   UNL     1     -32.333  30.370   6.320  0.00  0.00    +0.211 HD
ENDBRANCH  19  20
BRANCH  19  23
ATOM     22  O   UNL     1     -31.008  27.722   4.518  0.00  0.00    -0.247 OA
ATOM     23  C   UNL     1     -31.890  28.426   4.996  0.00  0.00    +0.345 C 
BRANCH  23  24
ATOM     24  O   UNL     1     -32.646  28.044   6.055  0.00  0.00    -0.478 OA
ATOM     25  H   UNL     1     -32.242  27.644   6.799  0.00  0.00    +0.295 HD
ENDBRANCH  23  24
ENDBRANCH  19  23
ENDBRANCH  14  19
ENDBRANCH   1  14
TORSDOF 11
ENDMDL
