MODEL 1
REMARK VINA RESULT:      -6.6      0.000      0.000
REMARK  Name = 5478838
REMARK  12 active torsions:
REMARK  status: ('A' for Active; 'I' for Inactive)
REMARK    1  A    between atoms: C_1  and  C_4
REMARK    2  A    between atoms: C_1  and  C_12
REMARK    3  A    between atoms: C_1  and  C_23
REMARK    4  A    between atoms: N_3  and  CA_6
REMARK    5  A    between atoms: CA_6  and  C_9
REMARK    6  A    between atoms: C_9  and  O_10
REMARK    7  A    between atoms: C_12  and  P_13
REMARK    8  A    between atoms: P_13  and  O_15
REMARK    9  A    between atoms: P_13  and  C_17
REMARK   10  A    between atoms: C_17  and  N_19
REMARK   11  A    between atoms: C_23  and  C_24
REMARK   12  A    between atoms: C_29  and  C_30
REMARK                            x       y       z     vdW  Elec       q    Type
REMARK                         _______ _______ _______ _____ _____    ______ ____
ROOT
ATOM      1  C   UNL     1     -38.082  24.970   2.427  0.00  0.00    +0.090 C 
ENDROOT
BRANCH   1   4
ATOM      2  O   UNL     1     -38.959  27.001   1.420  0.00  0.00    -0.275 OA
ATOM      3  N   UNL     1     -40.420  25.608   2.557  0.00  0.00    -0.297 N 
ATOM      4  C   ACE A   0     -39.178  25.974   2.061  0.00  0.00    +0.223 C 
ATOM      5  H   UNL     1     -40.502  24.766   3.061  0.00  0.00    +0.150 HD
BRANCH   3   6
ATOM      6  CA  UNL     1     -41.596  26.421   2.360  0.00  0.00    +0.171 C 
ATOM      7  CB  UNL     1     -42.663  25.643   1.604  0.00  0.00    +0.033 C 
BRANCH   6   9
ATOM      8  OXT UNL     1     -43.294  26.707   4.056  0.00  0.00    -0.248 OA
ATOM      9  C   UNL     1     -42.151  26.937   3.676  0.00  0.00    +0.332 C 
BRANCH   9  10
ATOM     10  O   UNL     1     -41.287  27.689   4.399  0.00  0.00    -0.479 OA
ATOM     11  H   UNL     1     -41.511  28.569   4.631  0.00  0.00    +0.295 HD
ENDBRANCH   9  10
ENDBRANCH   6   9
ENDBRANCH   3   6
ENDBRANCH   1   4
BRANCH   1  12
ATOM     12  C   UNL     1     -37.846  25.015   3.941  0.00  0.00    +0.094 C 
BRANCH  12  13
ATOM     13  P   UNL     1     -36.248  25.710   4.428  0.00  0.00    +0.200 P 
ATOM     14  O   UNL     1     -35.548  26.406   3.312  0.00  0.00    -0.292 OA
BRANCH  13  15
ATOM     15  O   UNL     1     -36.686  26.684   5.640  0.00  0.00    -0.344 OA
ATOM     16  H   UNL     1     -36.352  26.328   6.478  0.00  0.00    +0.218 HD
ENDBRANCH  13  15
BRANCH  13  17
ATOM     17  C   UNL     1     -35.335  24.425   5.244  0.00  0.00    +0.015 C 
ATOM     18  C   UNL     1     -34.061  24.037   4.514  0.00  0.00    -0.014 C 
BRANCH  17  19
ATOM     19  N   UNL     1     -36.279  23.317   5.230  0.00  0.00    +0.388 N 
ATOM     20  H   UNL     1     -35.815  22.471   5.562  0.00  0.00    -0.089 HD
ATOM     21  H   UNL     1     -36.616  23.169   4.279  0.00  0.00    -0.089 HD
ATOM     22  H   UNL     1     -37.067  23.533   5.840  0.00  0.00    -0.089 HD
ENDBRANCH  17  19
ENDBRANCH  13  17
ENDBRANCH  12  13
ENDBRANCH   1  12
BRANCH   1  23
ATOM     23  C   UNL     1     -38.421  23.540   1.968  0.00  0.00    +0.036 C 
BRANCH  23  24
ATOM     24  C   UNL     1     -37.194  22.694   1.713  0.00  0.00    -0.022 C 
ATOM     25  C   UNL     1     -37.200  21.340   2.045  0.00  0.00    -0.004 C 
ATOM     26  C   UNL     1     -36.055  23.269   1.147  0.00  0.00    -0.004 C 
ATOM     27  C   UNL     1     -36.068  20.559   1.811  0.00  0.00    -0.000 C 
ATOM     28  C   UNL     1     -34.923  22.488   0.914  0.00  0.00    -0.000 C 
ATOM     29  C   UNL     1     -34.930  21.134   1.246  0.00  0.00    -0.000 C 
BRANCH  29  30
ATOM     30  C   UNL     1     -33.755  20.325   1.002  0.00  0.00    -0.000 C 
ATOM     31  C   UNL     1     -33.658  19.051   1.563  0.00  0.00    -0.000 C 
ATOM     32  C   UNL     1     -32.720  20.817   0.208  0.00  0.00    -0.000 C 
ATOM     33  C   UNL     1     -32.525  18.271   1.329  0.00  0.00    +0.000 C 
ATOM     34  C   UNL     1     -31.588  20.037  -0.028  0.00  0.00    +0.000 C 
ATOM     35  C   UNL     1     -31.490  18.764   0.533  0.00  0.00    +0.000 C 
ENDBRANCH  29  30
ENDBRANCH  23  24
ENDBRANCH   1  23
TORSDOF 12
ENDMDL
MODEL 2
REMARK VINA RESULT:      -6.6      0.853      1.541
REMARK  Name = 5478838
REMARK  12 active torsions:
REMARK  status: ('A' for Active; 'I' for Inactive)
REMARK    1  A    between atoms: C_1  and  C_4
REMARK    2  A    between atoms: C_1  and  C_12
REMARK    3  A    between atoms: C_1  and  C_23
REMARK    4  A    between atoms: N_3  and  CA_6
REMARK    5  A    between atoms: CA_6  and  C_9
REMARK    6  A    between atoms: C_9  and  O_10
REMARK    7  A    between atoms: C_12  and  P_13
REMARK    8  A    between atoms: P_13  and  O_15
REMARK    9  A    between atoms: P_13  and  C_17
REMARK   10  A    between atoms: C_17  and  N_19
REMARK   11  A    between atoms: C_23  and  C_24
REMARK   12  A    between atoms: C_29  and  C_30
REMARK                            x       y       z     vdW  Elec       q    Type
REMARK                         _______ _______ _______ _____ _____    ______ ____
ROOT
ATOM      1  C   UNL     1     -37.652  24.765   2.343  0.00  0.00    +0.090 C 
ENDROOT
BRANCH   1   4
ATOM      2  O   UNL     1     -38.564  26.943   1.764  0.00  0.00    -0.275 OA
ATOM      3  N   UNL     1     -40.032  25.186   2.116  0.00  0.00    -0.297 N 
ATOM      4  C   ACE A   0     -38.773  25.761   2.032  0.00  0.00    +0.223 C 
ATOM      5  H   UNL     1     -40.105  24.229   2.336  0.00  0.00    +0.150 HD
BRANCH   3   6
ATOM      6  CA  UNL     1     -41.239  25.944   1.892  0.00  0.00    +0.171 C 
ATOM      7  CB  UNL     1     -42.290  25.086   1.203  0.00  0.00    +0.033 C 
BRANCH   6   9
ATOM      8  OXT UNL     1     -42.990  26.541   3.449  0.00  0.00    -0.248 OA
ATOM      9  C   UNL     1     -41.792  26.518   3.185  0.00  0.00    +0.332 C 
BRANCH   9  10
ATOM     10  O   UNL     1     -40.857  27.020   4.027  0.00  0.00    -0.479 OA
ATOM     11  H   UNL     1     -40.867  26.784   4.934  0.00  0.00    +0.295 HD
ENDBRANCH   9  10
ENDBRANCH   6   9
ENDBRANCH   3   6
ENDBRANCH   1   4
BRANCH   1  12
ATOM     12  C   UNL     1     -37.327  24.828   3.840  0.00  0.00    +0.094 C 
BRANCH  12  13
ATOM     13  P   UNL     1     -35.937  25.908   4.257  0.00  0.00    +0.200 P 
ATOM     14  O   UNL     1     -35.561  26.833   3.151  0.00  0.00    -0.292 OA
BRANCH  13  15
ATOM     15  O   UNL     1     -36.502  26.652   5.575  0.00  0.00    -0.344 OA
ATOM     16  H   UNL     1     -35.808  27.215   5.951  0.00  0.00    +0.218 HD
ENDBRANCH  13  15
BRANCH  13  17
ATOM     17  C   UNL     1     -34.637  24.880   4.893  0.00  0.00    +0.015 C 
ATOM     18  C   UNL     1     -35.141  23.590   5.516  0.00  0.00    -0.014 C 
BRANCH  17  19
ATOM     19  N   UNL     1     -34.041  25.730   5.914  0.00  0.00    +0.388 N 
ATOM     20  H   UNL     1     -34.518  25.579   6.803  0.00  0.00    -0.089 HD
ATOM     21  H   UNL     1     -34.134  26.707   5.640  0.00  0.00    -0.089 HD
ATOM     22  H   UNL     1     -33.053  25.498   6.016  0.00  0.00    -0.089 HD
ENDBRANCH  17  19
ENDBRANCH  13  17
ENDBRANCH  12  13
ENDBRANCH   1  12
BRANCH   1  23
ATOM     23  C   UNL     1     -38.012  23.328   1.921  0.00  0.00    +0.036 C 
BRANCH  23  24
ATOM     24  C   UNL     1     -36.796  22.464   1.670  0.00  0.00    -0.022 C 
ATOM     25  C   UNL     1     -35.694  22.992   0.999  0.00  0.00    -0.004 C 
ATOM     26  C   UNL     1     -36.779  21.140   2.109  0.00  0.00    -0.004 C 
ATOM     27  C   UNL     1     -34.573  22.194   0.766  0.00  0.00    -0.000 C 
ATOM     28  C   UNL     1     -35.658  20.343   1.876  0.00  0.00    -0.000 C 
ATOM     29  C   UNL     1     -34.555  20.871   1.205  0.00  0.00    -0.000 C 
BRANCH  29  30
ATOM     30  C   UNL     1     -33.392  20.043   0.965  0.00  0.00    -0.000 C 
ATOM     31  C   UNL     1     -32.341  20.529   0.187  0.00  0.00    -0.000 C 
ATOM     32  C   UNL     1     -33.323  18.762   1.509  0.00  0.00    -0.000 C 
ATOM     33  C   UNL     1     -31.220  19.731  -0.045  0.00  0.00    +0.000 C 
ATOM     34  C   UNL     1     -32.202  17.964   1.278  0.00  0.00    +0.000 C 
ATOM     35  C   UNL     1     -31.151  18.449   0.501  0.00  0.00    +0.000 C 
ENDBRANCH  29  30
ENDBRANCH  23  24
ENDBRANCH   1  23
TORSDOF 12
ENDMDL
MODEL 3
REMARK VINA RESULT:      -6.5      3.038      5.519
REMARK  Name = 5478838
REMARK  12 active torsions:
REMARK  status: ('A' for Active; 'I' for Inactive)
REMARK    1  A    between atoms: C_1  and  C_4
REMARK    2  A    between atoms: C_1  and  C_12
REMARK    3  A    between atoms: C_1  and  C_23
REMARK    4  A    between atoms: N_3  and  CA_6
REMARK    5  A    between atoms: CA_6  and  C_9
REMARK    6  A    between atoms: C_9  and  O_10
REMARK    7  A    between atoms: C_12  and  P_13
REMARK    8  A    between atoms: P_13  and  O_15
REMARK    9  A    between atoms: P_13  and  C_17
REMARK   10  A    between atoms: C_17  and  N_19
REMARK   11  A    between atoms: C_23  and  C_24
REMARK   12  A    between atoms: C_29  and  C_30
REMARK                            x       y       z     vdW  Elec       q    Type
REMARK                         _______ _______ _______ _____ _____    ______ ____
ROOT
ATOM      1  C   UNL     1     -36.346  21.995   1.618  0.00  0.00    +0.090 C 
ENDROOT
BRANCH   1   4
ATOM      2  O   UNL     1     -37.889  23.108   3.130  0.00  0.00    -0.275 OA
ATOM      3  N   UNL     1     -35.797  22.511   3.925  0.00  0.00    -0.297 N 
ATOM      4  C   ACE A   0     -36.786  22.593   2.957  0.00  0.00    +0.223 C 
ATOM      5  H   UNL     1     -34.942  22.079   3.698  0.00  0.00    +0.150 HD
BRANCH   3   6
ATOM      6  CA  UNL     1     -35.980  23.039   5.256  0.00  0.00    +0.171 C 
ATOM      7  CB  UNL     1     -35.133  22.268   6.258  0.00  0.00    +0.033 C 
BRANCH   6   9
ATOM      8  OXT UNL     1     -34.537  24.953   5.565  0.00  0.00    -0.248 OA
ATOM      9  C   UNL     1     -35.659  24.522   5.324  0.00  0.00    +0.332 C 
BRANCH   9  10
ATOM     10  O   UNL     1     -36.717  25.340   5.109  0.00  0.00    -0.479 OA
ATOM     11  H   UNL     1     -36.741  25.887   4.349  0.00  0.00    +0.295 HD
ENDBRANCH   9  10
ENDBRANCH   6   9
ENDBRANCH   3   6
ENDBRANCH   1   4
BRANCH   1  12
ATOM     12  C   UNL     1     -37.321  22.444   0.523  0.00  0.00    +0.094 C 
BRANCH  12  13
ATOM     13  P   UNL     1     -38.480  21.165  -0.016  0.00  0.00    +0.200 P 
ATOM     14  O   UNL     1     -38.401  20.881  -1.477  0.00  0.00    -0.292 OA
BRANCH  13  15
ATOM     15  O   UNL     1     -38.037  19.926   0.921  0.00  0.00    -0.344 OA
ATOM     16  H   UNL     1     -38.774  19.301   1.000  0.00  0.00    +0.218 HD
ENDBRANCH  13  15
BRANCH  13  17
ATOM     17  C   UNL     1     -40.083  21.600   0.610  0.00  0.00    +0.015 C 
ATOM     18  C   UNL     1     -40.396  23.081   0.482  0.00  0.00    -0.014 C 
BRANCH  17  19
ATOM     19  N   UNL     1     -39.978  21.230   2.014  0.00  0.00    +0.388 N 
ATOM     20  H   UNL     1     -39.306  21.842   2.478  0.00  0.00    -0.089 HD
ATOM     21  H   UNL     1     -39.665  20.262   2.089  0.00  0.00    -0.089 HD
ATOM     22  H   UNL     1     -40.890  21.328   2.461  0.00  0.00    -0.089 HD
ENDBRANCH  17  19
ENDBRANCH  13  17
ENDBRANCH  12  13
ENDBRANCH   1  12
BRANCH   1  23
ATOM     23  C   UNL     1     -34.899  22.377   1.254  0.00  0.00    +0.036 C 
BRANCH  23  24
ATOM     24  C   UNL     1     -34.008  21.175   1.031  0.00  0.00    -0.022 C 
ATOM     25  C   UNL     1     -34.299  19.967   1.662  0.00  0.00    -0.004 C 
ATOM     26  C   UNL     1     -32.896  21.277   0.195  0.00  0.00    -0.004 C 
ATOM     27  C   UNL     1     -33.477  18.858   1.458  0.00  0.00    -0.000 C 
ATOM     28  C   UNL     1     -32.074  20.169  -0.009  0.00  0.00    -0.000 C 
ATOM     29  C   UNL     1     -32.365  18.960   0.622  0.00  0.00    -0.000 C 
BRANCH  29  30
ATOM     30  C   UNL     1     -31.512  17.810   0.409  0.00  0.00    -0.000 C 
ATOM     31  C   UNL     1     -32.057  16.615  -0.057  0.00  0.00    -0.000 C 
ATOM     32  C   UNL     1     -30.145  17.898   0.671  0.00  0.00    -0.000 C 
ATOM     33  C   UNL     1     -31.235  15.506  -0.262  0.00  0.00    +0.000 C 
ATOM     34  C   UNL     1     -29.322  16.790   0.465  0.00  0.00    +0.000 C 
ATOM     35  C   UNL     1     -29.867  15.594  -0.001  0.00  0.00    +0.000 C 
ENDBRANCH  29  30
ENDBRANCH  23  24
ENDBRANCH   1  23
TORSDOF 12
ENDMDL
MODEL 4
REMARK VINA RESULT:      -6.4      3.114      5.749
REMARK  Name = 5478838
REMARK  12 active torsions:
REMARK  status: ('A' for Active; 'I' for Inactive)
REMARK    1  A    between atoms: C_1  and  C_4
REMARK    2  A    between atoms: C_1  and  C_12
REMARK    3  A    between atoms: C_1  and  C_23
REMARK    4  A    between atoms: N_3  and  CA_6
REMARK    5  A    between atoms: CA_6  and  C_9
REMARK    6  A    between atoms: C_9  and  O_10
REMARK    7  A    between atoms: C_12  and  P_13
REMARK    8  A    between atoms: P_13  and  O_15
REMARK    9  A    between atoms: P_13  and  C_17
REMARK   10  A    between atoms: C_17  and  N_19
REMARK   11  A    between atoms: C_23  and  C_24
REMARK   12  A    between atoms: C_29  and  C_30
REMARK                            x       y       z     vdW  Elec       q    Type
REMARK                         _______ _______ _______ _____ _____    ______ ____
ROOT
ATOM      1  C   UNL     1     -36.271  21.977   1.587  0.00  0.00    +0.090 C 
ENDROOT
BRANCH   1   4
ATOM      2  O   UNL     1     -37.763  22.999   3.210  0.00  0.00    -0.275 OA
ATOM      3  N   UNL     1     -35.561  22.616   3.818  0.00  0.00    -0.297 N 
ATOM      4  C   ACE A   0     -36.638  22.578   2.946  0.00  0.00    +0.223 C 
ATOM      5  H   UNL     1     -34.694  22.255   3.521  0.00  0.00    +0.150 HD
BRANCH   3   6
ATOM      6  CA  UNL     1     -35.668  23.170   5.147  0.00  0.00    +0.171 C 
ATOM      7  CB  UNL     1     -35.084  22.211   6.174  0.00  0.00    +0.033 C 
BRANCH   6   9
ATOM      8  OXT UNL     1     -35.556  25.523   5.688  0.00  0.00    -0.248 OA
ATOM      9  C   UNL     1     -34.993  24.527   5.248  0.00  0.00    +0.332 C 
BRANCH   9  10
ATOM     10  O   UNL     1     -33.715  24.557   4.800  0.00  0.00    -0.479 OA
ATOM     11  H   UNL     1     -33.533  24.420   3.891  0.00  0.00    +0.295 HD
ENDBRANCH   9  10
ENDBRANCH   6   9
ENDBRANCH   3   6
ENDBRANCH   1   4
BRANCH   1  12
ATOM     12  C   UNL     1     -37.297  22.433   0.543  0.00  0.00    +0.094 C 
BRANCH  12  13
ATOM     13  P   UNL     1     -38.461  21.148   0.027  0.00  0.00    +0.200 P 
ATOM     14  O   UNL     1     -38.399  20.853  -1.432  0.00  0.00    -0.292 OA
BRANCH  13  15
ATOM     15  O   UNL     1     -38.005  19.917   0.968  0.00  0.00    -0.344 OA
ATOM     16  H   UNL     1     -38.004  20.202   1.895  0.00  0.00    +0.218 HD
ENDBRANCH  13  15
BRANCH  13  17
ATOM     17  C   UNL     1     -40.056  21.586   0.670  0.00  0.00    +0.015 C 
ATOM     18  C   UNL     1     -40.364  23.069   0.555  0.00  0.00    -0.014 C 
BRANCH  17  19
ATOM     19  N   UNL     1     -39.941  21.206   2.070  0.00  0.00    +0.388 N 
ATOM     20  H   UNL     1     -38.956  21.163   2.332  0.00  0.00    -0.089 HD
ATOM     21  H   UNL     1     -40.371  20.292   2.211  0.00  0.00    -0.089 HD
ATOM     22  H   UNL     1     -40.416  21.897   2.651  0.00  0.00    -0.089 HD
ENDBRANCH  17  19
ENDBRANCH  13  17
ENDBRANCH  12  13
ENDBRANCH   1  12
BRANCH   1  23
ATOM     23  C   UNL     1     -34.842  22.348   1.149  0.00  0.00    +0.036 C 
BRANCH  23  24
ATOM     24  C   UNL     1     -33.950  21.143   0.957  0.00  0.00    -0.022 C 
ATOM     25  C   UNL     1     -32.820  21.234   0.145  0.00  0.00    -0.004 C 
ATOM     26  C   UNL     1     -34.258  19.939   1.592  0.00  0.00    -0.004 C 
ATOM     27  C   UNL     1     -31.998  20.122  -0.033  0.00  0.00    -0.000 C 
ATOM     28  C   UNL     1     -33.435  18.827   1.414  0.00  0.00    -0.000 C 
ATOM     29  C   UNL     1     -32.305  18.918   0.601  0.00  0.00    -0.000 C 
BRANCH  29  30
ATOM     30  C   UNL     1     -31.452  17.764   0.417  0.00  0.00    -0.000 C 
ATOM     31  C   UNL     1     -30.097  17.840   0.739  0.00  0.00    -0.000 C 
ATOM     32  C   UNL     1     -31.984  16.576  -0.082  0.00  0.00    -0.000 C 
ATOM     33  C   UNL     1     -29.275  16.728   0.561  0.00  0.00    +0.000 C 
ATOM     34  C   UNL     1     -31.162  15.462  -0.259  0.00  0.00    +0.000 C 
ATOM     35  C   UNL     1     -29.807  15.539   0.062  0.00  0.00    +0.000 C 
ENDBRANCH  29  30
ENDBRANCH  23  24
ENDBRANCH   1  23
TORSDOF 12
ENDMDL
MODEL 5
REMARK VINA RESULT:      -6.3      3.869      6.276
REMARK  Name = 5478838
REMARK  12 active torsions:
REMARK  status: ('A' for Active; 'I' for Inactive)
REMARK    1  A    between atoms: C_1  and  C_4
REMARK    2  A    between atoms: C_1  and  C_12
REMARK    3  A    between atoms: C_1  and  C_23
REMARK    4  A    between atoms: N_3  and  CA_6
REMARK    5  A    between atoms: CA_6  and  C_9
REMARK    6  A    between atoms: C_9  and  O_10
REMARK    7  A    between atoms: C_12  and  P_13
REMARK    8  A    between atoms: P_13  and  O_15
REMARK    9  A    between atoms: P_13  and  C_17
REMARK   10  A    between atoms: C_17  and  N_19
REMARK   11  A    between atoms: C_23  and  C_24
REMARK   12  A    between atoms: C_29  and  C_30
REMARK                            x       y       z     vdW  Elec       q    Type
REMARK                         _______ _______ _______ _____ _____    ______ ____
ROOT
ATOM      1  C   UNL     1     -36.002  21.046   1.298  0.00  0.00    +0.090 C 
ENDROOT
BRANCH   1   4
ATOM      2  O   UNL     1     -37.687  22.155   2.656  0.00  0.00    -0.275 OA
ATOM      3  N   UNL     1     -35.618  21.712   3.600  0.00  0.00    -0.297 N 
ATOM      4  C   ACE A   0     -36.551  21.690   2.574  0.00  0.00    +0.223 C 
ATOM      5  H   UNL     1     -34.730  21.315   3.446  0.00  0.00    +0.150 HD
BRANCH   3   6
ATOM      6  CA  UNL     1     -35.906  22.299   4.887  0.00  0.00    +0.171 C 
ATOM      7  CB  UNL     1     -35.007  21.703   5.960  0.00  0.00    +0.033 C 
BRANCH   6   9
ATOM      8  OXT UNL     1     -34.698  24.387   5.037  0.00  0.00    -0.248 OA
ATOM      9  C   UNL     1     -35.766  23.811   4.861  0.00  0.00    +0.332 C 
BRANCH   9  10
ATOM     10  O   UNL     1     -36.921  24.483   4.641  0.00  0.00    -0.479 OA
ATOM     11  H   UNL     1     -37.024  25.358   4.962  0.00  0.00    +0.295 HD
ENDBRANCH   9  10
ENDBRANCH   6   9
ENDBRANCH   3   6
ENDBRANCH   1   4
BRANCH   1  12
ATOM     12  C   UNL     1     -37.005  21.261   0.158  0.00  0.00    +0.094 C 
BRANCH  12  13
ATOM     13  P   UNL     1     -37.638  19.734  -0.578  0.00  0.00    +0.200 P 
ATOM     14  O   UNL     1     -39.083  19.504  -0.296  0.00  0.00    -0.292 OA
BRANCH  13  15
ATOM     15  O   UNL     1     -37.301  19.975  -2.139  0.00  0.00    -0.344 OA
ATOM     16  H   UNL     1     -37.720  19.282  -2.671  0.00  0.00    +0.218 HD
ENDBRANCH  13  15
BRANCH  13  17
ATOM     17  C   UNL     1     -36.533  18.424  -0.118  0.00  0.00    +0.015 C 
ATOM     18  C   UNL     1     -35.680  17.925  -1.271  0.00  0.00    -0.014 C 
BRANCH  17  19
ATOM     19  N   UNL     1     -37.452  17.380   0.313  0.00  0.00    +0.388 N 
ATOM     20  H   UNL     1     -38.084  17.146  -0.453  0.00  0.00    -0.089 HD
ATOM     21  H   UNL     1     -37.993  17.711   1.111  0.00  0.00    -0.089 HD
ATOM     22  H   UNL     1     -36.923  16.551   0.582  0.00  0.00    -0.089 HD
ENDBRANCH  17  19
ENDBRANCH  13  17
ENDBRANCH  12  13
ENDBRANCH   1  12
BRANCH   1  23
ATOM     23  C   UNL     1     -34.614  21.592   0.917  0.00  0.00    +0.036 C 
BRANCH  23  24
ATOM     24  C   UNL     1     -33.562  20.511   0.812  0.00  0.00    -0.022 C 
ATOM     25  C   UNL     1     -33.710  19.324   1.527  0.00  0.00    -0.004 C 
ATOM     26  C   UNL     1     -32.444  20.703  -0.001  0.00  0.00    -0.004 C 
ATOM     27  C   UNL     1     -32.739  18.327   1.430  0.00  0.00    -0.000 C 
ATOM     28  C   UNL     1     -31.473  19.706  -0.097  0.00  0.00    -0.000 C 
ATOM     29  C   UNL     1     -31.621  18.518   0.618  0.00  0.00    -0.000 C 
BRANCH  29  30
ATOM     30  C   UNL     1     -30.614  17.484   0.518  0.00  0.00    -0.000 C 
ATOM     31  C   UNL     1     -30.909  16.284  -0.129  0.00  0.00    -0.000 C 
ATOM     32  C   UNL     1     -29.348  17.686   1.067  0.00  0.00    -0.000 C 
ATOM     33  C   UNL     1     -29.938  15.287  -0.226  0.00  0.00    +0.000 C 
ATOM     34  C   UNL     1     -28.377  16.690   0.969  0.00  0.00    +0.000 C 
ATOM     35  C   UNL     1     -28.672  15.490   0.323  0.00  0.00    +0.000 C 
ENDBRANCH  29  30
ENDBRANCH  23  24
ENDBRANCH   1  23
TORSDOF 12
ENDMDL
MODEL 6
REMARK VINA RESULT:      -6.3      1.678      2.299
REMARK  Name = 5478838
REMARK  12 active torsions:
REMARK  status: ('A' for Active; 'I' for Inactive)
REMARK    1  A    between atoms: C_1  and  C_4
REMARK    2  A    between atoms: C_1  and  C_12
REMARK    3  A    between atoms: C_1  and  C_23
REMARK    4  A    between atoms: N_3  and  CA_6
REMARK    5  A    between atoms: CA_6  and  C_9
REMARK    6  A    between atoms: C_9  and  O_10
REMARK    7  A    between atoms: C_12  and  P_13
REMARK    8  A    between atoms: P_13  and  O_15
REMARK    9  A    between atoms: P_13  and  C_17
REMARK   10  A    between atoms: C_17  and  N_19
REMARK   11  A    between atoms: C_23  and  C_24
REMARK   12  A    between atoms: C_29  and  C_30
REMARK                            x       y       z     vdW  Elec       q    Type
REMARK                         _______ _______ _______ _____ _____    ______ ____
ROOT
ATOM      1  C   UNL     1     -38.564  23.556   2.108  0.00  0.00    +0.090 C 
ENDROOT
BRANCH   1   4
ATOM      2  O   UNL     1     -40.836  23.458   1.250  0.00  0.00    -0.275 OA
ATOM      3  N   UNL     1     -40.190  25.324   2.461  0.00  0.00    -0.297 N 
ATOM      4  C   ACE A   0     -39.987  24.077   1.889  0.00  0.00    +0.223 C 
ATOM      5  H   UNL     1     -39.451  25.747   2.956  0.00  0.00    +0.150 HD
BRANCH   3   6
ATOM      6  CA  UNL     1     -41.448  26.022   2.354  0.00  0.00    +0.171 C 
ATOM      7  CB  UNL     1     -41.759  26.765   3.645  0.00  0.00    +0.033 C 
BRANCH   6   9
ATOM      8  OXT UNL     1     -40.507  27.693   0.883  0.00  0.00    -0.248 OA
ATOM      9  C   UNL     1     -41.462  26.982   1.177  0.00  0.00    +0.332 C 
BRANCH   9  10
ATOM     10  O   UNL     1     -42.622  27.004   0.478  0.00  0.00    -0.479 OA
ATOM     11  H   UNL     1     -42.995  26.204   0.163  0.00  0.00    +0.295 HD
ENDBRANCH   9  10
ENDBRANCH   6   9
ENDBRANCH   3   6
ENDBRANCH   1   4
BRANCH   1  12
ATOM     12  C   UNL     1     -37.976  24.217   3.361  0.00  0.00    +0.094 C 
BRANCH  12  13
ATOM     13  P   UNL     1     -36.606  25.352   3.034  0.00  0.00    +0.200 P 
ATOM     14  O   UNL     1     -35.806  24.973   1.835  0.00  0.00    -0.292 OA
BRANCH  13  15
ATOM     15  O   UNL     1     -37.390  26.756   2.886  0.00  0.00    -0.344 OA
ATOM     16  H   UNL     1     -38.041  26.688   2.171  0.00  0.00    +0.218 HD
ENDBRANCH  13  15
BRANCH  13  17
ATOM     17  C   UNL     1     -35.702  25.545   4.549  0.00  0.00    +0.015 C 
ATOM     18  C   UNL     1     -35.637  24.273   5.377  0.00  0.00    -0.014 C 
BRANCH  17  19
ATOM     19  N   UNL     1     -36.479  26.558   5.247  0.00  0.00    +0.388 N 
ATOM     20  H   UNL     1     -37.081  26.109   5.938  0.00  0.00    -0.089 HD
ATOM     21  H   UNL     1     -37.054  27.068   4.577  0.00  0.00    -0.089 HD
ATOM     22  H   UNL     1     -35.849  27.207   5.718  0.00  0.00    -0.089 HD
ENDBRANCH  17  19
ENDBRANCH  13  17
ENDBRANCH  12  13
ENDBRANCH   1  12
BRANCH   1  23
ATOM     23  C   UNL     1     -38.514  22.022   2.224  0.00  0.00    +0.036 C 
BRANCH  23  24
ATOM     24  C   UNL     1     -37.158  21.447   1.882  0.00  0.00    -0.022 C 
ATOM     25  C   UNL     1     -36.794  21.268   0.547  0.00  0.00    -0.004 C 
ATOM     26  C   UNL     1     -36.271  21.096   2.900  0.00  0.00    -0.004 C 
ATOM     27  C   UNL     1     -35.543  20.738   0.231  0.00  0.00    -0.000 C 
ATOM     28  C   UNL     1     -35.020  20.565   2.583  0.00  0.00    -0.000 C 
ATOM     29  C   UNL     1     -34.657  20.386   1.249  0.00  0.00    -0.000 C 
BRANCH  29  30
ATOM     30  C   UNL     1     -33.359  19.836   0.921  0.00  0.00    -0.000 C 
ATOM     31  C   UNL     1     -32.472  20.566   0.130  0.00  0.00    -0.000 C 
ATOM     32  C   UNL     1     -32.995  18.576   1.395  0.00  0.00    -0.000 C 
ATOM     33  C   UNL     1     -31.221  20.036  -0.186  0.00  0.00    +0.000 C 
ATOM     34  C   UNL     1     -31.744  18.046   1.080  0.00  0.00    +0.000 C 
ATOM     35  C   UNL     1     -30.857  18.776   0.289  0.00  0.00    +0.000 C 
ENDBRANCH  29  30
ENDBRANCH  23  24
ENDBRANCH   1  23
TORSDOF 12
ENDMDL
MODEL 7
REMARK VINA RESULT:      -6.2      2.483      4.012
REMARK  Name = 5478838
REMARK  12 active torsions:
REMARK  status: ('A' for Active; 'I' for Inactive)
REMARK    1  A    between atoms: C_1  and  C_4
REMARK    2  A    between atoms: C_1  and  C_12
REMARK    3  A    between atoms: C_1  and  C_23
REMARK    4  A    between atoms: N_3  and  CA_6
REMARK    5  A    between atoms: CA_6  and  C_9
REMARK    6  A    between atoms: C_9  and  O_10
REMARK    7  A    between atoms: C_12  and  P_13
REMARK    8  A    between atoms: P_13  and  O_15
REMARK    9  A    between atoms: P_13  and  C_17
REMARK   10  A    between atoms: C_17  and  N_19
REMARK   11  A    between atoms: C_23  and  C_24
REMARK   12  A    between atoms: C_29  and  C_30
REMARK                            x       y       z     vdW  Elec       q    Type
REMARK                         _______ _______ _______ _____ _____    ______ ____
ROOT
ATOM      1  C   UNL     1     -37.693  24.465   1.677  0.00  0.00    +0.090 C 
ENDROOT
BRANCH   1   4
ATOM      2  O   UNL     1     -38.616  24.578   3.922  0.00  0.00    -0.275 OA
ATOM      3  N   UNL     1     -36.326  24.324   3.678  0.00  0.00    -0.297 N 
ATOM      4  C   ACE A   0     -37.624  24.455   3.206  0.00  0.00    +0.223 C 
ATOM      5  H   UNL     1     -35.591  24.231   3.030  0.00  0.00    +0.150 HD
BRANCH   3   6
ATOM      6  CA  UNL     1     -36.019  24.321   5.088  0.00  0.00    +0.171 C 
ATOM      7  CB  UNL     1     -34.897  23.338   5.388  0.00  0.00    +0.033 C 
BRANCH   6   9
ATOM      8  OXT UNL     1     -34.540  25.993   6.016  0.00  0.00    -0.248 OA
ATOM      9  C   UNL     1     -35.653  25.708   5.589  0.00  0.00    +0.332 C 
BRANCH   9  10
ATOM     10  O   UNL     1     -36.662  26.611   5.540  0.00  0.00    -0.479 OA
ATOM     11  H   UNL     1     -36.648  27.360   6.104  0.00  0.00    +0.295 HD
ENDBRANCH   9  10
ENDBRANCH   6   9
ENDBRANCH   3   6
ENDBRANCH   1   4
BRANCH   1  12
ATOM     12  C   UNL     1     -36.399  25.072   1.121  0.00  0.00    +0.094 C 
BRANCH  12  13
ATOM     13  P   UNL     1     -36.297  26.872   1.264  0.00  0.00    +0.200 P 
ATOM     14  O   UNL     1     -36.612  27.580  -0.010  0.00  0.00    -0.292 OA
BRANCH  13  15
ATOM     15  O   UNL     1     -37.355  27.152   2.452  0.00  0.00    -0.344 OA
ATOM     16  H   UNL     1     -37.635  28.080   2.423  0.00  0.00    +0.218 HD
ENDBRANCH  13  15
BRANCH  13  17
ATOM     17  C   UNL     1     -34.733  27.260   2.008  0.00  0.00    +0.015 C 
ATOM     18  C   UNL     1     -33.866  26.038   2.254  0.00  0.00    -0.014 C 
BRANCH  17  19
ATOM     19  N   UNL     1     -35.132  27.854   3.276  0.00  0.00    +0.388 N 
ATOM     20  H   UNL     1     -35.951  27.365   3.638  0.00  0.00    -0.089 HD
ATOM     21  H   UNL     1     -35.358  28.838   3.135  0.00  0.00    -0.089 HD
ATOM     22  H   UNL     1     -34.366  27.774   3.945  0.00  0.00    -0.089 HD
ENDBRANCH  17  19
ENDBRANCH  13  17
ENDBRANCH  12  13
ENDBRANCH   1  12
BRANCH   1  23
ATOM     23  C   UNL     1     -37.934  23.061   1.093  0.00  0.00    +0.036 C 
BRANCH  23  24
ATOM     24  C   UNL     1     -36.671  22.233   1.003  0.00  0.00    -0.022 C 
ATOM     25  C   UNL     1     -35.872  22.305  -0.138  0.00  0.00    -0.004 C 
ATOM     26  C   UNL     1     -36.307  21.399   2.060  0.00  0.00    -0.004 C 
ATOM     27  C   UNL     1     -34.707  21.541  -0.221  0.00  0.00    -0.000 C 
ATOM     28  C   UNL     1     -35.142  20.635   1.976  0.00  0.00    -0.000 C 
ATOM     29  C   UNL     1     -34.343  20.707   0.835  0.00  0.00    -0.000 C 
BRANCH  29  30
ATOM     30  C   UNL     1     -33.135  19.915   0.749  0.00  0.00    -0.000 C 
ATOM     31  C   UNL     1     -32.044  20.385   0.018  0.00  0.00    -0.000 C 
ATOM     32  C   UNL     1     -33.061  18.682   1.397  0.00  0.00    -0.000 C 
ATOM     33  C   UNL     1     -30.879  19.621  -0.065  0.00  0.00    +0.000 C 
ATOM     34  C   UNL     1     -31.896  17.919   1.315  0.00  0.00    +0.000 C 
ATOM     35  C   UNL     1     -30.806  18.388   0.583  0.00  0.00    +0.000 C 
ENDBRANCH  29  30
ENDBRANCH  23  24
ENDBRANCH   1  23
TORSDOF 12
ENDMDL
MODEL 8
REMARK VINA RESULT:      -6.2      3.530      5.907
REMARK  Name = 5478838
REMARK  12 active torsions:
REMARK  status: ('A' for Active; 'I' for Inactive)
REMARK    1  A    between atoms: C_1  and  C_4
REMARK    2  A    between atoms: C_1  and  C_12
REMARK    3  A    between atoms: C_1  and  C_23
REMARK    4  A    between atoms: N_3  and  CA_6
REMARK    5  A    between atoms: CA_6  and  C_9
REMARK    6  A    between atoms: C_9  and  O_10
REMARK    7  A    between atoms: C_12  and  P_13
REMARK    8  A    between atoms: P_13  and  O_15
REMARK    9  A    between atoms: P_13  and  C_17
REMARK   10  A    between atoms: C_17  and  N_19
REMARK   11  A    between atoms: C_23  and  C_24
REMARK   12  A    between atoms: C_29  and  C_30
REMARK                            x       y       z     vdW  Elec       q    Type
REMARK                         _______ _______ _______ _____ _____    ______ ____
ROOT
ATOM      1  C   UNL     1     -35.252  21.949   1.048  0.00  0.00    +0.090 C 
ENDROOT
BRANCH   1   4
ATOM      2  O   UNL     1     -34.403  23.917   2.196  0.00  0.00    -0.275 OA
ATOM      3  N   UNL     1     -35.426  22.259   3.450  0.00  0.00    -0.297 N 
ATOM      4  C   ACE A   0     -34.979  22.833   2.269  0.00  0.00    +0.223 C 
ATOM      5  H   UNL     1     -35.878  21.385   3.413  0.00  0.00    +0.150 HD
BRANCH   3   6
ATOM      6  CA  UNL     1     -35.248  22.900   4.730  0.00  0.00    +0.171 C 
ATOM      7  CB  UNL     1     -36.204  24.075   4.877  0.00  0.00    +0.033 C 
BRANCH   6   9
ATOM      8  OXT UNL     1     -36.034  22.208   6.909  0.00  0.00    -0.248 OA
ATOM      9  C   UNL     1     -35.431  21.924   5.880  0.00  0.00    +0.332 C 
BRANCH   9  10
ATOM     10  O   UNL     1     -34.861  20.711   5.688  0.00  0.00    -0.479 OA
ATOM     11  H   UNL     1     -35.265  20.087   5.117  0.00  0.00    +0.295 HD
ENDBRANCH   9  10
ENDBRANCH   6   9
ENDBRANCH   3   6
ENDBRANCH   1   4
BRANCH   1  12
ATOM     12  C   UNL     1     -36.605  22.339   0.440  0.00  0.00    +0.094 C 
BRANCH  12  13
ATOM     13  P   UNL     1     -37.957  21.205   0.836  0.00  0.00    +0.200 P 
ATOM     14  O   UNL     1     -38.277  20.265  -0.275  0.00  0.00    -0.292 OA
BRANCH  13  15
ATOM     15  O   UNL     1     -37.382  20.484   2.163  0.00  0.00    -0.344 OA
ATOM     16  H   UNL     1     -36.722  19.820   1.910  0.00  0.00    +0.218 HD
ENDBRANCH  13  15
BRANCH  13  17
ATOM     17  C   UNL     1     -39.306  22.179   1.451  0.00  0.00    +0.015 C 
ATOM     18  C   UNL     1     -38.865  23.303   2.374  0.00  0.00    -0.014 C 
BRANCH  17  19
ATOM     19  N   UNL     1     -40.084  21.198   2.195  0.00  0.00    +0.388 N 
ATOM     20  H   UNL     1     -41.065  21.263   1.922  0.00  0.00    -0.089 HD
ATOM     21  H   UNL     1     -39.996  21.380   3.194  0.00  0.00    -0.089 HD
ATOM     22  H   UNL     1     -39.736  20.261   1.988  0.00  0.00    -0.089 HD
ENDBRANCH  17  19
ENDBRANCH  13  17
ENDBRANCH  12  13
ENDBRANCH   1  12
BRANCH   1  23
ATOM     23  C   UNL     1     -34.131  22.042  -0.004  0.00  0.00    +0.036 C 
BRANCH  23  24
ATOM     24  C   UNL     1     -33.119  20.924   0.111  0.00  0.00    -0.022 C 
ATOM     25  C   UNL     1     -33.434  19.770   0.827  0.00  0.00    -0.004 C 
ATOM     26  C   UNL     1     -31.870  21.049  -0.499  0.00  0.00    -0.004 C 
ATOM     27  C   UNL     1     -32.500  18.739   0.933  0.00  0.00    -0.000 C 
ATOM     28  C   UNL     1     -30.936  20.018  -0.391  0.00  0.00    -0.000 C 
ATOM     29  C   UNL     1     -31.251  18.864   0.324  0.00  0.00    -0.000 C 
BRANCH  29  30
ATOM     30  C   UNL     1     -30.282  17.795   0.434  0.00  0.00    -0.000 C 
ATOM     31  C   UNL     1     -29.043  18.036   1.028  0.00  0.00    -0.000 C 
ATOM     32  C   UNL     1     -30.586  16.524  -0.053  0.00  0.00    -0.000 C 
ATOM     33  C   UNL     1     -28.109  17.006   1.133  0.00  0.00    +0.000 C 
ATOM     34  C   UNL     1     -29.653  15.493   0.054  0.00  0.00    +0.000 C 
ATOM     35  C   UNL     1     -28.413  15.734   0.647  0.00  0.00    +0.000 C 
ENDBRANCH  29  30
ENDBRANCH  23  24
ENDBRANCH   1  23
TORSDOF 12
ENDMDL
MODEL 9
REMARK VINA RESULT:      -6.1      3.876      7.724
REMARK  Name = 5478838
REMARK  12 active torsions:
REMARK  status: ('A' for Active; 'I' for Inactive)
REMARK    1  A    between atoms: C_1  and  C_4
REMARK    2  A    between atoms: C_1  and  C_12
REMARK    3  A    between atoms: C_1  and  C_23
REMARK    4  A    between atoms: N_3  and  CA_6
REMARK    5  A    between atoms: CA_6  and  C_9
REMARK    6  A    between atoms: C_9  and  O_10
REMARK    7  A    between atoms: C_12  and  P_13
REMARK    8  A    between atoms: P_13  and  O_15
REMARK    9  A    between atoms: P_13  and  C_17
REMARK   10  A    between atoms: C_17  and  N_19
REMARK   11  A    between atoms: C_23  and  C_24
REMARK   12  A    between atoms: C_29  and  C_30
REMARK                            x       y       z     vdW  Elec       q    Type
REMARK                         _______ _______ _______ _____ _____    ______ ____
ROOT
ATOM      1  C   UNL     1     -36.554  22.696   2.307  0.00  0.00    +0.090 C 
ENDROOT
BRANCH   1   4
ATOM      2  O   UNL     1     -36.963  20.872   0.753  0.00  0.00    -0.275 OA
ATOM      3  N   UNL     1     -34.772  21.482   1.192  0.00  0.00    -0.297 N 
ATOM      4  C   ACE A   0     -36.148  21.591   1.328  0.00  0.00    +0.223 C 
ATOM      5  H   UNL     1     -34.193  22.102   1.692  0.00  0.00    +0.150 HD
BRANCH   3   6
ATOM      6  CA  UNL     1     -34.161  20.487   0.343  0.00  0.00    +0.171 C 
ATOM      7  CB  UNL     1     -32.748  20.905  -0.038  0.00  0.00    +0.033 C 
BRANCH   6   9
ATOM      8  OXT UNL     1     -33.242  18.737   1.735  0.00  0.00    -0.248 OA
ATOM      9  C   UNL     1     -34.147  19.117   1.000  0.00  0.00    +0.332 C 
BRANCH   9  10
ATOM     10  O   UNL     1     -35.211  18.335   0.699  0.00  0.00    -0.479 OA
ATOM     11  H   UNL     1     -35.371  18.082  -0.189  0.00  0.00    +0.295 HD
ENDBRANCH   9  10
ENDBRANCH   6   9
ENDBRANCH   3   6
ENDBRANCH   1   4
BRANCH   1  12
ATOM     12  C   UNL     1     -38.071  22.641   2.523  0.00  0.00    +0.094 C 
BRANCH  12  13
ATOM     13  P   UNL     1     -39.006  23.860   1.567  0.00  0.00    +0.200 P 
ATOM     14  O   UNL     1     -38.493  24.034   0.179  0.00  0.00    -0.292 OA
BRANCH  13  15
ATOM     15  O   UNL     1     -40.497  23.243   1.646  0.00  0.00    -0.344 OA
ATOM     16  H   UNL     1     -40.473  22.401   2.126  0.00  0.00    +0.218 HD
ENDBRANCH  13  15
BRANCH  13  17
ATOM     17  C   UNL     1     -39.120  25.333   2.550  0.00  0.00    +0.015 C 
ATOM     18  C   UNL     1     -37.814  26.106   2.627  0.00  0.00    -0.014 C 
BRANCH  17  19
ATOM     19  N   UNL     1     -39.467  24.805   3.862  0.00  0.00    +0.388 N 
ATOM     20  H   UNL     1     -39.021  25.370   4.585  0.00  0.00    -0.089 HD
ATOM     21  H   UNL     1     -39.145  23.841   3.936  0.00  0.00    -0.089 HD
ATOM     22  H   UNL     1     -40.479  24.836   3.984  0.00  0.00    -0.089 HD
ENDBRANCH  17  19
ENDBRANCH  13  17
ENDBRANCH  12  13
ENDBRANCH   1  12
BRANCH   1  23
ATOM     23  C   UNL     1     -35.806  22.593   3.649  0.00  0.00    +0.036 C 
BRANCH  23  24
ATOM     24  C   UNL     1     -35.076  23.865   4.018  0.00  0.00    -0.022 C 
ATOM     25  C   UNL     1     -35.101  24.326   5.333  0.00  0.00    -0.004 C 
ATOM     26  C   UNL     1     -34.378  24.577   3.041  0.00  0.00    -0.004 C 
ATOM     27  C   UNL     1     -34.429  25.499   5.673  0.00  0.00    -0.000 C 
ATOM     28  C   UNL     1     -33.706  25.751   3.382  0.00  0.00    -0.000 C 
ATOM     29  C   UNL     1     -33.731  26.212   4.698  0.00  0.00    -0.000 C 
BRANCH  29  30
ATOM     30  C   UNL     1     -33.033  27.429   5.051  0.00  0.00    -0.000 C 
ATOM     31  C   UNL     1     -32.512  27.587   6.335  0.00  0.00    -0.000 C 
ATOM     32  C   UNL     1     -32.881  28.445   4.107  0.00  0.00    -0.000 C 
ATOM     33  C   UNL     1     -31.839  28.760   6.675  0.00  0.00    +0.000 C 
ATOM     34  C   UNL     1     -32.207  29.618   4.447  0.00  0.00    +0.000 C 
ATOM     35  C   UNL     1     -31.687  29.776   5.731  0.00  0.00    +0.000 C 
ENDBRANCH  29  30
ENDBRANCH  23  24
ENDBRANCH   1  23
TORSDOF 12
ENDMDL
