MODEL 1
REMARK VINA RESULT:      -6.4      0.000      0.000
REMARK  Name = 52316118
REMARK  8 active torsions:
REMARK  status: ('A' for Active; 'I' for Inactive)
REMARK    1  A    between atoms: C_4  and  S_24
REMARK    2  A    between atoms: C_16  and  O_20
REMARK    3  A    between atoms: C_19  and  O_22
REMARK    4  A    between atoms: S_24  and  C_25
REMARK    5  A    between atoms: C_25  and  C_26
REMARK    6  A    between atoms: C_26  and  O_27
REMARK    7  A    between atoms: C_26  and  C_30
REMARK    8  A    between atoms: C_30  and  O_31
REMARK                            x       y       z     vdW  Elec       q    Type
REMARK                         _______ _______ _______ _____ _____    ______ ____
ROOT
ATOM      1  O   UNL     1     -34.315  24.480   0.346  0.00  0.00    -0.452 OA
ATOM      2  O   UNL     1     -36.489  26.128   2.642  0.00  0.00    -0.291 OA
ATOM      3  O   UNL     1     -33.927  22.243   0.771  0.00  0.00    -0.250 OA
ATOM      4  C   UNL     1     -33.609  27.138   2.471  0.00  0.00    +0.055 C 
ATOM      5  C   UNL     1     -32.498  26.091   2.267  0.00  0.00    +0.011 C 
ATOM      6  C   UNL     1     -31.726  26.190   0.945  0.00  0.00    +0.005 C 
ATOM      7  C   UNL     1     -32.541  25.988  -0.341  0.00  0.00    +0.044 C 
ATOM      8  C   UNL     1     -34.450  26.808   3.713  0.00  0.00    +0.080 C 
ATOM      9  C   UNL     1     -33.139  24.582  -0.486  0.00  0.00    +0.169 C 
ATOM     10  C   UNL     1     -35.549  25.815   3.366  0.00  0.00    +0.177 C 
ATOM     11  C   UNL     1     -35.484  24.446   3.936  0.00  0.00    +0.065 C 
ATOM     12  C   UNL     1     -33.574  24.328  -1.927  0.00  0.00    +0.047 C 
ATOM     13  C   UNL     1     -35.676  23.297   3.144  0.00  0.00    -0.002 C 
ATOM     14  C   UNL     1     -35.894  23.322   1.652  0.00  0.00    +0.136 C 
ATOM     15  C   UNL     1     -34.603  23.259   0.880  0.00  0.00    +0.321 C 
ATOM     16  C   UNL     1     -35.267  24.328   5.316  0.00  0.00    +0.139 C 
ATOM     17  C   UNL     1     -35.609  22.040   3.774  0.00  0.00    +0.033 C 
ATOM     18  C   UNL     1     -35.213  23.072   5.916  0.00  0.00    +0.073 C 
ATOM     19  C   UNL     1     -35.381  21.927   5.145  0.00  0.00    +0.136 C 
ENDROOT
BRANCH  16  20
ATOM     20  O   UNL     1     -35.185  25.385   6.172  0.00  0.00    -0.505 OA
ATOM     21  H   UNL     1     -35.564  25.326   7.027  0.00  0.00    +0.292 HD
ENDBRANCH  16  20
BRANCH  19  22
ATOM     22  O   UNL     1     -35.328  20.699   5.728  0.00  0.00    -0.505 OA
ATOM     23  H   UNL     1     -34.861  20.583   6.533  0.00  0.00    +0.292 HD
ENDBRANCH  19  22
BRANCH   4  24
ATOM     24  S   UNL     1     -32.875  28.803   2.682  0.00  0.00    -0.138 S 
BRANCH  24  25
ATOM     25  C   UNL     1     -31.625  28.361   3.906  0.00  0.00    +0.098 C 
BRANCH  25  26
ATOM     26  C   UNL     1     -31.951  28.965   5.269  0.00  0.00    +0.220 C 
BRANCH  26  27
ATOM     27  O   UNL     1     -30.937  29.901   5.614  0.00  0.00    -0.374 OA
ATOM     28  H   UNL     1     -31.310  30.582   6.196  0.00  0.00    +0.211 HD
ENDBRANCH  26  27
BRANCH  26  30
ATOM     29  O   UNL     1     -32.961  27.383   6.817  0.00  0.00    -0.248 OA
ATOM     30  C   UNL     1     -31.955  27.890   6.339  0.00  0.00    +0.342 C 
BRANCH  30  31
ATOM     31  O   UNL     1     -30.700  27.555   6.734  0.00  0.00    -0.479 OA
ATOM     32  H   UNL     1     -30.369  27.864   7.554  0.00  0.00    +0.295 HD
ENDBRANCH  30  31
ENDBRANCH  26  30
ENDBRANCH  25  26
ENDBRANCH  24  25
ENDBRANCH   4  24
TORSDOF 8
ENDMDL
MODEL 2
REMARK VINA RESULT:      -6.0      1.874      2.926
REMARK  Name = 52316118
REMARK  8 active torsions:
REMARK  status: ('A' for Active; 'I' for Inactive)
REMARK    1  A    between atoms: C_4  and  S_24
REMARK    2  A    between atoms: C_16  and  O_20
REMARK    3  A    between atoms: C_19  and  O_22
REMARK    4  A    between atoms: S_24  and  C_25
REMARK    5  A    between atoms: C_25  and  C_26
REMARK    6  A    between atoms: C_26  and  O_27
REMARK    7  A    between atoms: C_26  and  C_30
REMARK    8  A    between atoms: C_30  and  O_31
REMARK                            x       y       z     vdW  Elec       q    Type
REMARK                         _______ _______ _______ _____ _____    ______ ____
ROOT
ATOM      1  O   UNL     1     -34.270  24.389   0.361  0.00  0.00    -0.452 OA
ATOM      2  O   UNL     1     -36.545  25.977   2.601  0.00  0.00    -0.291 OA
ATOM      3  O   UNL     1     -33.832  22.164   0.799  0.00  0.00    -0.250 OA
ATOM      4  C   UNL     1     -33.691  27.067   2.499  0.00  0.00    +0.055 C 
ATOM      5  C   UNL     1     -32.546  26.051   2.324  0.00  0.00    +0.011 C 
ATOM      6  C   UNL     1     -31.746  26.169   1.021  0.00  0.00    +0.005 C 
ATOM      7  C   UNL     1     -32.523  25.944  -0.285  0.00  0.00    +0.044 C 
ATOM      8  C   UNL     1     -34.553  26.714   3.721  0.00  0.00    +0.080 C 
ATOM      9  C   UNL     1     -33.078  24.522  -0.442  0.00  0.00    +0.169 C 
ATOM     10  C   UNL     1     -35.615  25.691   3.349  0.00  0.00    +0.177 C 
ATOM     11  C   UNL     1     -35.526  24.325   3.921  0.00  0.00    +0.065 C 
ATOM     12  C   UNL     1     -33.471  24.255  -1.893  0.00  0.00    +0.047 C 
ATOM     13  C   UNL     1     -35.666  23.170   3.127  0.00  0.00    -0.002 C 
ATOM     14  C   UNL     1     -35.849  23.188   1.630  0.00  0.00    +0.136 C 
ATOM     15  C   UNL     1     -34.538  23.160   0.890  0.00  0.00    +0.321 C 
ATOM     16  C   UNL     1     -35.339  24.214   5.307  0.00  0.00    +0.139 C 
ATOM     17  C   UNL     1     -35.580  21.916   3.760  0.00  0.00    +0.033 C 
ATOM     18  C   UNL     1     -35.265  22.960   5.910  0.00  0.00    +0.073 C 
ATOM     19  C   UNL     1     -35.383  21.811   5.137  0.00  0.00    +0.136 C 
ENDROOT
BRANCH  16  20
ATOM     20  O   UNL     1     -35.307  25.273   6.163  0.00  0.00    -0.505 OA
ATOM     21  H   UNL     1     -34.500  25.526   6.566  0.00  0.00    +0.292 HD
ENDBRANCH  16  20
BRANCH  19  22
ATOM     22  O   UNL     1     -35.310  20.585   5.723  0.00  0.00    -0.505 OA
ATOM     23  H   UNL     1     -34.976  19.854   5.239  0.00  0.00    +0.292 HD
ENDBRANCH  19  22
BRANCH   4  24
ATOM     24  S   UNL     1     -33.008  28.751   2.726  0.00  0.00    -0.138 S 
BRANCH  24  25
ATOM     25  C   UNL     1     -33.925  29.562   1.400  0.00  0.00    +0.098 C 
BRANCH  25  26
ATOM     26  C   UNL     1     -35.117  30.341   1.952  0.00  0.00    +0.220 C 
BRANCH  26  27
ATOM     27  O   UNL     1     -35.244  30.069   3.342  0.00  0.00    -0.374 OA
ATOM     28  H   UNL     1     -34.444  29.620   3.658  0.00  0.00    +0.211 HD
ENDBRANCH  26  27
BRANCH  26  30
ATOM     29  O   UNL     1     -37.055  30.562   0.499  0.00  0.00    -0.248 OA
ATOM     30  C   UNL     1     -36.401  29.889   1.285  0.00  0.00    +0.342 C 
BRANCH  30  31
ATOM     31  O   UNL     1     -36.769  28.641   1.673  0.00  0.00    -0.479 OA
ATOM     32  H   UNL     1     -37.500  28.221   1.265  0.00  0.00    +0.295 HD
ENDBRANCH  30  31
ENDBRANCH  26  30
ENDBRANCH  25  26
ENDBRANCH  24  25
ENDBRANCH   4  24
TORSDOF 8
ENDMDL
MODEL 3
REMARK VINA RESULT:      -5.9      1.718      2.149
REMARK  Name = 52316118
REMARK  8 active torsions:
REMARK  status: ('A' for Active; 'I' for Inactive)
REMARK    1  A    between atoms: C_4  and  S_24
REMARK    2  A    between atoms: C_16  and  O_20
REMARK    3  A    between atoms: C_19  and  O_22
REMARK    4  A    between atoms: S_24  and  C_25
REMARK    5  A    between atoms: C_25  and  C_26
REMARK    6  A    between atoms: C_26  and  O_27
REMARK    7  A    between atoms: C_26  and  C_30
REMARK    8  A    between atoms: C_30  and  O_31
REMARK                            x       y       z     vdW  Elec       q    Type
REMARK                         _______ _______ _______ _____ _____    ______ ____
ROOT
ATOM      1  O   UNL     1     -34.574  23.703   0.066  0.00  0.00    -0.452 OA
ATOM      2  O   UNL     1     -36.783  25.563   2.157  0.00  0.00    -0.291 OA
ATOM      3  O   UNL     1     -34.043  21.583   0.815  0.00  0.00    -0.250 OA
ATOM      4  C   UNL     1     -33.974  26.692   1.734  0.00  0.00    +0.055 C 
ATOM      5  C   UNL     1     -32.808  25.689   1.654  0.00  0.00    +0.011 C 
ATOM      6  C   UNL     1     -32.077  25.624   0.306  0.00  0.00    +0.005 C 
ATOM      7  C   UNL     1     -32.912  25.181  -0.905  0.00  0.00    +0.044 C 
ATOM      8  C   UNL     1     -34.761  26.512   3.040  0.00  0.00    +0.080 C 
ATOM      9  C   UNL     1     -33.428  23.739  -0.812  0.00  0.00    +0.169 C 
ATOM     10  C   UNL     1     -35.807  25.418   2.888  0.00  0.00    +0.177 C 
ATOM     11  C   UNL     1     -35.646  24.160   3.657  0.00  0.00    +0.065 C 
ATOM     12  C   UNL     1     -33.885  23.241  -2.181  0.00  0.00    +0.047 C 
ATOM     13  C   UNL     1     -35.789  22.893   3.057  0.00  0.00    -0.002 C 
ATOM     14  C   UNL     1     -36.047  22.675   1.588  0.00  0.00    +0.136 C 
ATOM     15  C   UNL     1     -34.775  22.565   0.790  0.00  0.00    +0.321 C 
ATOM     16  C   UNL     1     -35.386  24.269   5.031  0.00  0.00    +0.139 C 
ATOM     17  C   UNL     1     -35.631  21.755   3.870  0.00  0.00    +0.033 C 
ATOM     18  C   UNL     1     -35.242  23.126   5.814  0.00  0.00    +0.073 C 
ATOM     19  C   UNL     1     -35.362  21.868   5.233  0.00  0.00    +0.136 C 
ENDROOT
BRANCH  16  20
ATOM     20  O   UNL     1     -35.346  25.448   5.711  0.00  0.00    -0.505 OA
ATOM     21  H   UNL     1     -34.896  26.185   5.346  0.00  0.00    +0.292 HD
ENDBRANCH  16  20
BRANCH  19  22
ATOM     22  O   UNL     1     -35.220  20.750   5.996  0.00  0.00    -0.505 OA
ATOM     23  H   UNL     1     -35.884  20.520   6.616  0.00  0.00    +0.292 HD
ENDBRANCH  19  22
BRANCH   4  24
ATOM     24  S   UNL     1     -33.335  28.407   1.662  0.00  0.00    -0.138 S 
BRANCH  24  25
ATOM     25  C   UNL     1     -33.287  28.720   3.438  0.00  0.00    +0.098 C 
BRANCH  25  26
ATOM     26  C   UNL     1     -32.998  30.190   3.731  0.00  0.00    +0.220 C 
BRANCH  26  27
ATOM     27  O   UNL     1     -32.864  30.365   5.136  0.00  0.00    -0.374 OA
ATOM     28  H   UNL     1     -33.574  30.942   5.459  0.00  0.00    +0.211 HD
ENDBRANCH  26  27
BRANCH  26  30
ATOM     29  O   UNL     1     -34.046  32.073   2.601  0.00  0.00    -0.248 OA
ATOM     30  C   UNL     1     -34.155  31.059   3.277  0.00  0.00    +0.342 C 
BRANCH  30  31
ATOM     31  O   UNL     1     -35.351  30.595   3.724  0.00  0.00    -0.479 OA
ATOM     32  H   UNL     1     -35.399  30.133   4.538  0.00  0.00    +0.295 HD
ENDBRANCH  30  31
ENDBRANCH  26  30
ENDBRANCH  25  26
ENDBRANCH  24  25
ENDBRANCH   4  24
TORSDOF 8
ENDMDL
MODEL 4
REMARK VINA RESULT:      -5.7      3.209      6.603
REMARK  Name = 52316118
REMARK  8 active torsions:
REMARK  status: ('A' for Active; 'I' for Inactive)
REMARK    1  A    between atoms: C_4  and  S_24
REMARK    2  A    between atoms: C_16  and  O_20
REMARK    3  A    between atoms: C_19  and  O_22
REMARK    4  A    between atoms: S_24  and  C_25
REMARK    5  A    between atoms: C_25  and  C_26
REMARK    6  A    between atoms: C_26  and  O_27
REMARK    7  A    between atoms: C_26  and  C_30
REMARK    8  A    between atoms: C_30  and  O_31
REMARK                            x       y       z     vdW  Elec       q    Type
REMARK                         _______ _______ _______ _____ _____    ______ ____
ROOT
ATOM      1  O   UNL     1     -35.665  26.062   0.265  0.00  0.00    -0.452 OA
ATOM      2  O   UNL     1     -35.082  22.995   1.988  0.00  0.00    -0.291 OA
ATOM      3  O   UNL     1     -34.712  27.937   1.219  0.00  0.00    -0.250 OA
ATOM      4  C   UNL     1     -37.980  23.940   1.751  0.00  0.00    +0.055 C 
ATOM      5  C   UNL     1     -38.247  25.452   1.860  0.00  0.00    +0.011 C 
ATOM      6  C   UNL     1     -38.806  26.121   0.597  0.00  0.00    +0.005 C 
ATOM      7  C   UNL     1     -37.912  26.083  -0.652  0.00  0.00    +0.044 C 
ATOM      8  C   UNL     1     -37.223  23.428   2.986  0.00  0.00    +0.080 C 
ATOM      9  C   UNL     1     -36.596  26.857  -0.500  0.00  0.00    +0.169 C 
ATOM     10  C   UNL     1     -35.725  23.632   2.818  0.00  0.00    +0.177 C 
ATOM     11  C   UNL     1     -35.032  24.610   3.692  0.00  0.00    +0.065 C 
ATOM     12  C   UNL     1     -35.963  27.117  -1.865  0.00  0.00    +0.047 C 
ATOM     13  C   UNL     1     -34.134  25.567   3.179  0.00  0.00    -0.002 C 
ATOM     14  C   UNL     1     -33.834  25.748   1.712  0.00  0.00    +0.136 C 
ATOM     15  C   UNL     1     -34.769  26.726   1.051  0.00  0.00    +0.321 C 
ATOM     16  C   UNL     1     -35.266  24.525   5.072  0.00  0.00    +0.139 C 
ATOM     17  C   UNL     1     -33.513  26.445   4.087  0.00  0.00    +0.033 C 
ATOM     18  C   UNL     1     -34.632  25.402   5.950  0.00  0.00    +0.073 C 
ATOM     19  C   UNL     1     -33.758  26.365   5.457  0.00  0.00    +0.136 C 
ENDROOT
BRANCH  16  20
ATOM     20  O   UNL     1     -36.027  23.562   5.662  0.00  0.00    -0.505 OA
ATOM     21  H   UNL     1     -36.181  23.587   6.587  0.00  0.00    +0.292 HD
ENDBRANCH  16  20
BRANCH  19  22
ATOM     22  O   UNL     1     -33.138  27.224   6.312  0.00  0.00    -0.505 OA
ATOM     23  H   UNL     1     -32.229  27.111   6.510  0.00  0.00    +0.292 HD
ENDBRANCH  19  22
BRANCH   4  24
ATOM     24  S   UNL     1     -39.563  23.028   1.612  0.00  0.00    -0.138 S 
BRANCH  24  25
ATOM     25  C   UNL     1     -38.921  21.378   1.958  0.00  0.00    +0.098 C 
BRANCH  25  26
ATOM     26  C   UNL     1     -38.172  20.815   0.753  0.00  0.00    +0.220 C 
BRANCH  26  27
ATOM     27  O   UNL     1     -38.971  19.812   0.139  0.00  0.00    -0.374 OA
ATOM     28  H   UNL     1     -39.116  19.085   0.766  0.00  0.00    +0.211 HD
ENDBRANCH  26  27
BRANCH  26  30
ATOM     29  O   UNL     1     -35.898  19.994   0.481  0.00  0.00    -0.248 OA
ATOM     30  C   UNL     1     -36.880  20.155   1.194  0.00  0.00    +0.342 C 
BRANCH  30  31
ATOM     31  O   UNL     1     -36.933  19.733   2.484  0.00  0.00    -0.479 OA
ATOM     32  H   UNL     1     -37.725  19.369   2.825  0.00  0.00    +0.295 HD
ENDBRANCH  30  31
ENDBRANCH  26  30
ENDBRANCH  25  26
ENDBRANCH  24  25
ENDBRANCH   4  24
TORSDOF 8
ENDMDL
MODEL 5
REMARK VINA RESULT:      -5.7      5.431      7.125
REMARK  Name = 52316118
REMARK  8 active torsions:
REMARK  status: ('A' for Active; 'I' for Inactive)
REMARK    1  A    between atoms: C_4  and  S_24
REMARK    2  A    between atoms: C_16  and  O_20
REMARK    3  A    between atoms: C_19  and  O_22
REMARK    4  A    between atoms: S_24  and  C_25
REMARK    5  A    between atoms: C_25  and  C_26
REMARK    6  A    between atoms: C_26  and  O_27
REMARK    7  A    between atoms: C_26  and  C_30
REMARK    8  A    between atoms: C_30  and  O_31
REMARK                            x       y       z     vdW  Elec       q    Type
REMARK                         _______ _______ _______ _____ _____    ______ ____
ROOT
ATOM      1  O   UNL     1     -40.609  23.217  -0.355  0.00  0.00    -0.452 OA
ATOM      2  O   UNL     1     -39.426  26.403   0.727  0.00  0.00    -0.291 OA
ATOM      3  O   UNL     1     -42.896  22.915  -0.245  0.00  0.00    -0.250 OA
ATOM      4  C   UNL     1     -38.494  23.954   2.303  0.00  0.00    +0.055 C 
ATOM      5  C   UNL     1     -39.508  22.813   2.511  0.00  0.00    +0.011 C 
ATOM      6  C   UNL     1     -39.151  21.478   1.843  0.00  0.00    +0.005 C 
ATOM      7  C   UNL     1     -39.046  21.484   0.311  0.00  0.00    +0.044 C 
ATOM      8  C   UNL     1     -39.057  25.286   2.821  0.00  0.00    +0.080 C 
ATOM      9  C   UNL     1     -40.368  21.795  -0.403  0.00  0.00    +0.169 C 
ATOM     10  C   UNL     1     -39.917  25.953   1.759  0.00  0.00    +0.177 C 
ATOM     11  C   UNL     1     -41.377  26.075   1.991  0.00  0.00    +0.065 C 
ATOM     12  C   UNL     1     -40.293  21.393  -1.874  0.00  0.00    +0.047 C 
ATOM     13  C   UNL     1     -42.323  25.726   1.006  0.00  0.00    -0.002 C 
ATOM     14  C   UNL     1     -41.971  25.138  -0.337  0.00  0.00    +0.136 C 
ATOM     15  C   UNL     1     -41.907  23.634  -0.308  0.00  0.00    +0.321 C 
ATOM     16  C   UNL     1     -41.796  26.598   3.223  0.00  0.00    +0.139 C 
ATOM     17  C   UNL     1     -43.687  25.888   1.312  0.00  0.00    +0.033 C 
ATOM     18  C   UNL     1     -43.153  26.754   3.497  0.00  0.00    +0.073 C 
ATOM     19  C   UNL     1     -44.100  26.397   2.543  0.00  0.00    +0.136 C 
ENDROOT
BRANCH  16  20
ATOM     20  O   UNL     1     -40.952  27.065   4.184  0.00  0.00    -0.505 OA
ATOM     21  H   UNL     1     -41.267  27.210   5.055  0.00  0.00    +0.292 HD
ENDBRANCH  16  20
BRANCH  19  22
ATOM     22  O   UNL     1     -45.426  26.548   2.809  0.00  0.00    -0.505 OA
ATOM     23  H   UNL     1     -46.016  26.789   2.121  0.00  0.00    +0.292 HD
ENDBRANCH  19  22
BRANCH   4  24
ATOM     24  S   UNL     1     -36.938  23.585   3.196  0.00  0.00    -0.138 S 
BRANCH  24  25
ATOM     25  C   UNL     1     -36.465  25.286   3.568  0.00  0.00    +0.098 C 
BRANCH  25  26
ATOM     26  C   UNL     1     -35.999  25.424   5.015  0.00  0.00    +0.220 C 
BRANCH  26  27
ATOM     27  O   UNL     1     -36.557  26.609   5.570  0.00  0.00    -0.374 OA
ATOM     28  H   UNL     1     -37.439  26.758   5.193  0.00  0.00    +0.211 HD
ENDBRANCH  26  27
BRANCH  26  30
ATOM     29  O   UNL     1     -33.695  24.820   4.518  0.00  0.00    -0.248 OA
ATOM     30  C   UNL     1     -34.490  25.566   5.075  0.00  0.00    +0.342 C 
BRANCH  30  31
ATOM     31  O   UNL     1     -34.104  26.617   5.843  0.00  0.00    -0.479 OA
ATOM     32  H   UNL     1     -33.920  27.445   5.445  0.00  0.00    +0.295 HD
ENDBRANCH  30  31
ENDBRANCH  26  30
ENDBRANCH  25  26
ENDBRANCH  24  25
ENDBRANCH   4  24
TORSDOF 8
ENDMDL
MODEL 6
REMARK VINA RESULT:      -5.7      2.919      7.031
REMARK  Name = 52316118
REMARK  8 active torsions:
REMARK  status: ('A' for Active; 'I' for Inactive)
REMARK    1  A    between atoms: C_4  and  S_24
REMARK    2  A    between atoms: C_16  and  O_20
REMARK    3  A    between atoms: C_19  and  O_22
REMARK    4  A    between atoms: S_24  and  C_25
REMARK    5  A    between atoms: C_25  and  C_26
REMARK    6  A    between atoms: C_26  and  O_27
REMARK    7  A    between atoms: C_26  and  C_30
REMARK    8  A    between atoms: C_30  and  O_31
REMARK                            x       y       z     vdW  Elec       q    Type
REMARK                         _______ _______ _______ _____ _____    ______ ____
ROOT
ATOM      1  O   UNL     1     -35.594  23.926   4.559  0.00  0.00    -0.452 OA
ATOM      2  O   UNL     1     -37.625  26.208   2.719  0.00  0.00    -0.291 OA
ATOM      3  O   UNL     1     -33.569  24.763   5.290  0.00  0.00    -0.250 OA
ATOM      4  C   UNL     1     -36.664  23.699   1.260  0.00  0.00    +0.055 C 
ATOM      5  C   UNL     1     -35.242  23.195   1.571  0.00  0.00    +0.011 C 
ATOM      6  C   UNL     1     -35.156  21.820   2.245  0.00  0.00    +0.005 C 
ATOM      7  C   UNL     1     -35.807  21.694   3.631  0.00  0.00    +0.044 C 
ATOM      8  C   UNL     1     -36.636  25.163   0.796  0.00  0.00    +0.080 C 
ATOM      9  C   UNL     1     -35.147  22.562   4.711  0.00  0.00    +0.169 C 
ATOM     10  C   UNL     1     -36.642  26.103   1.992  0.00  0.00    +0.177 C 
ATOM     11  C   UNL     1     -35.435  26.922   2.266  0.00  0.00    +0.065 C 
ATOM     12  C   UNL     1     -35.563  22.096   6.104  0.00  0.00    +0.047 C 
ATOM     13  C   UNL     1     -34.873  27.017   3.555  0.00  0.00    -0.002 C 
ATOM     14  C   UNL     1     -35.379  26.263   4.758  0.00  0.00    +0.136 C 
ATOM     15  C   UNL     1     -34.723  24.915   4.910  0.00  0.00    +0.321 C 
ATOM     16  C   UNL     1     -34.887  27.646   1.197  0.00  0.00    +0.139 C 
ATOM     17  C   UNL     1     -33.735  27.829   3.722  0.00  0.00    +0.033 C 
ATOM     18  C   UNL     1     -33.764  28.447   1.392  0.00  0.00    +0.073 C 
ATOM     19  C   UNL     1     -33.186  28.537   2.653  0.00  0.00    +0.136 C 
ENDROOT
BRANCH  16  20
ATOM     20  O   UNL     1     -35.431  27.701  -0.050  0.00  0.00    -0.505 OA
ATOM     21  H   UNL     1     -34.913  27.992  -0.775  0.00  0.00    +0.292 HD
ENDBRANCH  16  20
BRANCH  19  22
ATOM     22  O   UNL     1     -32.089  29.319   2.846  0.00  0.00    -0.505 OA
ATOM     23  H   UNL     1     -31.240  29.000   2.610  0.00  0.00    +0.292 HD
ENDBRANCH  19  22
BRANCH   4  24
ATOM     24  S   UNL     1     -37.420  22.677  -0.059  0.00  0.00    -0.138 S 
BRANCH  24  25
ATOM     25  C   UNL     1     -39.144  22.901   0.423  0.00  0.00    +0.098 C 
BRANCH  25  26
ATOM     26  C   UNL     1     -39.308  22.806   1.939  0.00  0.00    +0.220 C 
BRANCH  26  27
ATOM     27  O   UNL     1     -40.063  21.641   2.250  0.00  0.00    -0.374 OA
ATOM     28  H   UNL     1     -40.711  21.851   2.941  0.00  0.00    +0.211 HD
ENDBRANCH  26  27
BRANCH  26  30
ATOM     29  O   UNL     1     -41.008  24.546   1.875  0.00  0.00    -0.248 OA
ATOM     30  C   UNL     1     -40.084  23.999   2.463  0.00  0.00    +0.342 C 
BRANCH  30  31
ATOM     31  O   UNL     1     -39.625  24.418   3.671  0.00  0.00    -0.479 OA
ATOM     32  H   UNL     1     -39.528  25.334   3.842  0.00  0.00    +0.295 HD
ENDBRANCH  30  31
ENDBRANCH  26  30
ENDBRANCH  25  26
ENDBRANCH  24  25
ENDBRANCH   4  24
TORSDOF 8
ENDMDL
MODEL 7
REMARK VINA RESULT:      -5.7      3.583      5.838
REMARK  Name = 52316118
REMARK  8 active torsions:
REMARK  status: ('A' for Active; 'I' for Inactive)
REMARK    1  A    between atoms: C_4  and  S_24
REMARK    2  A    between atoms: C_16  and  O_20
REMARK    3  A    between atoms: C_19  and  O_22
REMARK    4  A    between atoms: S_24  and  C_25
REMARK    5  A    between atoms: C_25  and  C_26
REMARK    6  A    between atoms: C_26  and  O_27
REMARK    7  A    between atoms: C_26  and  C_30
REMARK    8  A    between atoms: C_30  and  O_31
REMARK                            x       y       z     vdW  Elec       q    Type
REMARK                         _______ _______ _______ _____ _____    ______ ____
ROOT
ATOM      1  O   UNL     1     -33.714  24.959   0.197  0.00  0.00    -0.452 OA
ATOM      2  O   UNL     1     -36.514  22.753   0.108  0.00  0.00    -0.291 OA
ATOM      3  O   UNL     1     -31.649  23.958  -0.063  0.00  0.00    -0.250 OA
ATOM      4  C   UNL     1     -36.029  24.296   2.702  0.00  0.00    +0.055 C 
ATOM      5  C   UNL     1     -34.568  24.513   3.139  0.00  0.00    +0.011 C 
ATOM      6  C   UNL     1     -34.092  25.971   3.165  0.00  0.00    +0.005 C 
ATOM      7  C   UNL     1     -34.098  26.719   1.824  0.00  0.00    +0.044 C 
ATOM      8  C   UNL     1     -36.323  22.802   2.501  0.00  0.00    +0.080 C 
ATOM      9  C   UNL     1     -33.128  26.141   0.784  0.00  0.00    +0.169 C 
ATOM     10  C   UNL     1     -35.915  22.359   1.104  0.00  0.00    +0.177 C 
ATOM     11  C   UNL     1     -34.780  21.417   0.954  0.00  0.00    +0.065 C 
ATOM     12  C   UNL     1     -32.888  27.141  -0.344  0.00  0.00    +0.047 C 
ATOM     13  C   UNL     1     -33.745  21.635   0.022  0.00  0.00    -0.002 C 
ATOM     14  C   UNL     1     -33.639  22.855  -0.857  0.00  0.00    +0.136 C 
ATOM     15  C   UNL     1     -32.865  23.970  -0.205  0.00  0.00    +0.321 C 
ATOM     16  C   UNL     1     -34.787  20.260   1.748  0.00  0.00    +0.139 C 
ATOM     17  C   UNL     1     -32.715  20.679  -0.058  0.00  0.00    +0.033 C 
ATOM     18  C   UNL     1     -33.759  19.326   1.642  0.00  0.00    +0.073 C 
ATOM     19  C   UNL     1     -32.721  19.536   0.741  0.00  0.00    +0.136 C 
ENDROOT
BRANCH  16  20
ATOM     20  O   UNL     1     -35.802  19.915   2.588  0.00  0.00    -0.505 OA
ATOM     21  H   UNL     1     -36.629  19.645   2.240  0.00  0.00    +0.292 HD
ENDBRANCH  16  20
BRANCH  19  22
ATOM     22  O   UNL     1     -31.715  18.626   0.637  0.00  0.00    -0.505 OA
ATOM     23  H   UNL     1     -30.825  18.897   0.751  0.00  0.00    +0.292 HD
ENDBRANCH  19  22
BRANCH   4  24
ATOM     24  S   UNL     1     -37.172  24.955   3.973  0.00  0.00    -0.138 S 
BRANCH  24  25
ATOM     25  C   UNL     1     -38.202  25.951   2.876  0.00  0.00    +0.098 C 
BRANCH  25  26
ATOM     26  C   UNL     1     -39.626  25.404   2.813  0.00  0.00    +0.220 C 
BRANCH  26  27
ATOM     27  O   UNL     1     -39.964  24.846   4.076  0.00  0.00    -0.374 OA
ATOM     28  H   UNL     1     -40.226  23.919   3.960  0.00  0.00    +0.211 HD
ENDBRANCH  26  27
BRANCH  26  30
ATOM     29  O   UNL     1     -40.429  23.298   1.897  0.00  0.00    -0.248 OA
ATOM     30  C   UNL     1     -39.722  24.291   1.788  0.00  0.00    +0.342 C 
BRANCH  30  31
ATOM     31  O   UNL     1     -38.908  24.504   0.721  0.00  0.00    -0.479 OA
ATOM     32  H   UNL     1     -38.001  24.694   0.856  0.00  0.00    +0.295 HD
ENDBRANCH  30  31
ENDBRANCH  26  30
ENDBRANCH  25  26
ENDBRANCH  24  25
ENDBRANCH   4  24
TORSDOF 8
ENDMDL
MODEL 8
REMARK VINA RESULT:      -5.7     10.139     12.362
REMARK  Name = 52316118
REMARK  8 active torsions:
REMARK  status: ('A' for Active; 'I' for Inactive)
REMARK    1  A    between atoms: C_4  and  S_24
REMARK    2  A    between atoms: C_16  and  O_20
REMARK    3  A    between atoms: C_19  and  O_22
REMARK    4  A    between atoms: S_24  and  C_25
REMARK    5  A    between atoms: C_25  and  C_26
REMARK    6  A    between atoms: C_26  and  O_27
REMARK    7  A    between atoms: C_26  and  C_30
REMARK    8  A    between atoms: C_30  and  O_31
REMARK                            x       y       z     vdW  Elec       q    Type
REMARK                         _______ _______ _______ _____ _____    ______ ____
ROOT
ATOM      1  O   UNL     1     -44.072  32.110   3.145  0.00  0.00    -0.452 OA
ATOM      2  O   UNL     1     -42.830  29.814   5.574  0.00  0.00    -0.291 OA
ATOM      3  O   UNL     1     -45.785  33.485   3.860  0.00  0.00    -0.250 OA
ATOM      4  C   UNL     1     -44.113  28.636   3.061  0.00  0.00    +0.055 C 
ATOM      5  C   UNL     1     -45.339  29.365   2.479  0.00  0.00    +0.011 C 
ATOM      6  C   UNL     1     -45.150  29.973   1.084  0.00  0.00    +0.005 C 
ATOM      7  C   UNL     1     -44.083  31.070   0.952  0.00  0.00    +0.044 C 
ATOM      8  C   UNL     1     -44.345  28.267   4.534  0.00  0.00    +0.080 C 
ATOM      9  C   UNL     1     -44.393  32.340   1.757  0.00  0.00    +0.169 C 
ATOM     10  C   UNL     1     -43.991  29.436   5.441  0.00  0.00    +0.177 C 
ATOM     11  C   UNL     1     -45.075  30.116   6.190  0.00  0.00    +0.065 C 
ATOM     12  C   UNL     1     -43.534  33.506   1.275  0.00  0.00    +0.047 C 
ATOM     13  C   UNL     1     -45.196  31.519   6.223  0.00  0.00    -0.002 C 
ATOM     14  C   UNL     1     -44.301  32.465   5.462  0.00  0.00    +0.136 C 
ATOM     15  C   UNL     1     -44.821  32.763   4.080  0.00  0.00    +0.321 C 
ATOM     16  C   UNL     1     -45.966  29.310   6.915  0.00  0.00    +0.139 C 
ATOM     17  C   UNL     1     -46.250  32.076   6.971  0.00  0.00    +0.033 C 
ATOM     18  C   UNL     1     -46.996  29.888   7.654  0.00  0.00    +0.073 C 
ATOM     19  C   UNL     1     -47.140  31.270   7.681  0.00  0.00    +0.136 C 
ENDROOT
BRANCH  16  20
ATOM     20  O   UNL     1     -45.855  27.958   7.031  0.00  0.00    -0.505 OA
ATOM     21  H   UNL     1     -46.570  27.405   6.782  0.00  0.00    +0.292 HD
ENDBRANCH  16  20
BRANCH  19  22
ATOM     22  O   UNL     1     -48.146  31.837   8.401  0.00  0.00    -0.505 OA
ATOM     23  H   UNL     1     -48.310  31.552   9.279  0.00  0.00    +0.292 HD
ENDBRANCH  19  22
BRANCH   4  24
ATOM     24  S   UNL     1     -43.783  27.103   2.115  0.00  0.00    -0.138 S 
BRANCH  24  25
ATOM     25  C   UNL     1     -41.981  27.166   2.176  0.00  0.00    +0.098 C 
BRANCH  25  26
ATOM     26  C   UNL     1     -41.449  26.488   3.437  0.00  0.00    +0.220 C 
BRANCH  26  27
ATOM     27  O   UNL     1     -41.113  27.487   4.392  0.00  0.00    -0.374 OA
ATOM     28  H   UNL     1     -40.209  27.799   4.230  0.00  0.00    +0.211 HD
ENDBRANCH  26  27
BRANCH  26  30
ATOM     29  O   UNL     1     -40.145  24.539   2.790  0.00  0.00    -0.248 OA
ATOM     30  C   UNL     1     -40.182  25.714   3.129  0.00  0.00    +0.342 C 
BRANCH  30  31
ATOM     31  O   UNL     1     -39.067  26.472   3.291  0.00  0.00    -0.479 OA
ATOM     32  H   UNL     1     -38.447  26.548   2.592  0.00  0.00    +0.295 HD
ENDBRANCH  30  31
ENDBRANCH  26  30
ENDBRANCH  25  26
ENDBRANCH  24  25
ENDBRANCH   4  24
TORSDOF 8
ENDMDL
MODEL 9
REMARK VINA RESULT:      -5.6      3.520      5.154
REMARK  Name = 52316118
REMARK  8 active torsions:
REMARK  status: ('A' for Active; 'I' for Inactive)
REMARK    1  A    between atoms: C_4  and  S_24
REMARK    2  A    between atoms: C_16  and  O_20
REMARK    3  A    between atoms: C_19  and  O_22
REMARK    4  A    between atoms: S_24  and  C_25
REMARK    5  A    between atoms: C_25  and  C_26
REMARK    6  A    between atoms: C_26  and  O_27
REMARK    7  A    between atoms: C_26  and  C_30
REMARK    8  A    between atoms: C_30  and  O_31
REMARK                            x       y       z     vdW  Elec       q    Type
REMARK                         _______ _______ _______ _____ _____    ______ ____
ROOT
ATOM      1  O   UNL     1     -36.400  23.355   0.316  0.00  0.00    -0.452 OA
ATOM      2  O   UNL     1     -36.909  26.562   1.789  0.00  0.00    -0.291 OA
ATOM      3  O   UNL     1     -38.187  22.515  -0.883  0.00  0.00    -0.250 OA
ATOM      4  C   UNL     1     -36.395  24.217   3.682  0.00  0.00    +0.055 C 
ATOM      5  C   UNL     1     -37.008  22.854   3.310  0.00  0.00    +0.011 C 
ATOM      6  C   UNL     1     -36.003  21.736   3.000  0.00  0.00    +0.005 C 
ATOM      7  C   UNL     1     -35.074  21.964   1.799  0.00  0.00    +0.044 C 
ATOM      8  C   UNL     1     -37.480  25.303   3.753  0.00  0.00    +0.080 C 
ATOM      9  C   UNL     1     -35.805  22.046   0.452  0.00  0.00    +0.169 C 
ATOM     10  C   UNL     1     -37.748  25.881   2.372  0.00  0.00    +0.177 C 
ATOM     11  C   UNL     1     -39.062  25.628   1.731  0.00  0.00    +0.065 C 
ATOM     12  C   UNL     1     -34.825  21.866  -0.705  0.00  0.00    +0.047 C 
ATOM     13  C   UNL     1     -39.171  25.197   0.394  0.00  0.00    -0.002 C 
ATOM     14  C   UNL     1     -37.994  24.886  -0.496  0.00  0.00    +0.136 C 
ATOM     15  C   UNL     1     -37.561  23.447  -0.394  0.00  0.00    +0.321 C 
ATOM     16  C   UNL     1     -40.213  25.875   2.493  0.00  0.00    +0.139 C 
ATOM     17  C   UNL     1     -40.461  24.995  -0.133  0.00  0.00    +0.033 C 
ATOM     18  C   UNL     1     -41.478  25.674   1.945  0.00  0.00    +0.073 C 
ATOM     19  C   UNL     1     -41.603  25.232   0.632  0.00  0.00    +0.136 C 
ENDROOT
BRANCH  16  20
ATOM     20  O   UNL     1     -40.201  26.399   3.750  0.00  0.00    -0.505 OA
ATOM     21  H   UNL     1     -39.864  27.262   3.896  0.00  0.00    +0.292 HD
ENDBRANCH  16  20
BRANCH  19  22
ATOM     22  O   UNL     1     -42.837  25.033   0.094  0.00  0.00    -0.505 OA
ATOM     23  H   UNL     1     -43.599  25.107   0.634  0.00  0.00    +0.292 HD
ENDBRANCH  19  22
BRANCH   4  24
ATOM     24  S   UNL     1     -35.562  24.110   5.310  0.00  0.00    -0.138 S 
BRANCH  24  25
ATOM     25  C   UNL     1     -35.273  25.875   5.548  0.00  0.00    +0.098 C 
BRANCH  25  26
ATOM     26  C   UNL     1     -33.896  26.282   5.027  0.00  0.00    +0.220 C 
BRANCH  26  27
ATOM     27  O   UNL     1     -33.239  27.062   6.017  0.00  0.00    -0.374 OA
ATOM     28  H   UNL     1     -32.548  27.600   5.599  0.00  0.00    +0.211 HD
ENDBRANCH  26  27
BRANCH  26  30
ATOM     29  O   UNL     1     -33.202  27.221   2.892  0.00  0.00    -0.248 OA
ATOM     30  C   UNL     1     -34.032  27.147   3.789  0.00  0.00    +0.342 C 
BRANCH  30  31
ATOM     31  O   UNL     1     -35.187  27.861   3.786  0.00  0.00    -0.479 OA
ATOM     32  H   UNL     1     -35.853  27.677   4.419  0.00  0.00    +0.295 HD
ENDBRANCH  30  31
ENDBRANCH  26  30
ENDBRANCH  25  26
ENDBRANCH  24  25
ENDBRANCH   4  24
TORSDOF 8
ENDMDL
