MODEL 1
REMARK VINA RESULT:      -5.8      0.000      0.000
REMARK  Name = 54180830
REMARK  12 active torsions:
REMARK  status: ('A' for Active; 'I' for Inactive)
REMARK    1  A    between atoms: C_1  and  C_2
REMARK    2  A    between atoms: C_1  and  N_16
REMARK    3  A    between atoms: C_5  and  N_10
REMARK    4  A    between atoms: C_6  and  O_11
REMARK    5  A    between atoms: C_7  and  O_13
REMARK    6  A    between atoms: C_17  and  C_19
REMARK    7  A    between atoms: C_19  and  C_20
REMARK    8  A    between atoms: C_20  and  C_21
REMARK    9  A    between atoms: C_21  and  C_22
REMARK   10  A    between atoms: C_22  and  C_23
REMARK   11  A    between atoms: C_23  and  C_24
REMARK   12  A    between atoms: C_24  and  C_25
REMARK                            x       y       z     vdW  Elec       q    Type
REMARK                         _______ _______ _______ _____ _____    ______ ____
ROOT
ATOM      1  C   UNL     1     -34.138  25.980   6.016  0.00  0.00    +0.116 C 
ENDROOT
BRANCH   1   2
ATOM      2  C   UNL     1     -35.073  25.063   5.283  0.00  0.00    +0.002 C 
ATOM      3  C   UNL     1     -34.794  23.699   5.203  0.00  0.00    +0.025 C 
ATOM      4  C   UNL     1     -36.223  25.576   4.681  0.00  0.00    +0.038 C 
ATOM      5  C   UNL     1     -35.663  22.848   4.521  0.00  0.00    +0.179 C 
ATOM      6  C   UNL     1     -37.092  24.725   3.999  0.00  0.00    +0.174 C 
ATOM      7  C   UNL     1     -36.812  23.361   3.919  0.00  0.00    +0.191 C 
BRANCH   5  10
ATOM      8  O   UNL     1     -35.463  20.874   3.346  0.00  0.00    -0.126 OA
ATOM      9  O   UNL     1     -35.003  20.863   5.492  0.00  0.00    -0.126 OA
ATOM     10  N   UNL     1     -35.361  21.459   4.450  0.00  0.00    +0.061 N 
ENDBRANCH   5  10
BRANCH   6  11
ATOM     11  O   UNL     1     -38.211  25.239   3.416  0.00  0.00    -0.468 OA
ATOM     12  C   UNL     1     -38.019  26.123   2.313  0.00  0.00    +0.253 C 
ENDBRANCH   6  11
BRANCH   7  13
ATOM     13  O   UNL     1     -37.671  22.537   3.249  0.00  0.00    -0.502 OA
ATOM     14  H   UNL     1     -38.581  22.752   3.198  0.00  0.00    +0.292 HD
ENDBRANCH   7  13
ENDBRANCH   1   2
BRANCH   1  16
ATOM     15  O   UNL     1     -32.365  26.305   3.747  0.00  0.00    -0.275 OA
ATOM     16  N   UNL     1     -33.876  27.193   5.274  0.00  0.00    -0.300 N 
ATOM     17  C   UNL     1     -33.005  27.252   4.195  0.00  0.00    +0.223 C 
ATOM     18  H   UNL     1     -34.338  28.018   5.548  0.00  0.00    +0.150 HD
BRANCH  17  19
ATOM     19  C   UNL     1     -32.932  28.654   3.616  0.00  0.00    +0.085 C 
BRANCH  19  20
ATOM     20  C   UNL     1     -31.707  29.425   4.107  0.00  0.00    +0.010 C 
BRANCH  20  21
ATOM     21  C   UNL     1     -32.028  30.230   5.368  0.00  0.00    +0.001 C 
BRANCH  21  22
ATOM     22  C   UNL     1     -31.327  29.701   6.622  0.00  0.00    +0.000 C 
BRANCH  22  23
ATOM     23  C   UNL     1     -30.005  28.988   6.326  0.00  0.00    +0.000 C 
BRANCH  23  24
ATOM     24  C   UNL     1     -28.876  29.526   7.208  0.00  0.00    +0.000 C 
BRANCH  24  25
ATOM     25  C   UNL     1     -27.956  28.400   7.680  0.00  0.00    +0.000 C 
ATOM     26  C   UNL     1     -28.250  27.098   6.955  0.00  0.00    +0.000 C 
ENDBRANCH  24  25
ENDBRANCH  23  24
ENDBRANCH  22  23
ENDBRANCH  21  22
ENDBRANCH  20  21
ENDBRANCH  19  20
ENDBRANCH  17  19
ENDBRANCH   1  16
TORSDOF 12
ENDMDL
MODEL 2
REMARK VINA RESULT:      -5.7      3.791      5.591
REMARK  Name = 54180830
REMARK  12 active torsions:
REMARK  status: ('A' for Active; 'I' for Inactive)
REMARK    1  A    between atoms: C_1  and  C_2
REMARK    2  A    between atoms: C_1  and  N_16
REMARK    3  A    between atoms: C_5  and  N_10
REMARK    4  A    between atoms: C_6  and  O_11
REMARK    5  A    between atoms: C_7  and  O_13
REMARK    6  A    between atoms: C_17  and  C_19
REMARK    7  A    between atoms: C_19  and  C_20
REMARK    8  A    between atoms: C_20  and  C_21
REMARK    9  A    between atoms: C_21  and  C_22
REMARK   10  A    between atoms: C_22  and  C_23
REMARK   11  A    between atoms: C_23  and  C_24
REMARK   12  A    between atoms: C_24  and  C_25
REMARK                            x       y       z     vdW  Elec       q    Type
REMARK                         _______ _______ _______ _____ _____    ______ ____
ROOT
ATOM      1  C   UNL     1     -33.762  23.962   0.408  0.00  0.00    +0.116 C 
ENDROOT
BRANCH   1   2
ATOM      2  C   UNL     1     -34.579  22.852   1.001  0.00  0.00    +0.002 C 
ATOM      3  C   UNL     1     -35.845  23.119   1.524  0.00  0.00    +0.025 C 
ATOM      4  C   UNL     1     -34.074  21.552   1.029  0.00  0.00    +0.038 C 
ATOM      5  C   UNL     1     -36.604  22.087   2.076  0.00  0.00    +0.179 C 
ATOM      6  C   UNL     1     -34.832  20.520   1.581  0.00  0.00    +0.174 C 
ATOM      7  C   UNL     1     -36.097  20.788   2.104  0.00  0.00    +0.191 C 
BRANCH   5  10
ATOM      8  O   UNL     1     -38.013  23.336   3.406  0.00  0.00    -0.126 OA
ATOM      9  O   UNL     1     -38.864  21.672   2.255  0.00  0.00    -0.126 OA
ATOM     10  N   UNL     1     -37.891  22.379   2.605  0.00  0.00    +0.061 N 
ENDBRANCH   5  10
BRANCH   6  11
ATOM     11  O   UNL     1     -34.326  19.256   1.602  0.00  0.00    -0.468 OA
ATOM     12  C   UNL     1     -33.404  18.910   0.570  0.00  0.00    +0.253 C 
ENDBRANCH   6  11
BRANCH   7  13
ATOM     13  O   UNL     1     -36.831  19.769   2.642  0.00  0.00    -0.502 OA
ATOM     14  H   UNL     1     -37.677  19.567   2.293  0.00  0.00    +0.292 HD
ENDBRANCH   7  13
ENDBRANCH   1   2
BRANCH   1  16
ATOM     15  O   UNL     1     -34.891  26.629   0.295  0.00  0.00    -0.275 OA
ATOM     16  N   UNL     1     -33.555  25.043   1.346  0.00  0.00    -0.300 N 
ATOM     17  C   UNL     1     -34.141  26.293   1.208  0.00  0.00    +0.223 C 
ATOM     18  H   UNL     1     -32.969  24.885   2.120  0.00  0.00    +0.150 HD
BRANCH  17  19
ATOM     19  C   UNL     1     -33.742  27.223   2.341  0.00  0.00    +0.085 C 
BRANCH  19  20
ATOM     20  C   UNL     1     -34.935  27.641   3.200  0.00  0.00    +0.010 C 
BRANCH  20  21
ATOM     21  C   UNL     1     -35.812  26.439   3.552  0.00  0.00    +0.001 C 
BRANCH  21  22
ATOM     22  C   UNL     1     -35.746  26.050   5.032  0.00  0.00    +0.000 C 
BRANCH  22  23
ATOM     23  C   UNL     1     -34.453  25.324   5.413  0.00  0.00    +0.000 C 
BRANCH  23  24
ATOM     24  C   UNL     1     -34.478  23.867   4.945  0.00  0.00    +0.000 C 
BRANCH  24  25
ATOM     25  C   UNL     1     -35.449  23.032   5.780  0.00  0.00    +0.000 C 
ATOM     26  C   UNL     1     -35.143  21.547   5.672  0.00  0.00    +0.000 C 
ENDBRANCH  24  25
ENDBRANCH  23  24
ENDBRANCH  22  23
ENDBRANCH  21  22
ENDBRANCH  20  21
ENDBRANCH  19  20
ENDBRANCH  17  19
ENDBRANCH   1  16
TORSDOF 12
ENDMDL
MODEL 3
REMARK VINA RESULT:      -5.7      1.618      2.296
REMARK  Name = 54180830
REMARK  12 active torsions:
REMARK  status: ('A' for Active; 'I' for Inactive)
REMARK    1  A    between atoms: C_1  and  C_2
REMARK    2  A    between atoms: C_1  and  N_16
REMARK    3  A    between atoms: C_5  and  N_10
REMARK    4  A    between atoms: C_6  and  O_11
REMARK    5  A    between atoms: C_7  and  O_13
REMARK    6  A    between atoms: C_17  and  C_19
REMARK    7  A    between atoms: C_19  and  C_20
REMARK    8  A    between atoms: C_20  and  C_21
REMARK    9  A    between atoms: C_21  and  C_22
REMARK   10  A    between atoms: C_22  and  C_23
REMARK   11  A    between atoms: C_23  and  C_24
REMARK   12  A    between atoms: C_24  and  C_25
REMARK                            x       y       z     vdW  Elec       q    Type
REMARK                         _______ _______ _______ _____ _____    ______ ____
ROOT
ATOM      1  C   UNL     1     -33.821  26.576   5.355  0.00  0.00    +0.116 C 
ENDROOT
BRANCH   1   2
ATOM      2  C   UNL     1     -34.743  25.498   4.861  0.00  0.00    +0.002 C 
ATOM      3  C   UNL     1     -34.742  24.245   5.473  0.00  0.00    +0.025 C 
ATOM      4  C   UNL     1     -35.601  25.751   3.790  0.00  0.00    +0.038 C 
ATOM      5  C   UNL     1     -35.598  23.244   5.014  0.00  0.00    +0.179 C 
ATOM      6  C   UNL     1     -36.457  24.751   3.331  0.00  0.00    +0.174 C 
ATOM      7  C   UNL     1     -36.455  23.497   3.943  0.00  0.00    +0.191 C 
BRANCH   5  10
ATOM      8  O   UNL     1     -36.092  21.859   6.789  0.00  0.00    -0.126 OA
ATOM      9  O   UNL     1     -35.060  21.002   5.051  0.00  0.00    -0.126 OA
ATOM     10  N   UNL     1     -35.583  21.972   5.649  0.00  0.00    +0.061 N 
ENDBRANCH   5  10
BRANCH   6  11
ATOM     11  O   UNL     1     -37.289  25.012   2.284  0.00  0.00    -0.468 OA
ATOM     12  C   UNL     1     -38.066  26.205   2.356  0.00  0.00    +0.253 C 
ENDBRANCH   6  11
BRANCH   7  13
ATOM     13  O   UNL     1     -37.298  22.525   3.485  0.00  0.00    -0.502 OA
ATOM     14  H   UNL     1     -37.991  22.747   2.894  0.00  0.00    +0.292 HD
ENDBRANCH   7  13
ENDBRANCH   1   2
BRANCH   1  16
ATOM     15  O   UNL     1     -31.728  26.774   3.360  0.00  0.00    -0.275 OA
ATOM     16  N   UNL     1     -33.639  27.623   4.375  0.00  0.00    -0.300 N 
ATOM     17  C   UNL     1     -32.600  27.633   3.455  0.00  0.00    +0.223 C 
ATOM     18  H   UNL     1     -34.284  28.366   4.360  0.00  0.00    +0.150 HD
BRANCH  17  19
ATOM     19  C   UNL     1     -32.665  28.855   2.556  0.00  0.00    +0.085 C 
BRANCH  19  20
ATOM     20  C   UNL     1     -33.788  29.813   2.953  0.00  0.00    +0.010 C 
BRANCH  20  21
ATOM     21  C   UNL     1     -33.357  31.271   2.785  0.00  0.00    +0.001 C 
BRANCH  21  22
ATOM     22  C   UNL     1     -31.838  31.463   2.807  0.00  0.00    +0.000 C 
BRANCH  22  23
ATOM     23  C   UNL     1     -31.323  32.100   4.100  0.00  0.00    +0.000 C 
BRANCH  23  24
ATOM     24  C   UNL     1     -30.851  31.035   5.092  0.00  0.00    +0.000 C 
BRANCH  24  25
ATOM     25  C   UNL     1     -31.949  30.685   6.096  0.00  0.00    +0.000 C 
ATOM     26  C   UNL     1     -31.620  29.413   6.861  0.00  0.00    +0.000 C 
ENDBRANCH  24  25
ENDBRANCH  23  24
ENDBRANCH  22  23
ENDBRANCH  21  22
ENDBRANCH  20  21
ENDBRANCH  19  20
ENDBRANCH  17  19
ENDBRANCH   1  16
TORSDOF 12
ENDMDL
MODEL 4
REMARK VINA RESULT:      -5.6      2.115      4.080
REMARK  Name = 54180830
REMARK  12 active torsions:
REMARK  status: ('A' for Active; 'I' for Inactive)
REMARK    1  A    between atoms: C_1  and  C_2
REMARK    2  A    between atoms: C_1  and  N_16
REMARK    3  A    between atoms: C_5  and  N_10
REMARK    4  A    between atoms: C_6  and  O_11
REMARK    5  A    between atoms: C_7  and  O_13
REMARK    6  A    between atoms: C_17  and  C_19
REMARK    7  A    between atoms: C_19  and  C_20
REMARK    8  A    between atoms: C_20  and  C_21
REMARK    9  A    between atoms: C_21  and  C_22
REMARK   10  A    between atoms: C_22  and  C_23
REMARK   11  A    between atoms: C_23  and  C_24
REMARK   12  A    between atoms: C_24  and  C_25
REMARK                            x       y       z     vdW  Elec       q    Type
REMARK                         _______ _______ _______ _____ _____    ______ ____
ROOT
ATOM      1  C   UNL     1     -34.161  26.044   6.016  0.00  0.00    +0.116 C 
ENDROOT
BRANCH   1   2
ATOM      2  C   UNL     1     -35.068  25.099   5.283  0.00  0.00    +0.002 C 
ATOM      3  C   UNL     1     -34.797  23.731   5.281  0.00  0.00    +0.025 C 
ATOM      4  C   UNL     1     -36.184  25.590   4.603  0.00  0.00    +0.038 C 
ATOM      5  C   UNL     1     -35.640  22.854   4.599  0.00  0.00    +0.179 C 
ATOM      6  C   UNL     1     -37.027  24.713   3.921  0.00  0.00    +0.174 C 
ATOM      7  C   UNL     1     -36.755  23.345   3.919  0.00  0.00    +0.191 C 
BRANCH   5  10
ATOM      8  O   UNL     1     -35.363  20.834   3.523  0.00  0.00    -0.126 OA
ATOM      9  O   UNL     1     -35.084  20.905   5.699  0.00  0.00    -0.126 OA
ATOM     10  N   UNL     1     -35.348  21.462   4.608  0.00  0.00    +0.061 N 
ENDBRANCH   5  10
BRANCH   6  11
ATOM     11  O   UNL     1     -38.112  25.207   3.262  0.00  0.00    -0.468 OA
ATOM     12  C   UNL     1     -37.880  26.267   2.336  0.00  0.00    +0.253 C 
ENDBRANCH   6  11
BRANCH   7  13
ATOM     13  O   UNL     1     -37.588  22.496   3.248  0.00  0.00    -0.502 OA
ATOM     14  H   UNL     1     -37.242  21.727   2.840  0.00  0.00    +0.292 HD
ENDBRANCH   7  13
ENDBRANCH   1   2
BRANCH   1  16
ATOM     15  O   UNL     1     -31.715  27.565   6.337  0.00  0.00    -0.275 OA
ATOM     16  N   UNL     1     -33.660  27.092   5.155  0.00  0.00    -0.300 N 
ATOM     17  C   UNL     1     -32.471  27.768   5.391  0.00  0.00    +0.223 C 
ATOM     18  H   UNL     1     -34.189  27.338   4.363  0.00  0.00    +0.150 HD
BRANCH  17  19
ATOM     19  C   UNL     1     -32.204  28.813   4.321  0.00  0.00    +0.085 C 
BRANCH  19  20
ATOM     20  C   UNL     1     -32.071  30.221   4.901  0.00  0.00    +0.010 C 
BRANCH  20  21
ATOM     21  C   UNL     1     -32.267  31.285   3.820  0.00  0.00    +0.001 C 
BRANCH  21  22
ATOM     22  C   UNL     1     -33.337  30.915   2.789  0.00  0.00    +0.000 C 
BRANCH  22  23
ATOM     23  C   UNL     1     -34.764  31.198   3.265  0.00  0.00    +0.000 C 
BRANCH  23  24
ATOM     24  C   UNL     1     -35.796  30.681   2.259  0.00  0.00    +0.000 C 
BRANCH  24  25
ATOM     25  C   UNL     1     -36.776  31.781   1.853  0.00  0.00    +0.000 C 
ATOM     26  C   UNL     1     -36.062  32.948   1.190  0.00  0.00    +0.000 C 
ENDBRANCH  24  25
ENDBRANCH  23  24
ENDBRANCH  22  23
ENDBRANCH  21  22
ENDBRANCH  20  21
ENDBRANCH  19  20
ENDBRANCH  17  19
ENDBRANCH   1  16
TORSDOF 12
ENDMDL
MODEL 5
REMARK VINA RESULT:      -5.5      4.707      6.922
REMARK  Name = 54180830
REMARK  12 active torsions:
REMARK  status: ('A' for Active; 'I' for Inactive)
REMARK    1  A    between atoms: C_1  and  C_2
REMARK    2  A    between atoms: C_1  and  N_16
REMARK    3  A    between atoms: C_5  and  N_10
REMARK    4  A    between atoms: C_6  and  O_11
REMARK    5  A    between atoms: C_7  and  O_13
REMARK    6  A    between atoms: C_17  and  C_19
REMARK    7  A    between atoms: C_19  and  C_20
REMARK    8  A    between atoms: C_20  and  C_21
REMARK    9  A    between atoms: C_21  and  C_22
REMARK   10  A    between atoms: C_22  and  C_23
REMARK   11  A    between atoms: C_23  and  C_24
REMARK   12  A    between atoms: C_24  and  C_25
REMARK                            x       y       z     vdW  Elec       q    Type
REMARK                         _______ _______ _______ _____ _____    ______ ____
ROOT
ATOM      1  C   UNL     1     -37.410  25.553   3.997  0.00  0.00    +0.116 C 
ENDROOT
BRANCH   1   2
ATOM      2  C   UNL     1     -38.518  25.022   3.134  0.00  0.00    +0.002 C 
ATOM      3  C   UNL     1     -38.521  23.682   2.747  0.00  0.00    +0.025 C 
ATOM      4  C   UNL     1     -39.545  25.870   2.719  0.00  0.00    +0.038 C 
ATOM      5  C   UNL     1     -39.550  23.190   1.945  0.00  0.00    +0.179 C 
ATOM      6  C   UNL     1     -40.574  25.378   1.916  0.00  0.00    +0.174 C 
ATOM      7  C   UNL     1     -40.577  24.038   1.529  0.00  0.00    +0.191 C 
BRANCH   5  10
ATOM      8  O   UNL     1     -40.466  21.074   1.946  0.00  0.00    -0.126 OA
ATOM      9  O   UNL     1     -38.595  21.402   0.846  0.00  0.00    -0.126 OA
ATOM     10  N   UNL     1     -39.536  21.821   1.560  0.00  0.00    +0.061 N 
ENDBRANCH   5  10
BRANCH   6  11
ATOM     11  O   UNL     1     -41.571  26.218   1.518  0.00  0.00    -0.468 OA
ATOM     12  C   UNL     1     -41.255  27.158   0.493  0.00  0.00    +0.253 C 
ENDBRANCH   6  11
BRANCH   7  13
ATOM     13  O   UNL     1     -41.590  23.568   0.744  0.00  0.00    -0.502 OA
ATOM     14  H   UNL     1     -42.260  24.151   0.445  0.00  0.00    +0.292 HD
ENDBRANCH   7  13
ENDBRANCH   1   2
BRANCH   1  16
ATOM     15  O   UNL     1     -35.040  25.826   5.642  0.00  0.00    -0.275 OA
ATOM     16  N   UNL     1     -36.600  24.491   4.552  0.00  0.00    -0.300 N 
ATOM     17  C   UNL     1     -35.476  24.720   5.333  0.00  0.00    +0.223 C 
ATOM     18  H   UNL     1     -36.859  23.560   4.366  0.00  0.00    +0.150 HD
BRANCH  17  19
ATOM     19  C   UNL     1     -34.830  23.418   5.772  0.00  0.00    +0.085 C 
BRANCH  19  20
ATOM     20  C   UNL     1     -35.733  22.208   5.534  0.00  0.00    +0.010 C 
BRANCH  20  21
ATOM     21  C   UNL     1     -35.119  21.251   4.511  0.00  0.00    +0.001 C 
BRANCH  21  22
ATOM     22  C   UNL     1     -35.616  21.488   3.082  0.00  0.00    +0.000 C 
BRANCH  22  23
ATOM     23  C   UNL     1     -35.493  20.255   2.183  0.00  0.00    +0.000 C 
BRANCH  23  24
ATOM     24  C   UNL     1     -34.198  20.291   1.369  0.00  0.00    +0.000 C 
BRANCH  24  25
ATOM     25  C   UNL     1     -33.426  18.977   1.495  0.00  0.00    +0.000 C 
ATOM     26  C   UNL     1     -32.138  19.008   0.688  0.00  0.00    +0.000 C 
ENDBRANCH  24  25
ENDBRANCH  23  24
ENDBRANCH  22  23
ENDBRANCH  21  22
ENDBRANCH  20  21
ENDBRANCH  19  20
ENDBRANCH  17  19
ENDBRANCH   1  16
TORSDOF 12
ENDMDL
MODEL 6
REMARK VINA RESULT:      -5.5      3.793      5.128
REMARK  Name = 54180830
REMARK  12 active torsions:
REMARK  status: ('A' for Active; 'I' for Inactive)
REMARK    1  A    between atoms: C_1  and  C_2
REMARK    2  A    between atoms: C_1  and  N_16
REMARK    3  A    between atoms: C_5  and  N_10
REMARK    4  A    between atoms: C_6  and  O_11
REMARK    5  A    between atoms: C_7  and  O_13
REMARK    6  A    between atoms: C_17  and  C_19
REMARK    7  A    between atoms: C_19  and  C_20
REMARK    8  A    between atoms: C_20  and  C_21
REMARK    9  A    between atoms: C_21  and  C_22
REMARK   10  A    between atoms: C_22  and  C_23
REMARK   11  A    between atoms: C_23  and  C_24
REMARK   12  A    between atoms: C_24  and  C_25
REMARK                            x       y       z     vdW  Elec       q    Type
REMARK                         _______ _______ _______ _____ _____    ______ ____
ROOT
ATOM      1  C   UNL     1     -33.835  24.126   0.219  0.00  0.00    +0.116 C 
ENDROOT
BRANCH   1   2
ATOM      2  C   UNL     1     -34.578  22.996   0.871  0.00  0.00    +0.002 C 
ATOM      3  C   UNL     1     -34.146  21.682   0.696  0.00  0.00    +0.025 C 
ATOM      4  C   UNL     1     -35.702  23.262   1.655  0.00  0.00    +0.038 C 
ATOM      5  C   UNL     1     -34.838  20.633   1.301  0.00  0.00    +0.179 C 
ATOM      6  C   UNL     1     -36.394  22.213   2.260  0.00  0.00    +0.174 C 
ATOM      7  C   UNL     1     -35.962  20.899   2.084  0.00  0.00    +0.191 C 
BRANCH   5  10
ATOM      8  O   UNL     1     -33.322  18.936   1.671  0.00  0.00    -0.126 OA
ATOM      9  O   UNL     1     -35.055  18.528   0.387  0.00  0.00    -0.126 OA
ATOM     10  N   UNL     1     -34.383  19.299   1.110  0.00  0.00    +0.061 N 
ENDBRANCH   5  10
BRANCH   6  11
ATOM     11  O   UNL     1     -37.490  22.488   3.022  0.00  0.00    -0.468 OA
ATOM     12  C   UNL     1     -37.980  23.827   2.994  0.00  0.00    +0.253 C 
ENDBRANCH   6  11
BRANCH   7  13
ATOM     13  O   UNL     1     -36.647  19.881   2.682  0.00  0.00    -0.502 OA
ATOM     14  H   UNL     1     -36.779  19.074   2.225  0.00  0.00    +0.292 HD
ENDBRANCH   7  13
ENDBRANCH   1   2
BRANCH   1  16
ATOM     15  O   UNL     1     -35.011  26.755  -0.097  0.00  0.00    -0.275 OA
ATOM     16  N   UNL     1     -33.693  25.262   1.101  0.00  0.00    -0.300 N 
ATOM     17  C   UNL     1     -34.297  26.489   0.866  0.00  0.00    +0.223 C 
ATOM     18  H   UNL     1     -33.139  25.161   1.909  0.00  0.00    +0.150 HD
BRANCH  17  19
ATOM     19  C   UNL     1     -33.969  27.489   1.961  0.00  0.00    +0.085 C 
BRANCH  19  20
ATOM     20  C   UNL     1     -34.126  26.896   3.360  0.00  0.00    +0.010 C 
BRANCH  20  21
ATOM     21  C   UNL     1     -35.597  26.627   3.685  0.00  0.00    +0.001 C 
BRANCH  21  22
ATOM     22  C   UNL     1     -35.813  26.037   5.081  0.00  0.00    +0.000 C 
BRANCH  22  23
ATOM     23  C   UNL     1     -34.593  25.284   5.619  0.00  0.00    +0.000 C 
BRANCH  23  24
ATOM     24  C   UNL     1     -34.553  23.847   5.093  0.00  0.00    +0.000 C 
BRANCH  24  25
ATOM     25  C   UNL     1     -35.533  22.950   5.850  0.00  0.00    +0.000 C 
ATOM     26  C   UNL     1     -35.067  21.504   5.865  0.00  0.00    +0.000 C 
ENDBRANCH  24  25
ENDBRANCH  23  24
ENDBRANCH  22  23
ENDBRANCH  21  22
ENDBRANCH  20  21
ENDBRANCH  19  20
ENDBRANCH  17  19
ENDBRANCH   1  16
TORSDOF 12
ENDMDL
MODEL 7
REMARK VINA RESULT:      -5.5      4.225      6.877
REMARK  Name = 54180830
REMARK  12 active torsions:
REMARK  status: ('A' for Active; 'I' for Inactive)
REMARK    1  A    between atoms: C_1  and  C_2
REMARK    2  A    between atoms: C_1  and  N_16
REMARK    3  A    between atoms: C_5  and  N_10
REMARK    4  A    between atoms: C_6  and  O_11
REMARK    5  A    between atoms: C_7  and  O_13
REMARK    6  A    between atoms: C_17  and  C_19
REMARK    7  A    between atoms: C_19  and  C_20
REMARK    8  A    between atoms: C_20  and  C_21
REMARK    9  A    between atoms: C_21  and  C_22
REMARK   10  A    between atoms: C_22  and  C_23
REMARK   11  A    between atoms: C_23  and  C_24
REMARK   12  A    between atoms: C_24  and  C_25
REMARK                            x       y       z     vdW  Elec       q    Type
REMARK                         _______ _______ _______ _____ _____    ______ ____
ROOT
ATOM      1  C   UNL     1     -36.196  21.243   2.528  0.00  0.00    +0.116 C 
ENDROOT
BRANCH   1   2
ATOM      2  C   UNL     1     -34.966  20.911   1.734  0.00  0.00    +0.002 C 
ATOM      3  C   UNL     1     -34.431  19.624   1.780  0.00  0.00    +0.025 C 
ATOM      4  C   UNL     1     -34.358  21.891   0.948  0.00  0.00    +0.038 C 
ATOM      5  C   UNL     1     -33.288  19.316   1.043  0.00  0.00    +0.179 C 
ATOM      6  C   UNL     1     -33.215  21.583   0.210  0.00  0.00    +0.174 C 
ATOM      7  C   UNL     1     -32.680  20.296   0.258  0.00  0.00    +0.191 C 
BRANCH   5  10
ATOM      8  O   UNL     1     -33.383  17.067   0.545  0.00  0.00    -0.126 OA
ATOM      9  O   UNL     1     -31.679  17.807   1.714  0.00  0.00    -0.126 OA
ATOM     10  N   UNL     1     -32.756  17.998   1.104  0.00  0.00    +0.061 N 
ENDBRANCH   5  10
BRANCH   6  11
ATOM     11  O   UNL     1     -32.632  22.550  -0.552  0.00  0.00    -0.468 OA
ATOM     12  C   UNL     1     -32.810  23.901  -0.133  0.00  0.00    +0.253 C 
ENDBRANCH   6  11
BRANCH   7  13
ATOM     13  O   UNL     1     -31.561  20.006  -0.469  0.00  0.00    -0.502 OA
ATOM     14  H   UNL     1     -30.749  19.838  -0.031  0.00  0.00    +0.292 HD
ENDBRANCH   7  13
ENDBRANCH   1   2
BRANCH   1  16
ATOM     15  O   UNL     1     -35.127  20.693   5.164  0.00  0.00    -0.275 OA
ATOM     16  N   UNL     1     -35.921  22.196   3.579  0.00  0.00    -0.300 N 
ATOM     17  C   UNL     1     -35.406  21.837   4.817  0.00  0.00    +0.223 C 
ATOM     18  H   UNL     1     -36.108  23.147   3.409  0.00  0.00    +0.150 HD
BRANCH  17  19
ATOM     19  C   UNL     1     -35.222  23.048   5.715  0.00  0.00    +0.085 C 
BRANCH  19  20
ATOM     20  C   UNL     1     -34.314  24.106   5.091  0.00  0.00    +0.010 C 
BRANCH  20  21
ATOM     21  C   UNL     1     -34.671  25.507   5.591  0.00  0.00    +0.001 C 
BRANCH  21  22
ATOM     22  C   UNL     1     -36.087  25.946   5.208  0.00  0.00    +0.000 C 
BRANCH  22  23
ATOM     23  C   UNL     1     -36.281  26.130   3.701  0.00  0.00    +0.000 C 
BRANCH  23  24
ATOM     24  C   UNL     1     -37.688  25.712   3.269  0.00  0.00    +0.000 C 
BRANCH  24  25
ATOM     25  C   UNL     1     -37.649  24.847   2.009  0.00  0.00    +0.000 C 
ATOM     26  C   UNL     1     -36.326  24.992   1.274  0.00  0.00    +0.000 C 
ENDBRANCH  24  25
ENDBRANCH  23  24
ENDBRANCH  22  23
ENDBRANCH  21  22
ENDBRANCH  20  21
ENDBRANCH  19  20
ENDBRANCH  17  19
ENDBRANCH   1  16
TORSDOF 12
ENDMDL
MODEL 8
REMARK VINA RESULT:      -5.5      3.902      7.814
REMARK  Name = 54180830
REMARK  12 active torsions:
REMARK  status: ('A' for Active; 'I' for Inactive)
REMARK    1  A    between atoms: C_1  and  C_2
REMARK    2  A    between atoms: C_1  and  N_16
REMARK    3  A    between atoms: C_5  and  N_10
REMARK    4  A    between atoms: C_6  and  O_11
REMARK    5  A    between atoms: C_7  and  O_13
REMARK    6  A    between atoms: C_17  and  C_19
REMARK    7  A    between atoms: C_19  and  C_20
REMARK    8  A    between atoms: C_20  and  C_21
REMARK    9  A    between atoms: C_21  and  C_22
REMARK   10  A    between atoms: C_22  and  C_23
REMARK   11  A    between atoms: C_23  and  C_24
REMARK   12  A    between atoms: C_24  and  C_25
REMARK                            x       y       z     vdW  Elec       q    Type
REMARK                         _______ _______ _______ _____ _____    ______ ____
ROOT
ATOM      1  C   UNL     1     -35.983  22.435   5.092  0.00  0.00    +0.116 C 
ENDROOT
BRANCH   1   2
ATOM      2  C   UNL     1     -35.806  23.880   4.727  0.00  0.00    +0.002 C 
ATOM      3  C   UNL     1     -34.716  24.597   5.221  0.00  0.00    +0.025 C 
ATOM      4  C   UNL     1     -36.731  24.508   3.892  0.00  0.00    +0.038 C 
ATOM      5  C   UNL     1     -34.552  25.940   4.883  0.00  0.00    +0.179 C 
ATOM      6  C   UNL     1     -36.567  25.851   3.554  0.00  0.00    +0.174 C 
ATOM      7  C   UNL     1     -35.477  26.566   4.049  0.00  0.00    +0.191 C 
BRANCH   5  10
ATOM      8  O   UNL     1     -32.570  27.083   4.598  0.00  0.00    -0.126 OA
ATOM      9  O   UNL     1     -33.348  26.833   6.635  0.00  0.00    -0.126 OA
ATOM     10  N   UNL     1     -33.434  26.654   5.398  0.00  0.00    +0.061 N 
ENDBRANCH   5  10
BRANCH   6  11
ATOM     11  O   UNL     1     -37.480  26.450   2.739  0.00  0.00    -0.468 OA
ATOM     12  C   UNL     1     -37.483  26.054   1.369  0.00  0.00    +0.253 C 
ENDBRANCH   6  11
BRANCH   7  13
ATOM     13  O   UNL     1     -35.327  27.881   3.711  0.00  0.00    -0.502 OA
ATOM     14  H   UNL     1     -35.971  28.303   3.176  0.00  0.00    +0.292 HD
ENDBRANCH   7  13
ENDBRANCH   1   2
BRANCH   1  16
ATOM     15  O   UNL     1     -36.989  21.508   2.537  0.00  0.00    -0.275 OA
ATOM     16  N   UNL     1     -35.321  21.555   4.155  0.00  0.00    -0.300 N 
ATOM     17  C   UNL     1     -35.885  21.164   2.949  0.00  0.00    +0.223 C 
ATOM     18  H   UNL     1     -34.426  21.216   4.384  0.00  0.00    +0.150 HD
BRANCH  17  19
ATOM     19  C   UNL     1     -34.960  20.239   2.177  0.00  0.00    +0.085 C 
BRANCH  19  20
ATOM     20  C   UNL     1     -34.844  20.627   0.703  0.00  0.00    +0.010 C 
BRANCH  20  21
ATOM     21  C   UNL     1     -33.407  21.006   0.342  0.00  0.00    +0.001 C 
BRANCH  21  22
ATOM     22  C   UNL     1     -32.646  19.889  -0.378  0.00  0.00    +0.000 C 
BRANCH  22  23
ATOM     23  C   UNL     1     -31.501  19.300   0.452  0.00  0.00    +0.000 C 
BRANCH  23  24
ATOM     24  C   UNL     1     -31.963  18.071   1.238  0.00  0.00    +0.000 C 
BRANCH  24  25
ATOM     25  C   UNL     1     -33.091  17.337   0.512  0.00  0.00    +0.000 C 
ATOM     26  C   UNL     1     -32.602  16.039  -0.109  0.00  0.00    +0.000 C 
ENDBRANCH  24  25
ENDBRANCH  23  24
ENDBRANCH  22  23
ENDBRANCH  21  22
ENDBRANCH  20  21
ENDBRANCH  19  20
ENDBRANCH  17  19
ENDBRANCH   1  16
TORSDOF 12
ENDMDL
MODEL 9
REMARK VINA RESULT:      -5.4      2.056      3.728
REMARK  Name = 54180830
REMARK  12 active torsions:
REMARK  status: ('A' for Active; 'I' for Inactive)
REMARK    1  A    between atoms: C_1  and  C_2
REMARK    2  A    between atoms: C_1  and  N_16
REMARK    3  A    between atoms: C_5  and  N_10
REMARK    4  A    between atoms: C_6  and  O_11
REMARK    5  A    between atoms: C_7  and  O_13
REMARK    6  A    between atoms: C_17  and  C_19
REMARK    7  A    between atoms: C_19  and  C_20
REMARK    8  A    between atoms: C_20  and  C_21
REMARK    9  A    between atoms: C_21  and  C_22
REMARK   10  A    between atoms: C_22  and  C_23
REMARK   11  A    between atoms: C_23  and  C_24
REMARK   12  A    between atoms: C_24  and  C_25
REMARK                            x       y       z     vdW  Elec       q    Type
REMARK                         _______ _______ _______ _____ _____    ______ ____
ROOT
ATOM      1  C   UNL     1     -34.078  26.144   5.946  0.00  0.00    +0.116 C 
ENDROOT
BRANCH   1   2
ATOM      2  C   UNL     1     -35.010  25.196   5.249  0.00  0.00    +0.002 C 
ATOM      3  C   UNL     1     -34.765  23.824   5.283  0.00  0.00    +0.025 C 
ATOM      4  C   UNL     1     -36.124  25.688   4.567  0.00  0.00    +0.038 C 
ATOM      5  C   UNL     1     -35.631  22.943   4.635  0.00  0.00    +0.179 C 
ATOM      6  C   UNL     1     -36.990  24.808   3.919  0.00  0.00    +0.174 C 
ATOM      7  C   UNL     1     -36.743  23.436   3.953  0.00  0.00    +0.191 C 
BRANCH   5  10
ATOM      8  O   UNL     1     -35.346  20.900   3.607  0.00  0.00    -0.126 OA
ATOM      9  O   UNL     1     -35.153  21.007   5.791  0.00  0.00    -0.126 OA
ATOM     10  N   UNL     1     -35.363  21.547   4.680  0.00  0.00    +0.061 N 
ENDBRANCH   5  10
BRANCH   6  11
ATOM     11  O   UNL     1     -38.073  25.303   3.257  0.00  0.00    -0.468 OA
ATOM     12  C   UNL     1     -37.825  26.284   2.251  0.00  0.00    +0.253 C 
ENDBRANCH   6  11
BRANCH   7  13
ATOM     13  O   UNL     1     -37.598  22.584   3.315  0.00  0.00    -0.502 OA
ATOM     14  H   UNL     1     -38.347  22.923   2.864  0.00  0.00    +0.292 HD
ENDBRANCH   7  13
ENDBRANCH   1   2
BRANCH   1  16
ATOM     15  O   UNL     1     -32.326  28.370   6.557  0.00  0.00    -0.275 OA
ATOM     16  N   UNL     1     -33.333  26.957   5.011  0.00  0.00    -0.300 N 
ATOM     17  C   UNL     1     -32.515  28.009   5.399  0.00  0.00    +0.223 C 
ATOM     18  H   UNL     1     -33.411  26.755   4.051  0.00  0.00    +0.150 HD
BRANCH  17  19
ATOM     19  C   UNL     1     -31.864  28.678   4.201  0.00  0.00    +0.085 C 
BRANCH  19  20
ATOM     20  C   UNL     1     -31.704  27.727   3.016  0.00  0.00    +0.010 C 
BRANCH  20  21
ATOM     21  C   UNL     1     -32.144  28.391   1.710  0.00  0.00    +0.001 C 
BRANCH  21  22
ATOM     22  C   UNL     1     -33.574  28.032   1.298  0.00  0.00    +0.000 C 
BRANCH  22  23
ATOM     23  C   UNL     1     -34.521  29.235   1.274  0.00  0.00    +0.000 C 
BRANCH  23  24
ATOM     24  C   UNL     1     -35.221  29.416   2.622  0.00  0.00    +0.000 C 
BRANCH  24  25
ATOM     25  C   UNL     1     -35.049  30.840   3.152  0.00  0.00    +0.000 C 
ATOM     26  C   UNL     1     -34.043  31.624   2.325  0.00  0.00    +0.000 C 
ENDBRANCH  24  25
ENDBRANCH  23  24
ENDBRANCH  22  23
ENDBRANCH  21  22
ENDBRANCH  20  21
ENDBRANCH  19  20
ENDBRANCH  17  19
ENDBRANCH   1  16
TORSDOF 12
ENDMDL
