MODEL 1
REMARK VINA RESULT:      -6.9      0.000      0.000
REMARK  Name = 54703982
REMARK  4 active torsions:
REMARK  status: ('A' for Active; 'I' for Inactive)
REMARK    1  A    between atoms: S_1  and  C_5
REMARK    2  A    between atoms: S_1  and  C_18
REMARK    3  A    between atoms: C_6  and  O_13
REMARK    4  A    between atoms: C_19  and  O_26
REMARK                            x       y       z     vdW  Elec       q    Type
REMARK                         _______ _______ _______ _____ _____    ______ ____
ROOT
ATOM      1  S   UNL     1     -36.782  24.659   2.566  0.00  0.00    -0.068 S 
ENDROOT
BRANCH   1   5
ATOM      2  O   UNL     1     -34.744  25.247   5.972  0.00  0.00    -0.421 OA
ATOM      3  O   UNL     1     -36.298  23.708   5.343  0.00  0.00    -0.244 OA
ATOM      4  C   UNL     1     -33.936  26.920   4.392  0.00  0.00    +0.069 A 
ATOM      5  C   UNL     1     -35.660  25.330   3.710  0.00  0.00    +0.139 A 
ATOM      6  C   UNL     1     -34.885  26.385   3.408  0.00  0.00    +0.149 A 
ATOM      7  C   UNL     1     -33.905  26.334   5.656  0.00  0.00    +0.152 A 
ATOM      8  C   UNL     1     -33.039  27.969   4.148  0.00  0.00    +0.006 C 
ATOM      9  C   UNL     1     -35.613  24.681   5.046  0.00  0.00    +0.355 A 
ATOM     10  C   UNL     1     -33.045  26.769   6.666  0.00  0.00    +0.038 C 
ATOM     11  C   UNL     1     -32.167  28.418   5.148  0.00  0.00    +0.000 C 
ATOM     12  C   UNL     1     -32.173  27.821   6.407  0.00  0.00    +0.003 C 
BRANCH   6  13
ATOM     13  O   UNL     1     -34.899  27.027   2.186  0.00  0.00    -0.505 OA
ATOM     14  H   UNL     1     -35.312  27.864   2.102  0.00  0.00    +0.292 HD
ENDBRANCH   6  13
ENDBRANCH   1   5
BRANCH   1  18
ATOM     15  O   UNL     1     -34.119  23.021   0.079  0.00  0.00    -0.421 OA
ATOM     16  O   UNL     1     -34.975  25.122   0.262  0.00  0.00    -0.244 OA
ATOM     17  C   UNL     1     -34.739  21.279   1.669  0.00  0.00    +0.069 A 
ATOM     18  C   UNL     1     -35.735  23.503   1.844  0.00  0.00    +0.139 A 
ATOM     19  C   UNL     1     -35.655  22.241   2.297  0.00  0.00    +0.149 A 
ATOM     20  C   UNL     1     -34.004  21.704   0.563  0.00  0.00    +0.152 A 
ATOM     21  C   UNL     1     -34.534  19.965   2.112  0.00  0.00    +0.006 C 
ATOM     22  C   UNL     1     -34.932  23.972   0.685  0.00  0.00    +0.355 A 
ATOM     23  C   UNL     1     -33.110  20.870  -0.110  0.00  0.00    +0.038 C 
ATOM     24  C   UNL     1     -33.640  19.115   1.449  0.00  0.00    +0.000 C 
ATOM     25  C   UNL     1     -32.931  19.565   0.337  0.00  0.00    +0.003 C 
BRANCH  19  26
ATOM     26  O   UNL     1     -36.384  21.755   3.363  0.00  0.00    -0.505 OA
ATOM     27  H   UNL     1     -36.726  20.884   3.337  0.00  0.00    +0.292 HD
ENDBRANCH  19  26
ENDBRANCH   1  18
TORSDOF 4
ENDMDL
MODEL 2
REMARK VINA RESULT:      -6.8      0.073      6.890
REMARK  Name = 54703982
REMARK  4 active torsions:
REMARK  status: ('A' for Active; 'I' for Inactive)
REMARK    1  A    between atoms: S_1  and  C_5
REMARK    2  A    between atoms: S_1  and  C_18
REMARK    3  A    between atoms: C_6  and  O_13
REMARK    4  A    between atoms: C_19  and  O_26
REMARK                            x       y       z     vdW  Elec       q    Type
REMARK                         _______ _______ _______ _____ _____    ______ ____
ROOT
ATOM      1  S   UNL     1     -36.810  24.638   2.616  0.00  0.00    -0.068 S 
ENDROOT
BRANCH   1   5
ATOM      2  O   UNL     1     -34.169  22.966   0.101  0.00  0.00    -0.421 OA
ATOM      3  O   UNL     1     -35.017  25.070   0.281  0.00  0.00    -0.244 OA
ATOM      4  C   UNL     1     -34.777  21.234   1.707  0.00  0.00    +0.069 A 
ATOM      5  C   UNL     1     -35.763  23.462   1.882  0.00  0.00    +0.139 A 
ATOM      6  C   UNL     1     -35.682  22.202   2.340  0.00  0.00    +0.149 A 
ATOM      7  C   UNL     1     -34.053  21.650   0.591  0.00  0.00    +0.152 A 
ATOM      8  C   UNL     1     -34.571  19.922   2.154  0.00  0.00    +0.006 C 
ATOM      9  C   UNL     1     -34.973  23.922   0.711  0.00  0.00    +0.355 A 
ATOM     10  C   UNL     1     -33.170  20.809  -0.089  0.00  0.00    +0.038 C 
ATOM     11  C   UNL     1     -33.688  19.064   1.486  0.00  0.00    +0.000 C 
ATOM     12  C   UNL     1     -32.990  19.507   0.364  0.00  0.00    +0.003 C 
BRANCH   6  13
ATOM     13  O   UNL     1     -36.401  21.725   3.417  0.00  0.00    -0.505 OA
ATOM     14  H   UNL     1     -35.954  21.332   4.141  0.00  0.00    +0.292 HD
ENDBRANCH   6  13
ENDBRANCH   1   5
BRANCH   1  18
ATOM     15  O   UNL     1     -34.756  25.178   6.000  0.00  0.00    -0.421 OA
ATOM     16  O   UNL     1     -36.312  23.644   5.365  0.00  0.00    -0.244 OA
ATOM     17  C   UNL     1     -33.964  26.873   4.435  0.00  0.00    +0.069 A 
ATOM     18  C   UNL     1     -35.692  25.289   3.748  0.00  0.00    +0.139 A 
ATOM     19  C   UNL     1     -34.922  26.348   3.453  0.00  0.00    +0.149 A 
ATOM     20  C   UNL     1     -33.922  26.270   5.692  0.00  0.00    +0.152 A 
ATOM     21  C   UNL     1     -33.071  27.926   4.197  0.00  0.00    +0.006 C 
ATOM     22  C   UNL     1     -35.632  24.622   5.075  0.00  0.00    +0.355 A 
ATOM     23  C   UNL     1     -33.053  26.693   6.699  0.00  0.00    +0.038 C 
ATOM     24  C   UNL     1     -32.191  28.363   5.196  0.00  0.00    +0.000 C 
ATOM     25  C   UNL     1     -32.185  27.750   6.447  0.00  0.00    +0.003 C 
BRANCH  19  26
ATOM     26  O   UNL     1     -34.946  27.007   2.240  0.00  0.00    -0.505 OA
ATOM     27  H   UNL     1     -35.302  27.870   2.183  0.00  0.00    +0.292 HD
ENDBRANCH  19  26
ENDBRANCH   1  18
TORSDOF 4
ENDMDL
MODEL 3
REMARK VINA RESULT:      -6.7      2.084      3.546
REMARK  Name = 54703982
REMARK  4 active torsions:
REMARK  status: ('A' for Active; 'I' for Inactive)
REMARK    1  A    between atoms: S_1  and  C_5
REMARK    2  A    between atoms: S_1  and  C_18
REMARK    3  A    between atoms: C_6  and  O_13
REMARK    4  A    between atoms: C_19  and  O_26
REMARK                            x       y       z     vdW  Elec       q    Type
REMARK                         _______ _______ _______ _____ _____    ______ ____
ROOT
ATOM      1  S   UNL     1     -35.497  21.393   0.292  0.00  0.00    -0.068 S 
ENDROOT
BRANCH   1   5
ATOM      2  O   UNL     1     -35.562  22.116   4.238  0.00  0.00    -0.421 OA
ATOM      3  O   UNL     1     -35.964  20.250   2.999  0.00  0.00    -0.244 OA
ATOM      4  C   UNL     1     -34.845  24.190   3.174  0.00  0.00    +0.069 A 
ATOM      5  C   UNL     1     -35.343  22.225   1.810  0.00  0.00    +0.139 A 
ATOM      6  C   UNL     1     -34.981  23.518   1.875  0.00  0.00    +0.149 A 
ATOM      7  C   UNL     1     -35.154  23.462   4.322  0.00  0.00    +0.152 A 
ATOM      8  C   UNL     1     -34.407  25.510   3.348  0.00  0.00    +0.006 C 
ATOM      9  C   UNL     1     -35.646  21.434   3.030  0.00  0.00    +0.355 A 
ATOM     10  C   UNL     1     -35.064  24.006   5.604  0.00  0.00    +0.038 C 
ATOM     11  C   UNL     1     -34.310  26.072   4.627  0.00  0.00    +0.000 C 
ATOM     12  C   UNL     1     -34.641  25.322   5.754  0.00  0.00    +0.003 C 
BRANCH   6  13
ATOM     13  O   UNL     1     -34.699  24.296   0.772  0.00  0.00    -0.505 OA
ATOM     14  H   UNL     1     -35.055  24.069  -0.065  0.00  0.00    +0.292 HD
ENDBRANCH   6  13
ENDBRANCH   1   5
BRANCH   1  18
ATOM     15  O   UNL     1     -31.631  21.207  -0.697  0.00  0.00    -0.421 OA
ATOM     16  O   UNL     1     -33.236  22.788  -1.023  0.00  0.00    -0.244 OA
ATOM     17  C   UNL     1     -32.118  19.177   0.564  0.00  0.00    +0.069 A 
ATOM     18  C   UNL     1     -33.882  20.818   0.162  0.00  0.00    +0.139 A 
ATOM     19  C   UNL     1     -33.510  19.635   0.676  0.00  0.00    +0.149 A 
ATOM     20  C   UNL     1     -31.221  19.982  -0.137  0.00  0.00    +0.152 A 
ATOM     21  C   UNL     1     -31.618  17.994   1.125  0.00  0.00    +0.006 C 
ATOM     22  C   UNL     1     -32.925  21.696  -0.558  0.00  0.00    +0.355 A 
ATOM     23  C   UNL     1     -29.879  19.638  -0.307  0.00  0.00    +0.038 C 
ATOM     24  C   UNL     1     -30.274  17.634   0.965  0.00  0.00    +0.000 C 
ATOM     25  C   UNL     1     -29.406  18.453   0.247  0.00  0.00    +0.003 C 
BRANCH  19  26
ATOM     26  O   UNL     1     -34.361  18.781   1.346  0.00  0.00    -0.505 OA
ATOM     27  H   UNL     1     -34.027  17.999   1.738  0.00  0.00    +0.292 HD
ENDBRANCH  19  26
ENDBRANCH   1  18
TORSDOF 4
ENDMDL
MODEL 4
REMARK VINA RESULT:      -6.7      2.073      7.233
REMARK  Name = 54703982
REMARK  4 active torsions:
REMARK  status: ('A' for Active; 'I' for Inactive)
REMARK    1  A    between atoms: S_1  and  C_5
REMARK    2  A    between atoms: S_1  and  C_18
REMARK    3  A    between atoms: C_6  and  O_13
REMARK    4  A    between atoms: C_19  and  O_26
REMARK                            x       y       z     vdW  Elec       q    Type
REMARK                         _______ _______ _______ _____ _____    ______ ____
ROOT
ATOM      1  S   UNL     1     -35.503  21.429   0.302  0.00  0.00    -0.068 S 
ENDROOT
BRANCH   1   5
ATOM      2  O   UNL     1     -31.631  21.279  -0.740  0.00  0.00    -0.421 OA
ATOM      3  O   UNL     1     -33.258  22.839  -1.050  0.00  0.00    -0.244 OA
ATOM      4  C   UNL     1     -32.078  19.247   0.533  0.00  0.00    +0.069 A 
ATOM      5  C   UNL     1     -33.866  20.867   0.151  0.00  0.00    +0.139 A 
ATOM      6  C   UNL     1     -33.472  19.689   0.664  0.00  0.00    +0.149 A 
ATOM      7  C   UNL     1     -31.199  20.060  -0.181  0.00  0.00    +0.152 A 
ATOM      8  C   UNL     1     -31.556  18.072   1.092  0.00  0.00    +0.006 C 
ATOM      9  C   UNL     1     -32.929  21.752  -0.586  0.00  0.00    +0.355 A 
ATOM     10  C   UNL     1     -29.855  19.731  -0.369  0.00  0.00    +0.038 C 
ATOM     11  C   UNL     1     -30.211  17.727   0.915  0.00  0.00    +0.000 C 
ATOM     12  C   UNL     1     -29.362  18.553   0.182  0.00  0.00    +0.003 C 
BRANCH   6  13
ATOM     13  O   UNL     1     -34.306  18.828   1.348  0.00  0.00    -0.505 OA
ATOM     14  H   UNL     1     -35.230  18.853   1.196  0.00  0.00    +0.292 HD
ENDBRANCH   6  13
ENDBRANCH   1   5
BRANCH   1  18
ATOM     15  O   UNL     1     -35.512  22.180   4.226  0.00  0.00    -0.421 OA
ATOM     16  O   UNL     1     -35.907  20.296   3.011  0.00  0.00    -0.244 OA
ATOM     17  C   UNL     1     -34.845  24.254   3.129  0.00  0.00    +0.069 A 
ATOM     18  C   UNL     1     -35.338  22.270   1.792  0.00  0.00    +0.139 A 
ATOM     19  C   UNL     1     -34.994  23.567   1.839  0.00  0.00    +0.149 A 
ATOM     20  C   UNL     1     -35.124  23.533   4.288  0.00  0.00    +0.152 A 
ATOM     21  C   UNL     1     -34.424  25.582   3.283  0.00  0.00    +0.006 C 
ATOM     22  C   UNL     1     -35.607  21.485   3.025  0.00  0.00    +0.355 A 
ATOM     23  C   UNL     1     -35.019  24.091   5.564  0.00  0.00    +0.038 C 
ATOM     24  C   UNL     1     -34.313  26.158   4.555  0.00  0.00    +0.000 C 
ATOM     25  C   UNL     1     -34.613  25.415   5.694  0.00  0.00    +0.003 C 
BRANCH  19  26
ATOM     26  O   UNL     1     -34.742  24.340   0.724  0.00  0.00    -0.505 OA
ATOM     27  H   UNL     1     -35.433  24.533   0.122  0.00  0.00    +0.292 HD
ENDBRANCH  19  26
ENDBRANCH   1  18
TORSDOF 4
ENDMDL
MODEL 5
REMARK VINA RESULT:      -6.6      1.733      6.742
REMARK  Name = 54703982
REMARK  4 active torsions:
REMARK  status: ('A' for Active; 'I' for Inactive)
REMARK    1  A    between atoms: S_1  and  C_5
REMARK    2  A    between atoms: S_1  and  C_18
REMARK    3  A    between atoms: C_6  and  O_13
REMARK    4  A    between atoms: C_19  and  O_26
REMARK                            x       y       z     vdW  Elec       q    Type
REMARK                         _______ _______ _______ _____ _____    ______ ____
ROOT
ATOM      1  S   UNL     1     -36.165  22.466   0.316  0.00  0.00    -0.068 S 
ENDROOT
BRANCH   1   5
ATOM      2  O   UNL     1     -34.405  19.083   1.566  0.00  0.00    -0.421 OA
ATOM      3  O   UNL     1     -36.520  19.896   1.775  0.00  0.00    -0.244 OA
ATOM      4  C   UNL     1     -32.721  20.300   0.289  0.00  0.00    +0.069 A 
ATOM      5  C   UNL     1     -34.961  21.237   0.560  0.00  0.00    +0.139 A 
ATOM      6  C   UNL     1     -33.712  21.363   0.080  0.00  0.00    +0.149 A 
ATOM      7  C   UNL     1     -33.102  19.191   1.042  0.00  0.00    +0.152 A 
ATOM      8  C   UNL     1     -31.419  20.308  -0.231  0.00  0.00    +0.006 C 
ATOM      9  C   UNL     1     -35.383  20.044   1.338  0.00  0.00    +0.355 A 
ATOM     10  C   UNL     1     -32.236  18.128   1.305  0.00  0.00    +0.038 C 
ATOM     11  C   UNL     1     -30.537  19.250   0.022  0.00  0.00    +0.000 C 
ATOM     12  C   UNL     1     -30.944  18.163   0.791  0.00  0.00    +0.003 C 
BRANCH   6  13
ATOM     13  O   UNL     1     -33.270  22.454  -0.641  0.00  0.00    -0.505 OA
ATOM     14  H   UNL     1     -33.889  23.045  -1.022  0.00  0.00    +0.292 HD
ENDBRANCH   6  13
ENDBRANCH   1   5
BRANCH   1  18
ATOM     15  O   UNL     1     -36.931  23.723   4.031  0.00  0.00    -0.421 OA
ATOM     16  O   UNL     1     -37.998  22.272   2.638  0.00  0.00    -0.244 OA
ATOM     17  C   UNL     1     -34.830  24.770   3.368  0.00  0.00    +0.069 A 
ATOM     18  C   UNL     1     -35.992  23.279   1.821  0.00  0.00    +0.139 A 
ATOM     19  C   UNL     1     -34.960  24.101   2.067  0.00  0.00    +0.149 A 
ATOM     20  C   UNL     1     -35.838  24.565   4.310  0.00  0.00    +0.152 A 
ATOM     21  C   UNL     1     -33.757  25.589   3.743  0.00  0.00    +0.006 C 
ATOM     22  C   UNL     1     -37.053  23.030   2.831  0.00  0.00    +0.355 A 
ATOM     23  C   UNL     1     -35.815  25.156   5.575  0.00  0.00    +0.038 C 
ATOM     24  C   UNL     1     -33.718  26.190   5.009  0.00  0.00    +0.000 C 
ATOM     25  C   UNL     1     -34.747  25.976   5.922  0.00  0.00    +0.003 C 
BRANCH  19  26
ATOM     26  O   UNL     1     -33.954  24.371   1.161  0.00  0.00    -0.505 OA
ATOM     27  H   UNL     1     -33.116  23.964   1.257  0.00  0.00    +0.292 HD
ENDBRANCH  19  26
ENDBRANCH   1  18
TORSDOF 4
ENDMDL
MODEL 6
REMARK VINA RESULT:      -6.6      1.739      3.375
REMARK  Name = 54703982
REMARK  4 active torsions:
REMARK  status: ('A' for Active; 'I' for Inactive)
REMARK    1  A    between atoms: S_1  and  C_5
REMARK    2  A    between atoms: S_1  and  C_18
REMARK    3  A    between atoms: C_6  and  O_13
REMARK    4  A    between atoms: C_19  and  O_26
REMARK                            x       y       z     vdW  Elec       q    Type
REMARK                         _______ _______ _______ _____ _____    ______ ____
ROOT
ATOM      1  S   UNL     1     -36.154  22.450   0.305  0.00  0.00    -0.068 S 
ENDROOT
BRANCH   1   5
ATOM      2  O   UNL     1     -36.938  23.724   4.028  0.00  0.00    -0.421 OA
ATOM      3  O   UNL     1     -38.000  22.275   2.632  0.00  0.00    -0.244 OA
ATOM      4  C   UNL     1     -34.831  24.766   3.377  0.00  0.00    +0.069 A 
ATOM      5  C   UNL     1     -35.986  23.273   1.825  0.00  0.00    +0.139 A 
ATOM      6  C   UNL     1     -34.953  24.095   2.076  0.00  0.00    +0.149 A 
ATOM      7  C   UNL     1     -35.843  24.564   4.313  0.00  0.00    +0.152 A 
ATOM      8  C   UNL     1     -33.757  25.583   3.757  0.00  0.00    +0.006 C 
ATOM      9  C   UNL     1     -37.054  23.030   2.829  0.00  0.00    +0.355 A 
ATOM     10  C   UNL     1     -35.828  25.158   5.577  0.00  0.00    +0.038 C 
ATOM     11  C   UNL     1     -33.724  26.185   5.021  0.00  0.00    +0.000 C 
ATOM     12  C   UNL     1     -34.760  25.976   5.928  0.00  0.00    +0.003 C 
BRANCH   6  13
ATOM     13  O   UNL     1     -33.942  24.360   1.175  0.00  0.00    -0.505 OA
ATOM     14  H   UNL     1     -34.045  25.046   0.545  0.00  0.00    +0.292 HD
ENDBRANCH   6  13
ENDBRANCH   1   5
BRANCH   1  18
ATOM     15  O   UNL     1     -34.407  19.083   1.559  0.00  0.00    -0.421 OA
ATOM     16  O   UNL     1     -36.524  19.895   1.761  0.00  0.00    -0.244 OA
ATOM     17  C   UNL     1     -32.721  20.301   0.286  0.00  0.00    +0.069 A 
ATOM     18  C   UNL     1     -34.962  21.236   0.550  0.00  0.00    +0.139 A 
ATOM     19  C   UNL     1     -33.713  21.363   0.074  0.00  0.00    +0.149 A 
ATOM     20  C   UNL     1     -33.103  19.192   1.040  0.00  0.00    +0.152 A 
ATOM     21  C   UNL     1     -31.417  20.310  -0.230  0.00  0.00    +0.006 C 
ATOM     22  C   UNL     1     -35.386  20.042   1.328  0.00  0.00    +0.355 A 
ATOM     23  C   UNL     1     -32.237  18.129   1.305  0.00  0.00    +0.038 C 
ATOM     24  C   UNL     1     -30.535  19.252   0.026  0.00  0.00    +0.000 C 
ATOM     25  C   UNL     1     -30.943  18.165   0.796  0.00  0.00    +0.003 C 
BRANCH  19  26
ATOM     26  O   UNL     1     -33.268  22.453  -0.646  0.00  0.00    -0.505 OA
ATOM     27  H   UNL     1     -33.699  23.279  -0.558  0.00  0.00    +0.292 HD
ENDBRANCH  19  26
ENDBRANCH   1  18
TORSDOF 4
ENDMDL
MODEL 7
REMARK VINA RESULT:      -6.5      1.802      3.931
REMARK  Name = 54703982
REMARK  4 active torsions:
REMARK  status: ('A' for Active; 'I' for Inactive)
REMARK    1  A    between atoms: S_1  and  C_5
REMARK    2  A    between atoms: S_1  and  C_18
REMARK    3  A    between atoms: C_6  and  O_13
REMARK    4  A    between atoms: C_19  and  O_26
REMARK                            x       y       z     vdW  Elec       q    Type
REMARK                         _______ _______ _______ _____ _____    ______ ____
ROOT
ATOM      1  S   UNL     1     -35.701  22.247   0.413  0.00  0.00    -0.068 S 
ENDROOT
BRANCH   1   5
ATOM      2  O   UNL     1     -33.788  25.276   2.221  0.00  0.00    -0.421 OA
ATOM      3  O   UNL     1     -33.835  24.540   0.068  0.00  0.00    -0.244 OA
ATOM      4  C   UNL     1     -35.169  24.219   3.931  0.00  0.00    +0.069 A 
ATOM      5  C   UNL     1     -35.184  23.358   1.645  0.00  0.00    +0.139 A 
ATOM      6  C   UNL     1     -35.613  23.257   2.914  0.00  0.00    +0.149 A 
ATOM      7  C   UNL     1     -34.254  25.198   3.548  0.00  0.00    +0.152 A 
ATOM      8  C   UNL     1     -35.614  24.239   5.260  0.00  0.00    +0.006 C 
ATOM      9  C   UNL     1     -34.231  24.416   1.222  0.00  0.00    +0.355 A 
ATOM     10  C   UNL     1     -33.764  26.158   4.436  0.00  0.00    +0.038 C 
ATOM     11  C   UNL     1     -35.134  25.195   6.165  0.00  0.00    +0.000 C 
ATOM     12  C   UNL     1     -34.208  26.151   5.754  0.00  0.00    +0.003 C 
BRANCH   6  13
ATOM     13  O   UNL     1     -36.489  22.287   3.358  0.00  0.00    -0.505 OA
ATOM     14  H   UNL     1     -36.473  22.017   4.255  0.00  0.00    +0.292 HD
ENDBRANCH   6  13
ENDBRANCH   1   5
BRANCH   1  18
ATOM     15  O   UNL     1     -33.805  19.001   1.767  0.00  0.00    -0.421 OA
ATOM     16  O   UNL     1     -35.888  19.842   2.136  0.00  0.00    -0.244 OA
ATOM     17  C   UNL     1     -32.284  20.083   0.197  0.00  0.00    +0.069 A 
ATOM     18  C   UNL     1     -34.483  21.053   0.632  0.00  0.00    +0.139 A 
ATOM     19  C   UNL     1     -33.299  21.127   0.003  0.00  0.00    +0.149 A 
ATOM     20  C   UNL     1     -32.571  19.052   1.091  0.00  0.00    +0.152 A 
ATOM     21  C   UNL     1     -31.049  20.035  -0.465  0.00  0.00    +0.006 C 
ATOM     22  C   UNL     1     -34.809  19.941   1.562  0.00  0.00    +0.355 A 
ATOM     23  C   UNL     1     -31.675  18.014   1.353  0.00  0.00    +0.038 C 
ATOM     24  C   UNL     1     -30.139  19.000  -0.215  0.00  0.00    +0.000 C 
ATOM     25  C   UNL     1     -30.450  17.993   0.696  0.00  0.00    +0.003 C 
BRANCH  19  26
ATOM     26  O   UNL     1     -32.946  22.142  -0.863  0.00  0.00    -0.505 OA
ATOM     27  H   UNL     1     -33.027  23.035  -0.596  0.00  0.00    +0.292 HD
ENDBRANCH  19  26
ENDBRANCH   1  18
TORSDOF 4
ENDMDL
MODEL 8
REMARK VINA RESULT:      -6.5      1.809      6.613
REMARK  Name = 54703982
REMARK  4 active torsions:
REMARK  status: ('A' for Active; 'I' for Inactive)
REMARK    1  A    between atoms: S_1  and  C_5
REMARK    2  A    between atoms: S_1  and  C_18
REMARK    3  A    between atoms: C_6  and  O_13
REMARK    4  A    between atoms: C_19  and  O_26
REMARK                            x       y       z     vdW  Elec       q    Type
REMARK                         _______ _______ _______ _____ _____    ______ ____
ROOT
ATOM      1  S   UNL     1     -35.685  22.269   0.414  0.00  0.00    -0.068 S 
ENDROOT
BRANCH   1   5
ATOM      2  O   UNL     1     -33.779  19.006   1.763  0.00  0.00    -0.421 OA
ATOM      3  O   UNL     1     -35.859  19.849   2.137  0.00  0.00    -0.244 OA
ATOM      4  C   UNL     1     -32.259  20.087   0.191  0.00  0.00    +0.069 A 
ATOM      5  C   UNL     1     -34.457  21.059   0.630  0.00  0.00    +0.139 A 
ATOM      6  C   UNL     1     -33.273  21.132  -0.000  0.00  0.00    +0.149 A 
ATOM      7  C   UNL     1     -32.546  19.055   1.084  0.00  0.00    +0.152 A 
ATOM      8  C   UNL     1     -31.026  20.038  -0.473  0.00  0.00    +0.006 C 
ATOM      9  C   UNL     1     -34.781  19.948   1.560  0.00  0.00    +0.355 A 
ATOM     10  C   UNL     1     -31.651  18.015   1.343  0.00  0.00    +0.038 C 
ATOM     11  C   UNL     1     -30.117  19.002  -0.227  0.00  0.00    +0.000 C 
ATOM     12  C   UNL     1     -30.427  17.994   0.683  0.00  0.00    +0.003 C 
BRANCH   6  13
ATOM     13  O   UNL     1     -32.921  22.148  -0.866  0.00  0.00    -0.505 OA
ATOM     14  H   UNL     1     -32.290  22.789  -0.602  0.00  0.00    +0.292 HD
ENDBRANCH   6  13
ENDBRANCH   1   5
BRANCH   1  18
ATOM     15  O   UNL     1     -33.775  25.275   2.224  0.00  0.00    -0.421 OA
ATOM     16  O   UNL     1     -33.820  24.547   0.067  0.00  0.00    -0.244 OA
ATOM     17  C   UNL     1     -35.161  24.215   3.927  0.00  0.00    +0.069 A 
ATOM     18  C   UNL     1     -35.173  23.361   1.639  0.00  0.00    +0.139 A 
ATOM     19  C   UNL     1     -35.605  23.256   2.906  0.00  0.00    +0.149 A 
ATOM     20  C   UNL     1     -34.243  25.193   3.549  0.00  0.00    +0.152 A 
ATOM     21  C   UNL     1     -35.608  24.231   5.256  0.00  0.00    +0.006 C 
ATOM     22  C   UNL     1     -34.218  24.420   1.221  0.00  0.00    +0.355 A 
ATOM     23  C   UNL     1     -33.754  26.149   4.442  0.00  0.00    +0.038 C 
ATOM     24  C   UNL     1     -35.127  25.183   6.164  0.00  0.00    +0.000 C 
ATOM     25  C   UNL     1     -34.199  26.138   5.759  0.00  0.00    +0.003 C 
BRANCH  19  26
ATOM     26  O   UNL     1     -36.483  22.288   3.345  0.00  0.00    -0.505 OA
ATOM     27  H   UNL     1     -37.360  22.268   3.018  0.00  0.00    +0.292 HD
ENDBRANCH  19  26
ENDBRANCH   1  18
TORSDOF 4
ENDMDL
MODEL 9
REMARK VINA RESULT:      -6.3      1.809      6.840
REMARK  Name = 54703982
REMARK  4 active torsions:
REMARK  status: ('A' for Active; 'I' for Inactive)
REMARK    1  A    between atoms: S_1  and  C_5
REMARK    2  A    between atoms: S_1  and  C_18
REMARK    3  A    between atoms: C_6  and  O_13
REMARK    4  A    between atoms: C_19  and  O_26
REMARK                            x       y       z     vdW  Elec       q    Type
REMARK                         _______ _______ _______ _____ _____    ______ ____
ROOT
ATOM      1  S   UNL     1     -37.898  22.150   2.222  0.00  0.00    -0.068 S 
ENDROOT
BRANCH   1   5
ATOM      2  O   UNL     1     -35.909  20.503  -0.849  0.00  0.00    -0.421 OA
ATOM      3  O   UNL     1     -37.687  21.919  -0.737  0.00  0.00    -0.244 OA
ATOM      4  C   UNL     1     -34.761  19.779   1.178  0.00  0.00    +0.069 A 
ATOM      5  C   UNL     1     -36.715  21.237   1.335  0.00  0.00    +0.139 A 
ATOM      6  C   UNL     1     -35.756  20.530   1.955  0.00  0.00    +0.149 A 
ATOM      7  C   UNL     1     -34.880  19.783  -0.211  0.00  0.00    +0.152 A 
ATOM      8  C   UNL     1     -33.685  19.071   1.729  0.00  0.00    +0.006 C 
ATOM      9  C   UNL     1     -36.831  21.270  -0.146  0.00  0.00    +0.355 A 
ATOM     10  C   UNL     1     -33.992  19.098  -1.043  0.00  0.00    +0.038 C 
ATOM     11  C   UNL     1     -32.784  18.379   0.910  0.00  0.00    +0.000 C 
ATOM     12  C   UNL     1     -32.939  18.390  -0.474  0.00  0.00    +0.003 C 
BRANCH   6  13
ATOM     13  O   UNL     1     -35.613  20.460   3.326  0.00  0.00    -0.505 OA
ATOM     14  H   UNL     1     -34.861  20.841   3.737  0.00  0.00    +0.292 HD
ENDBRANCH   6  13
ENDBRANCH   1   5
BRANCH   1  18
ATOM     15  O   UNL     1     -35.850  25.577   2.066  0.00  0.00    -0.421 OA
ATOM     16  O   UNL     1     -37.236  24.536   0.591  0.00  0.00    -0.244 OA
ATOM     17  C   UNL     1     -35.460  24.641   4.285  0.00  0.00    +0.069 A 
ATOM     18  C   UNL     1     -36.890  23.461   2.696  0.00  0.00    +0.139 A 
ATOM     19  C   UNL     1     -36.303  23.500   3.902  0.00  0.00    +0.149 A 
ATOM     20  C   UNL     1     -35.251  25.645   3.339  0.00  0.00    +0.152 A 
ATOM     21  C   UNL     1     -34.862  24.807   5.541  0.00  0.00    +0.006 C 
ATOM     22  C   UNL     1     -36.698  24.541   1.694  0.00  0.00    +0.355 A 
ATOM     23  C   UNL     1     -34.465  26.769   3.598  0.00  0.00    +0.038 C 
ATOM     24  C   UNL     1     -34.070  25.929   5.818  0.00  0.00    +0.000 C 
ATOM     25  C   UNL     1     -33.868  26.907   4.847  0.00  0.00    +0.003 C 
BRANCH  19  26
ATOM     26  O   UNL     1     -36.443  22.520   4.863  0.00  0.00    -0.505 OA
ATOM     27  H   UNL     1     -35.710  21.990   5.101  0.00  0.00    +0.292 HD
ENDBRANCH  19  26
ENDBRANCH   1  18
TORSDOF 4
ENDMDL
