MODEL 1
REMARK VINA RESULT:      -7.8      0.000      0.000
REMARK  Name = 60202647
REMARK  3 active torsions:
REMARK  status: ('A' for Active; 'I' for Inactive)
REMARK    1  A    between atoms: N_2  and  C_28
REMARK    2  A    between atoms: C_26  and  C_35
REMARK    3  A    between atoms: C_35  and  O_36
REMARK                            x       y       z     vdW  Elec       q    Type
REMARK                         _______ _______ _______ _____ _____    ______ ____
ROOT
ATOM      1  O   UNL     1     -34.753  11.972  -2.616  0.00  0.00    -0.272 OA
ATOM      2  N   UNL     1     -36.196  23.145   3.040  0.00  0.00    -0.303 N 
ATOM      3  N   UNL     1     -34.812  21.304   2.334  0.00  0.00    -0.319 NA
ATOM      4  N   UNL     1     -39.493  24.804   3.117  0.00  0.00    -0.241 NA
ATOM      5  N   UNL     1     -36.024  19.647   1.027  0.00  0.00    -0.170 NA
ATOM      6  N   UNL     1     -33.731  13.866  -1.732  0.00  0.00    -0.276 N 
ATOM      7  N   UNL     1     -33.754  19.401   1.504  0.00  0.00    -0.222 N 
ATOM      8  N   UNL     1     -34.476  17.537   0.211  0.00  0.00    -0.394 NA
ATOM      9  C   UNL     1     -37.511  23.528   2.907  0.00  0.00    +0.081 A 
ATOM     10  C   UNL     1     -35.988  21.955   2.397  0.00  0.00    +0.209 A 
ATOM     11  C   UNL     1     -38.161  22.548   2.152  0.00  0.00    +0.024 A 
ATOM     12  C   UNL     1     -37.190  21.554   1.831  0.00  0.00    +0.069 A 
ATOM     13  C   UNL     1     -38.175  24.650   3.387  0.00  0.00    +0.116 C 
ATOM     14  C   UNL     1     -39.527  22.713   1.875  0.00  0.00    +0.022 C 
ATOM     15  C   UNL     1     -37.176  20.350   1.125  0.00  0.00    +0.116 C 
ATOM     16  C   UNL     1     -34.928  20.162   1.629  0.00  0.00    +0.152 C 
ATOM     17  C   UNL     1     -40.124  23.857   2.387  0.00  0.00    +0.099 C 
ATOM     18  C   UNL     1     -35.293  15.650  -1.098  0.00  0.00    +0.076 C 
ATOM     19  C   UNL     1     -34.767  14.774  -2.226  0.00  0.00    +0.101 C 
ATOM     20  C   UNL     1     -32.584  14.493  -1.058  0.00  0.00    +0.104 C 
ATOM     21  C   UNL     1     -32.895  15.798  -0.375  0.00  0.00    +0.090 C 
ATOM     22  C   UNL     1     -34.170  16.367  -0.401  0.00  0.00    +0.095 C 
ATOM     23  C   UNL     1     -33.474  18.173   0.858  0.00  0.00    +0.191 C 
ATOM     24  C   UNL     1     -31.891  16.492   0.306  0.00  0.00    -0.014 C 
ATOM     25  C   UNL     1     -32.178  17.698   0.933  0.00  0.00    +0.044 C 
ATOM     26  C   UNL     1     -33.797  12.507  -2.051  0.00  0.00    +0.256 C 
ATOM     27  H   UNL     1     -32.974  19.801   1.953  0.00  0.00    +0.167 HD
ENDROOT
BRANCH   2  28
ATOM     28  C   UNL     1     -35.131  23.924   3.790  0.00  0.00    +0.088 C 
ATOM     29  C   UNL     1     -34.091  26.270   5.285  0.00  0.00    +0.000 C 
ATOM     30  C   UNL     1     -34.769  25.236   3.074  0.00  0.00    +0.023 C 
ATOM     31  C   UNL     1     -35.536  24.187   5.250  0.00  0.00    +0.023 C 
ATOM     32  C   UNL     1     -34.451  24.961   6.000  0.00  0.00    +0.002 C 
ATOM     33  C   UNL     1     -33.688  26.006   3.829  0.00  0.00    +0.002 C 
ATOM     34  C   UNL     1     -32.974  27.000   6.030  0.00  0.00    +0.000 C 
ENDBRANCH   2  28
BRANCH  26  35
ATOM     35  C   UNL     1     -32.605  11.670  -1.657  0.00  0.00    +0.223 C 
BRANCH  35  36
ATOM     36  O   UNL     1     -32.932  11.057  -0.434  0.00  0.00    -0.374 OA
ATOM     37  H   UNL     1     -32.732  11.664   0.296  0.00  0.00    +0.211 HD
ENDBRANCH  35  36
ENDBRANCH  26  35
TORSDOF 3
ENDMDL
MODEL 2
REMARK VINA RESULT:      -7.6      1.291      1.865
REMARK  Name = 60202647
REMARK  3 active torsions:
REMARK  status: ('A' for Active; 'I' for Inactive)
REMARK    1  A    between atoms: N_2  and  C_28
REMARK    2  A    between atoms: C_26  and  C_35
REMARK    3  A    between atoms: C_35  and  O_36
REMARK                            x       y       z     vdW  Elec       q    Type
REMARK                         _______ _______ _______ _____ _____    ______ ____
ROOT
ATOM      1  O   UNL     1     -35.087  13.449  -2.830  0.00  0.00    -0.272 OA
ATOM      2  N   UNL     1     -37.772  24.344   2.916  0.00  0.00    -0.303 N 
ATOM      3  N   UNL     1     -36.255  22.539   2.426  0.00  0.00    -0.319 NA
ATOM      4  N   UNL     1     -41.030  25.997   2.389  0.00  0.00    -0.241 NA
ATOM      5  N   UNL     1     -37.155  20.945   0.823  0.00  0.00    -0.170 NA
ATOM      6  N   UNL     1     -34.287  15.299  -1.668  0.00  0.00    -0.276 N 
ATOM      7  N   UNL     1     -35.030  20.677   1.745  0.00  0.00    -0.222 N 
ATOM      8  N   UNL     1     -35.452  18.875   0.246  0.00  0.00    -0.394 NA
ATOM      9  C   UNL     1     -39.035  24.732   2.533  0.00  0.00    +0.081 A 
ATOM     10  C   UNL     1     -37.425  23.185   2.275  0.00  0.00    +0.209 A 
ATOM     11  C   UNL     1     -39.506  23.789   1.615  0.00  0.00    +0.024 A 
ATOM     12  C   UNL     1     -38.480  22.811   1.456  0.00  0.00    +0.069 A 
ATOM     13  C   UNL     1     -39.795  25.830   2.916  0.00  0.00    +0.116 C 
ATOM     14  C   UNL     1     -40.787  23.967   1.071  0.00  0.00    +0.022 C 
ATOM     15  C   UNL     1     -38.309  21.642   0.713  0.00  0.00    +0.116 C 
ATOM     16  C   UNL     1     -36.212  21.430   1.660  0.00  0.00    +0.152 C 
ATOM     17  C   UNL     1     -41.488  25.085   1.501  0.00  0.00    +0.099 C 
ATOM     18  C   UNL     1     -35.964  17.052  -1.288  0.00  0.00    +0.076 C 
ATOM     19  C   UNL     1     -35.208  16.230  -2.323  0.00  0.00    +0.101 C 
ATOM     20  C   UNL     1     -33.309  15.895  -0.744  0.00  0.00    +0.104 C 
ATOM     21  C   UNL     1     -33.767  17.166  -0.081  0.00  0.00    +0.090 C 
ATOM     22  C   UNL     1     -35.015  17.735  -0.343  0.00  0.00    +0.095 C 
ATOM     23  C   UNL     1     -34.611  19.480   1.114  0.00  0.00    +0.191 C 
ATOM     24  C   UNL     1     -32.931  17.827   0.823  0.00  0.00    -0.014 C 
ATOM     25  C   UNL     1     -33.354  19.002   1.433  0.00  0.00    +0.044 C 
ATOM     26  C   UNL     1     -34.273  13.957  -2.057  0.00  0.00    +0.256 C 
ATOM     27  H   UNL     1     -34.363  21.055   2.362  0.00  0.00    +0.167 HD
ENDROOT
BRANCH   2  28
ATOM     28  C   UNL     1     -36.892  25.086   3.904  0.00  0.00    +0.088 C 
ATOM     29  C   UNL     1     -34.299  25.779   5.177  0.00  0.00    +0.000 C 
ATOM     30  C   UNL     1     -36.198  24.127   4.886  0.00  0.00    +0.023 C 
ATOM     31  C   UNL     1     -35.864  25.983   3.193  0.00  0.00    +0.023 C 
ATOM     32  C   UNL     1     -34.990  26.736   4.197  0.00  0.00    +0.002 C 
ATOM     33  C   UNL     1     -35.324  24.885   5.884  0.00  0.00    +0.002 C 
ATOM     34  C   UNL     1     -33.469  26.558   6.196  0.00  0.00    +0.000 C 
ENDBRANCH   2  28
BRANCH  26  35
ATOM     35  C   UNL     1     -33.179  13.103  -1.464  0.00  0.00    +0.223 C 
BRANCH  35  36
ATOM     36  O   UNL     1     -33.781  11.891  -1.080  0.00  0.00    -0.374 OA
ATOM     37  H   UNL     1     -34.334  12.038  -0.297  0.00  0.00    +0.211 HD
ENDBRANCH  35  36
ENDBRANCH  26  35
TORSDOF 3
ENDMDL
MODEL 3
REMARK VINA RESULT:      -7.4      6.333     11.647
REMARK  Name = 60202647
REMARK  3 active torsions:
REMARK  status: ('A' for Active; 'I' for Inactive)
REMARK    1  A    between atoms: N_2  and  C_28
REMARK    2  A    between atoms: C_26  and  C_35
REMARK    3  A    between atoms: C_35  and  O_36
REMARK                            x       y       z     vdW  Elec       q    Type
REMARK                         _______ _______ _______ _____ _____    ______ ____
ROOT
ATOM      1  O   UNL     1     -48.323  27.023   0.874  0.00  0.00    -0.272 OA
ATOM      2  N   UNL     1     -36.546  23.047   2.971  0.00  0.00    -0.303 N 
ATOM      3  N   UNL     1     -38.338  24.614   3.340  0.00  0.00    -0.319 NA
ATOM      4  N   UNL     1     -35.310  19.928   1.433  0.00  0.00    -0.241 NA
ATOM      5  N   UNL     1     -40.406  23.977   2.228  0.00  0.00    -0.170 NA
ATOM      6  N   UNL     1     -46.400  27.197   2.171  0.00  0.00    -0.276 N 
ATOM      7  N   UNL     1     -40.258  25.924   3.503  0.00  0.00    -0.222 N 
ATOM      8  N   UNL     1     -42.465  25.742   2.627  0.00  0.00    -0.394 NA
ATOM      9  C   UNL     1     -36.363  21.866   2.290  0.00  0.00    +0.081 A 
ATOM     10  C   UNL     1     -37.831  23.488   2.806  0.00  0.00    +0.209 A 
ATOM     11  C   UNL     1     -37.575  21.544   1.671  0.00  0.00    +0.024 A 
ATOM     12  C   UNL     1     -38.501  22.576   2.003  0.00  0.00    +0.069 A 
ATOM     13  C   UNL     1     -35.238  21.060   2.170  0.00  0.00    +0.116 C 
ATOM     14  C   UNL     1     -37.644  20.368   0.909  0.00  0.00    +0.022 C 
ATOM     15  C   UNL     1     -39.839  22.858   1.721  0.00  0.00    +0.116 C 
ATOM     16  C   UNL     1     -39.631  24.774   2.997  0.00  0.00    +0.152 C 
ATOM     17  C   UNL     1     -36.481  19.614   0.833  0.00  0.00    +0.099 C 
ATOM     18  C   UNL     1     -44.697  25.498   1.679  0.00  0.00    +0.076 C 
ATOM     19  C   UNL     1     -46.127  25.758   2.131  0.00  0.00    +0.101 C 
ATOM     20  C   UNL     1     -45.496  28.007   3.001  0.00  0.00    +0.104 C 
ATOM     21  C   UNL     1     -44.102  27.454   3.134  0.00  0.00    +0.090 C 
ATOM     22  C   UNL     1     -43.715  26.257   2.527  0.00  0.00    +0.095 C 
ATOM     23  C   UNL     1     -41.573  26.434   3.370  0.00  0.00    +0.191 C 
ATOM     24  C   UNL     1     -43.146  28.134   3.893  0.00  0.00    -0.014 C 
ATOM     25  C   UNL     1     -41.860  27.621   4.017  0.00  0.00    +0.044 C 
ATOM     26  C   UNL     1     -47.559  27.694   1.571  0.00  0.00    +0.256 C 
ATOM     27  H   UNL     1     -39.669  26.484   4.058  0.00  0.00    +0.167 HD
ENDROOT
BRANCH   2  28
ATOM     28  C   UNL     1     -35.482  23.760   3.786  0.00  0.00    +0.088 C 
ATOM     29  C   UNL     1     -34.414  26.016   5.395  0.00  0.00    +0.000 C 
ATOM     30  C   UNL     1     -35.045  25.079   3.127  0.00  0.00    +0.023 C 
ATOM     31  C   UNL     1     -35.933  23.993   5.237  0.00  0.00    +0.023 C 
ATOM     32  C   UNL     1     -34.851  24.701   6.052  0.00  0.00    +0.002 C 
ATOM     33  C   UNL     1     -33.965  25.783   3.947  0.00  0.00    +0.002 C 
ATOM     34  C   UNL     1     -33.301  26.680   6.204  0.00  0.00    +0.000 C 
ENDBRANCH   2  28
BRANCH  26  35
ATOM     35  C   UNL     1     -47.859  29.154   1.807  0.00  0.00    +0.223 C 
BRANCH  35  36
ATOM     36  O   UNL     1     -49.007  29.202   2.618  0.00  0.00    -0.374 OA
ATOM     37  H   UNL     1     -49.650  29.819   2.234  0.00  0.00    +0.211 HD
ENDBRANCH  35  36
ENDBRANCH  26  35
TORSDOF 3
ENDMDL
MODEL 4
REMARK VINA RESULT:      -7.2      1.147      1.304
REMARK  Name = 60202647
REMARK  3 active torsions:
REMARK  status: ('A' for Active; 'I' for Inactive)
REMARK    1  A    between atoms: N_2  and  C_28
REMARK    2  A    between atoms: C_26  and  C_35
REMARK    3  A    between atoms: C_35  and  O_36
REMARK                            x       y       z     vdW  Elec       q    Type
REMARK                         _______ _______ _______ _____ _____    ______ ____
ROOT
ATOM      1  O   UNL     1     -32.989  11.462  -3.238  0.00  0.00    -0.272 OA
ATOM      2  N   UNL     1     -36.242  22.194   2.521  0.00  0.00    -0.303 N 
ATOM      3  N   UNL     1     -34.591  20.555   1.896  0.00  0.00    -0.319 NA
ATOM      4  N   UNL     1     -39.710  23.446   2.349  0.00  0.00    -0.241 NA
ATOM      5  N   UNL     1     -35.480  18.809   0.452  0.00  0.00    -0.170 NA
ATOM      6  N   UNL     1     -32.281  13.434  -2.227  0.00  0.00    -0.276 N 
ATOM      7  N   UNL     1     -33.244  18.819   1.119  0.00  0.00    -0.222 N 
ATOM      8  N   UNL     1     -33.625  16.926  -0.274  0.00  0.00    -0.394 NA
ATOM      9  C   UNL     1     -37.577  22.422   2.283  0.00  0.00    +0.081 A 
ATOM     10  C   UNL     1     -35.838  21.059   1.871  0.00  0.00    +0.209 A 
ATOM     11  C   UNL     1     -38.039  21.397   1.452  0.00  0.00    +0.024 A 
ATOM     12  C   UNL     1     -36.931  20.536   1.194  0.00  0.00    +0.069 A 
ATOM     13  C   UNL     1     -38.410  23.441   2.728  0.00  0.00    +0.116 C 
ATOM     14  C   UNL     1     -39.386  21.408   1.062  0.00  0.00    +0.022 C 
ATOM     15  C   UNL     1     -36.712  19.366   0.466  0.00  0.00    +0.116 C 
ATOM     16  C   UNL     1     -34.509  19.430   1.158  0.00  0.00    +0.152 C 
ATOM     17  C   UNL     1     -40.158  22.456   1.545  0.00  0.00    +0.099 C 
ATOM     18  C   UNL     1     -34.096  14.999  -1.691  0.00  0.00    +0.076 C 
ATOM     19  C   UNL     1     -33.375  14.229  -2.789  0.00  0.00    +0.101 C 
ATOM     20  C   UNL     1     -31.279  14.171  -1.442  0.00  0.00    +0.104 C 
ATOM     21  C   UNL     1     -31.801  15.407  -0.759  0.00  0.00    +0.090 C 
ATOM     22  C   UNL     1     -33.130  15.820  -0.884  0.00  0.00    +0.095 C 
ATOM     23  C   UNL     1     -32.765  17.654   0.471  0.00  0.00    +0.191 C 
ATOM     24  C   UNL     1     -30.949  16.192   0.021  0.00  0.00    -0.014 C 
ATOM     25  C   UNL     1     -31.432  17.334   0.648  0.00  0.00    +0.044 C 
ATOM     26  C   UNL     1     -32.156  12.088  -2.581  0.00  0.00    +0.256 C 
ATOM     27  H   UNL     1     -32.559  19.294   1.642  0.00  0.00    +0.167 HD
ENDROOT
BRANCH   2  28
ATOM     28  C   UNL     1     -35.345  23.069   3.377  0.00  0.00    +0.088 C 
ATOM     29  C   UNL     1     -34.755  25.419   5.095  0.00  0.00    +0.000 C 
ATOM     30  C   UNL     1     -35.179  24.477   2.781  0.00  0.00    +0.023 C 
ATOM     31  C   UNL     1     -35.837  23.141   4.832  0.00  0.00    +0.023 C 
ATOM     32  C   UNL     1     -34.920  24.014   5.690  0.00  0.00    +0.002 C 
ATOM     33  C   UNL     1     -34.265  25.345   3.644  0.00  0.00    +0.002 C 
ATOM     34  C   UNL     1     -33.800  26.255   5.945  0.00  0.00    +0.000 C 
ENDBRANCH   2  28
BRANCH  26  35
ATOM     35  C   UNL     1     -30.908  11.386  -2.104  0.00  0.00    +0.223 C 
BRANCH  35  36
ATOM     36  O   UNL     1     -31.286  10.607  -0.995  0.00  0.00    -0.374 OA
ATOM     37  H   UNL     1     -31.820   9.855  -1.295  0.00  0.00    +0.211 HD
ENDBRANCH  35  36
ENDBRANCH  26  35
TORSDOF 3
ENDMDL
MODEL 5
REMARK VINA RESULT:      -6.9      8.688     13.896
REMARK  Name = 60202647
REMARK  3 active torsions:
REMARK  status: ('A' for Active; 'I' for Inactive)
REMARK    1  A    between atoms: N_2  and  C_28
REMARK    2  A    between atoms: C_26  and  C_35
REMARK    3  A    between atoms: C_35  and  O_36
REMARK                            x       y       z     vdW  Elec       q    Type
REMARK                         _______ _______ _______ _____ _____    ______ ____
ROOT
ATOM      1  O   UNL     1     -29.188  35.904   3.869  0.00  0.00    -0.272 OA
ATOM      2  N   UNL     1     -36.861  25.964   2.758  0.00  0.00    -0.303 N 
ATOM      3  N   UNL     1     -36.252  28.227   2.204  0.00  0.00    -0.319 NA
ATOM      4  N   UNL     1     -36.104  22.798   4.498  0.00  0.00    -0.241 NA
ATOM      5  N   UNL     1     -34.138  28.915   3.192  0.00  0.00    -0.170 NA
ATOM      6  N   UNL     1     -30.932  34.897   2.704  0.00  0.00    -0.276 N 
ATOM      7  N   UNL     1     -35.387  30.363   1.857  0.00  0.00    -0.222 N 
ATOM      8  N   UNL     1     -33.417  31.488   2.582  0.00  0.00    -0.394 NA
ATOM      9  C   UNL     1     -36.334  24.929   3.495  0.00  0.00    +0.081 A 
ATOM     10  C   UNL     1     -36.030  27.050   2.816  0.00  0.00    +0.209 A 
ATOM     11  C   UNL     1     -35.125  25.372   4.039  0.00  0.00    +0.024 A 
ATOM     12  C   UNL     1     -34.938  26.717   3.604  0.00  0.00    +0.069 A 
ATOM     13  C   UNL     1     -36.820  23.648   3.725  0.00  0.00    +0.116 C 
ATOM     14  C   UNL     1     -34.388  24.486   4.840  0.00  0.00    +0.022 C 
ATOM     15  C   UNL     1     -33.971  27.708   3.781  0.00  0.00    +0.116 C 
ATOM     16  C   UNL     1     -35.252  29.097   2.450  0.00  0.00    +0.152 C 
ATOM     17  C   UNL     1     -34.935  23.224   5.026  0.00  0.00    +0.099 C 
ATOM     18  C   UNL     1     -31.390  32.582   3.380  0.00  0.00    +0.076 C 
ATOM     19  C   UNL     1     -30.361  33.553   2.819  0.00  0.00    +0.101 C 
ATOM     20  C   UNL     1     -32.164  35.014   1.909  0.00  0.00    +0.104 C 
ATOM     21  C   UNL     1     -33.022  33.778   1.896  0.00  0.00    +0.090 C 
ATOM     22  C   UNL     1     -32.659  32.612   2.574  0.00  0.00    +0.095 C 
ATOM     23  C   UNL     1     -34.570  31.520   1.877  0.00  0.00    +0.191 C 
ATOM     24  C   UNL     1     -34.222  33.763   1.180  0.00  0.00    -0.014 C 
ATOM     25  C   UNL     1     -35.012  32.620   1.166  0.00  0.00    +0.044 C 
ATOM     26  C   UNL     1     -30.221  35.991   3.202  0.00  0.00    +0.256 C 
ATOM     27  H   UNL     1     -36.207  30.465   1.323  0.00  0.00    +0.167 HD
ENDROOT
BRANCH   2  28
ATOM     28  C   UNL     1     -38.171  25.913   1.993  0.00  0.00    +0.088 C 
ATOM     29  C   UNL     1     -40.711  24.642   1.124  0.00  0.00    +0.000 C 
ATOM     30  C   UNL     1     -38.186  24.777   0.957  0.00  0.00    +0.023 C 
ATOM     31  C   UNL     1     -39.381  25.813   2.937  0.00  0.00    +0.023 C 
ATOM     32  C   UNL     1     -40.696  25.775   2.158  0.00  0.00    +0.002 C 
ATOM     33  C   UNL     1     -39.503  24.743   0.184  0.00  0.00    +0.002 C 
ATOM     34  C   UNL     1     -42.016  24.655   0.329  0.00  0.00    +0.000 C 
ENDBRANCH   2  28
BRANCH  26  35
ATOM     35  C   UNL     1     -30.789  37.354   2.890  0.00  0.00    +0.223 C 
BRANCH  35  36
ATOM     36  O   UNL     1     -31.045  37.975   4.126  0.00  0.00    -0.374 OA
ATOM     37  H   UNL     1     -30.236  38.404   4.447  0.00  0.00    +0.211 HD
ENDBRANCH  35  36
ENDBRANCH  26  35
TORSDOF 3
ENDMDL
MODEL 6
REMARK VINA RESULT:      -6.9      8.363     11.980
REMARK  Name = 60202647
REMARK  3 active torsions:
REMARK  status: ('A' for Active; 'I' for Inactive)
REMARK    1  A    between atoms: N_2  and  C_28
REMARK    2  A    between atoms: C_26  and  C_35
REMARK    3  A    between atoms: C_35  and  O_36
REMARK                            x       y       z     vdW  Elec       q    Type
REMARK                         _______ _______ _______ _____ _____    ______ ____
ROOT
ATOM      1  O   UNL     1     -37.064  22.984   4.127  0.00  0.00    -0.272 OA
ATOM      2  N   UNL     1     -34.496  34.977   1.213  0.00  0.00    -0.303 N 
ATOM      3  N   UNL     1     -33.831  32.831   2.081  0.00  0.00    -0.319 NA
ATOM      4  N   UNL     1     -37.048  37.114  -0.382  0.00  0.00    -0.241 NA
ATOM      5  N   UNL     1     -35.572  31.142   1.888  0.00  0.00    -0.170 NA
ATOM      6  N   UNL     1     -35.437  24.618   3.816  0.00  0.00    -0.276 N 
ATOM      7  N   UNL     1     -33.497  30.650   2.833  0.00  0.00    -0.222 N 
ATOM      8  N   UNL     1     -34.846  28.688   2.871  0.00  0.00    -0.394 NA
ATOM      9  C   UNL     1     -35.613  35.525   0.626  0.00  0.00    +0.081 A 
ATOM     10  C   UNL     1     -34.720  33.658   1.503  0.00  0.00    +0.209 A 
ATOM     11  C   UNL     1     -36.580  34.519   0.537  0.00  0.00    +0.024 A 
ATOM     12  C   UNL     1     -36.007  33.338   1.094  0.00  0.00    +0.069 A 
ATOM     13  C   UNL     1     -35.848  36.816   0.168  0.00  0.00    +0.116 C 
ATOM     14  C   UNL     1     -37.822  34.835  -0.034  0.00  0.00    +0.022 C 
ATOM     15  C   UNL     1     -36.421  32.022   1.309  0.00  0.00    +0.116 C 
ATOM     16  C   UNL     1     -34.346  31.595   2.233  0.00  0.00    +0.152 C 
ATOM     17  C   UNL     1     -37.985  36.143  -0.469  0.00  0.00    +0.099 C 
ATOM     18  C   UNL     1     -36.293  26.727   2.894  0.00  0.00    +0.076 C 
ATOM     19  C   UNL     1     -36.131  25.228   2.679  0.00  0.00    +0.101 C 
ATOM     20  C   UNL     1     -34.123  25.184   4.155  0.00  0.00    +0.104 C 
ATOM     21  C   UNL     1     -33.956  26.638   3.805  0.00  0.00    +0.090 C 
ATOM     22  C   UNL     1     -34.970  27.377   3.191  0.00  0.00    +0.095 C 
ATOM     23  C   UNL     1     -33.666  29.282   3.157  0.00  0.00    +0.191 C 
ATOM     24  C   UNL     1     -32.754  27.294   4.081  0.00  0.00    -0.014 C 
ATOM     25  C   UNL     1     -32.600  28.636   3.755  0.00  0.00    +0.044 C 
ATOM     26  C   UNL     1     -35.964  23.465   4.404  0.00  0.00    +0.256 C 
ATOM     27  H   UNL     1     -32.613  31.009   3.073  0.00  0.00    +0.167 HD
ENDROOT
BRANCH   2  28
ATOM     28  C   UNL     1     -33.205  35.721   1.501  0.00  0.00    +0.088 C 
ATOM     29  C   UNL     1     -30.313  35.901   2.153  0.00  0.00    +0.000 C 
ATOM     30  C   UNL     1     -32.683  35.434   2.919  0.00  0.00    +0.023 C 
ATOM     31  C   UNL     1     -32.126  35.424   0.447  0.00  0.00    +0.023 C 
ATOM     32  C   UNL     1     -30.834  36.187   0.738  0.00  0.00    +0.002 C 
ATOM     33  C   UNL     1     -31.390  36.197   3.203  0.00  0.00    +0.002 C 
ATOM     34  C   UNL     1     -29.048  36.710   2.434  0.00  0.00    +0.000 C 
ENDBRANCH   2  28
BRANCH  26  35
ATOM     35  C   UNL     1     -35.104  22.798   5.450  0.00  0.00    +0.223 C 
BRANCH  35  36
ATOM     36  O   UNL     1     -35.939  21.904   6.145  0.00  0.00    -0.374 OA
ATOM     37  H   UNL     1     -35.402  21.199   6.538  0.00  0.00    +0.211 HD
ENDBRANCH  35  36
ENDBRANCH  26  35
TORSDOF 3
ENDMDL
MODEL 7
REMARK VINA RESULT:      -6.7      2.972      3.739
REMARK  Name = 60202647
REMARK  3 active torsions:
REMARK  status: ('A' for Active; 'I' for Inactive)
REMARK    1  A    between atoms: N_2  and  C_28
REMARK    2  A    between atoms: C_26  and  C_35
REMARK    3  A    between atoms: C_35  and  O_36
REMARK                            x       y       z     vdW  Elec       q    Type
REMARK                         _______ _______ _______ _____ _____    ______ ____
ROOT
ATOM      1  O   UNL     1     -40.714  13.000  -3.173  0.00  0.00    -0.272 OA
ATOM      2  N   UNL     1     -38.098  24.035   2.331  0.00  0.00    -0.303 N 
ATOM      3  N   UNL     1     -37.424  21.860   1.547  0.00  0.00    -0.319 NA
ATOM      4  N   UNL     1     -40.696  26.636   2.663  0.00  0.00    -0.241 NA
ATOM      5  N   UNL     1     -39.203  20.669   0.392  0.00  0.00    -0.170 NA
ATOM      6  N   UNL     1     -39.079  14.477  -2.427  0.00  0.00    -0.276 N 
ATOM      7  N   UNL     1     -37.088  19.727   0.671  0.00  0.00    -0.222 N 
ATOM      8  N   UNL     1     -38.468  18.187  -0.511  0.00  0.00    -0.394 NA
ATOM      9  C   UNL     1     -39.235  24.808   2.307  0.00  0.00    +0.081 A 
ATOM     10  C   UNL     1     -38.329  22.843   1.699  0.00  0.00    +0.209 A 
ATOM     11  C   UNL     1     -40.224  24.083   1.635  0.00  0.00    +0.024 A 
ATOM     12  C   UNL     1     -39.642  22.839   1.252  0.00  0.00    +0.069 A 
ATOM     13  C   UNL     1     -39.472  26.079   2.818  0.00  0.00    +0.116 C 
ATOM     14  C   UNL     1     -41.490  24.667   1.477  0.00  0.00    +0.022 C 
ATOM     15  C   UNL     1     -40.067  21.694   0.576  0.00  0.00    +0.116 C 
ATOM     16  C   UNL     1     -37.952  20.814   0.882  0.00  0.00    +0.152 C 
ATOM     17  C   UNL     1     -41.653  25.937   2.013  0.00  0.00    +0.099 C 
ATOM     18  C   UNL     1     -39.946  16.655  -1.698  0.00  0.00    +0.076 C 
ATOM     19  C   UNL     1     -39.823  15.666  -2.848  0.00  0.00    +0.101 C 
ATOM     20  C   UNL     1     -37.737  14.713  -1.872  0.00  0.00    +0.104 C 
ATOM     21  C   UNL     1     -37.564  16.047  -1.195  0.00  0.00    +0.090 C 
ATOM     22  C   UNL     1     -38.597  16.983  -1.121  0.00  0.00    +0.095 C 
ATOM     23  C   UNL     1     -37.263  18.476   0.030  0.00  0.00    +0.191 C 
ATOM     24  C   UNL     1     -36.337  16.389  -0.622  0.00  0.00    -0.014 C 
ATOM     25  C   UNL     1     -36.178  17.621   0.001  0.00  0.00    +0.044 C 
ATOM     26  C   UNL     1     -39.592  13.209  -2.708  0.00  0.00    +0.256 C 
ATOM     27  H   UNL     1     -36.185  19.862   1.038  0.00  0.00    +0.167 HD
ENDROOT
BRANCH   2  28
ATOM     28  C   UNL     1     -36.779  24.440   2.965  0.00  0.00    +0.088 C 
ATOM     29  C   UNL     1     -35.044  26.153   4.660  0.00  0.00    +0.000 C 
ATOM     30  C   UNL     1     -36.320  25.830   2.495  0.00  0.00    +0.023 C 
ATOM     31  C   UNL     1     -36.837  24.369   4.500  0.00  0.00    +0.023 C 
ATOM     32  C   UNL     1     -35.502  24.766   5.129  0.00  0.00    +0.002 C 
ATOM     33  C   UNL     1     -34.987  26.223   3.129  0.00  0.00    +0.002 C 
ATOM     34  C   UNL     1     -33.686  26.506   5.266  0.00  0.00    +0.000 C 
ENDBRANCH   2  28
BRANCH  26  35
ATOM     35  C   UNL     1     -38.687  12.040  -2.402  0.00  0.00    +0.223 C 
BRANCH  35  36
ATOM     36  O   UNL     1     -39.051  11.575  -1.126  0.00  0.00    -0.374 OA
ATOM     37  H   UNL     1     -39.494  12.286  -0.636  0.00  0.00    +0.211 HD
ENDBRANCH  35  36
ENDBRANCH  26  35
TORSDOF 3
ENDMDL
MODEL 8
REMARK VINA RESULT:      -6.7      2.205      4.793
REMARK  Name = 60202647
REMARK  3 active torsions:
REMARK  status: ('A' for Active; 'I' for Inactive)
REMARK    1  A    between atoms: N_2  and  C_28
REMARK    2  A    between atoms: C_26  and  C_35
REMARK    3  A    between atoms: C_35  and  O_36
REMARK                            x       y       z     vdW  Elec       q    Type
REMARK                         _______ _______ _______ _____ _____    ______ ____
ROOT
ATOM      1  O   UNL     1     -34.546  13.464  -1.897  0.00  0.00    -0.272 OA
ATOM      2  N   UNL     1     -37.362  24.704   3.069  0.00  0.00    -0.303 N 
ATOM      3  N   UNL     1     -37.908  22.825   1.664  0.00  0.00    -0.319 NA
ATOM      4  N   UNL     1     -35.081  26.322   5.477  0.00  0.00    -0.241 NA
ATOM      5  N   UNL     1     -36.254  21.043   1.769  0.00  0.00    -0.170 NA
ATOM      6  N   UNL     1     -36.173  15.081  -1.510  0.00  0.00    -0.276 N 
ATOM      7  N   UNL     1     -38.147  20.870   0.418  0.00  0.00    -0.222 N 
ATOM      8  N   UNL     1     -36.845  18.890   0.178  0.00  0.00    -0.394 NA
ATOM      9  C   UNL     1     -36.352  25.057   3.933  0.00  0.00    +0.081 A 
ATOM     10  C   UNL     1     -37.115  23.464   2.543  0.00  0.00    +0.209 A 
ATOM     11  C   UNL     1     -35.432  24.005   3.959  0.00  0.00    +0.024 A 
ATOM     12  C   UNL     1     -35.922  22.998   3.076  0.00  0.00    +0.069 A 
ATOM     13  C   UNL     1     -36.176  26.209   4.689  0.00  0.00    +0.116 C 
ATOM     14  C   UNL     1     -34.299  24.128   4.778  0.00  0.00    +0.022 C 
ATOM     15  C   UNL     1     -35.501  21.736   2.654  0.00  0.00    +0.116 C 
ATOM     16  C   UNL     1     -37.395  21.622   1.335  0.00  0.00    +0.152 C 
ATOM     17  C   UNL     1     -34.190  25.306   5.504  0.00  0.00    +0.099 C 
ATOM     18  C   UNL     1     -35.450  16.902  -0.030  0.00  0.00    +0.076 C 
ATOM     19  C   UNL     1     -35.672  15.403  -0.172  0.00  0.00    +0.101 C 
ATOM     20  C   UNL     1     -37.401  15.774  -1.928  0.00  0.00    +0.104 C 
ATOM     21  C   UNL     1     -37.600  17.131  -1.305  0.00  0.00    +0.090 C 
ATOM     22  C   UNL     1     -36.692  17.669  -0.391  0.00  0.00    +0.095 C 
ATOM     23  C   UNL     1     -37.949  19.592  -0.161  0.00  0.00    +0.191 C 
ATOM     24  C   UNL     1     -38.725  17.893  -1.626  0.00  0.00    -0.014 C 
ATOM     25  C   UNL     1     -38.909  19.143  -1.048  0.00  0.00    +0.044 C 
ATOM     26  C   UNL     1     -35.575  14.051  -2.239  0.00  0.00    +0.256 C 
ATOM     27  H   UNL     1     -38.972  21.317   0.120  0.00  0.00    +0.167 HD
ENDROOT
BRANCH   2  28
ATOM     28  C   UNL     1     -38.573  25.559   2.742  0.00  0.00    +0.088 C 
ATOM     29  C   UNL     1     -41.218  26.081   1.496  0.00  0.00    +0.000 C 
ATOM     30  C   UNL     1     -38.714  25.797   1.229  0.00  0.00    +0.023 C 
ATOM     31  C   UNL     1     -39.865  24.969   3.329  0.00  0.00    +0.023 C 
ATOM     32  C   UNL     1     -41.077  25.844   3.006  0.00  0.00    +0.002 C 
ATOM     33  C   UNL     1     -39.928  26.669   0.911  0.00  0.00    +0.002 C 
ATOM     34  C   UNL     1     -42.407  26.995   1.204  0.00  0.00    +0.000 C 
ENDBRANCH   2  28
BRANCH  26  35
ATOM     35  C   UNL     1     -36.256  13.663  -3.528  0.00  0.00    +0.223 C 
BRANCH  35  36
ATOM     36  O   UNL     1     -36.960  12.473  -3.268  0.00  0.00    -0.374 OA
ATOM     37  H   UNL     1     -36.342  11.793  -2.955  0.00  0.00    +0.211 HD
ENDBRANCH  35  36
ENDBRANCH  26  35
TORSDOF 3
ENDMDL
MODEL 9
REMARK VINA RESULT:      -6.7      8.588     13.605
REMARK  Name = 60202647
REMARK  3 active torsions:
REMARK  status: ('A' for Active; 'I' for Inactive)
REMARK    1  A    between atoms: N_2  and  C_28
REMARK    2  A    between atoms: C_26  and  C_35
REMARK    3  A    between atoms: C_35  and  O_36
REMARK                            x       y       z     vdW  Elec       q    Type
REMARK                         _______ _______ _______ _____ _____    ______ ____
ROOT
ATOM      1  O   UNL     1     -32.008  37.676   0.676  0.00  0.00    -0.272 OA
ATOM      2  N   UNL     1     -36.297  25.967   2.521  0.00  0.00    -0.303 N 
ATOM      3  N   UNL     1     -34.744  27.743   3.007  0.00  0.00    -0.319 NA
ATOM      4  N   UNL     1     -39.291  24.756   0.734  0.00  0.00    -0.241 NA
ATOM      5  N   UNL     1     -35.259  29.809   1.829  0.00  0.00    -0.170 NA
ATOM      6  N   UNL     1     -31.969  35.763   1.998  0.00  0.00    -0.276 N 
ATOM      7  N   UNL     1     -33.427  29.648   3.265  0.00  0.00    -0.222 N 
ATOM      8  N   UNL     1     -33.507  31.849   2.360  0.00  0.00    -0.394 NA
ATOM      9  C   UNL     1     -37.419  25.792   1.744  0.00  0.00    +0.081 A 
ATOM     10  C   UNL     1     -35.827  27.245   2.383  0.00  0.00    +0.209 A 
ATOM     11  C   UNL     1     -37.672  27.002   1.091  0.00  0.00    +0.024 A 
ATOM     12  C   UNL     1     -36.660  27.919   1.501  0.00  0.00    +0.069 A 
ATOM     13  C   UNL     1     -38.226  24.676   1.565  0.00  0.00    +0.116 C 
ATOM     14  C   UNL     1     -38.778  27.079   0.231  0.00  0.00    +0.022 C 
ATOM     15  C   UNL     1     -36.337  29.251   1.234  0.00  0.00    +0.116 C 
ATOM     16  C   UNL     1     -34.539  29.031   2.668  0.00  0.00    +0.152 C 
ATOM     17  C   UNL     1     -39.538  25.925   0.102  0.00  0.00    +0.099 C 
ATOM     18  C   UNL     1     -33.641  34.076   1.377  0.00  0.00    +0.076 C 
ATOM     19  C   UNL     1     -33.402  35.507   1.839  0.00  0.00    +0.101 C 
ATOM     20  C   UNL     1     -31.243  34.856   2.900  0.00  0.00    +0.104 C 
ATOM     21  C   UNL     1     -31.823  33.470   2.997  0.00  0.00    +0.090 C 
ATOM     22  C   UNL     1     -32.969  33.092   2.294  0.00  0.00    +0.095 C 
ATOM     23  C   UNL     1     -32.892  30.956   3.165  0.00  0.00    +0.191 C 
ATOM     24  C   UNL     1     -31.222  32.512   3.817  0.00  0.00    -0.014 C 
ATOM     25  C   UNL     1     -31.760  31.234   3.908  0.00  0.00    +0.044 C 
ATOM     26  C   UNL     1     -31.408  36.910   1.433  0.00  0.00    +0.256 C 
ATOM     27  H   UNL     1     -32.924  29.057   3.869  0.00  0.00    +0.167 HD
ENDROOT
BRANCH   2  28
ATOM     28  C   UNL     1     -35.669  24.902   3.401  0.00  0.00    +0.088 C 
ATOM     29  C   UNL     1     -35.727  22.484   5.125  0.00  0.00    +0.000 C 
ATOM     30  C   UNL     1     -36.210  24.955   4.839  0.00  0.00    +0.023 C 
ATOM     31  C   UNL     1     -35.834  23.495   2.803  0.00  0.00    +0.023 C 
ATOM     32  C   UNL     1     -35.187  22.431   3.689  0.00  0.00    +0.002 C 
ATOM     33  C   UNL     1     -35.563  23.888   5.720  0.00  0.00    +0.002 C 
ATOM     34  C   UNL     1     -35.033  21.442   6.000  0.00  0.00    +0.000 C 
ENDBRANCH   2  28
BRANCH  26  35
ATOM     35  C   UNL     1     -29.969  37.195   1.788  0.00  0.00    +0.223 C 
BRANCH  35  36
ATOM     36  O   UNL     1     -29.214  36.959   0.625  0.00  0.00    -0.374 OA
ATOM     37  H   UNL     1     -29.382  36.058   0.307  0.00  0.00    +0.211 HD
ENDBRANCH  35  36
ENDBRANCH  26  35
TORSDOF 3
ENDMDL
