MODEL 1
REMARK VINA RESULT:      -5.4      0.000      0.000
REMARK  Name = 194723
REMARK  11 active torsions:
REMARK  status: ('A' for Active; 'I' for Inactive)
REMARK    1  A    between atoms: O_1  and  P_2
REMARK    2  A    between atoms: O_1  and  C_13
REMARK    3  A    between atoms: P_2  and  O_4
REMARK    4  A    between atoms: P_2  and  O_6
REMARK    5  A    between atoms: O_6  and  P_7
REMARK    6  A    between atoms: P_7  and  O_9
REMARK    7  A    between atoms: P_7  and  O_11
REMARK    8  A    between atoms: C_13  and  C_16
REMARK    9  A    between atoms: C_13  and  C_18
REMARK   10  A    between atoms: C_18  and  C_19
REMARK   11  A    between atoms: C_19  and  C_20
REMARK                            x       y       z     vdW  Elec       q    Type
REMARK                         _______ _______ _______ _____ _____    ______ ____
ROOT
ATOM      1  O   UNL     1     -37.392  22.937   3.752  0.00  0.00    -0.271 OA
ENDROOT
BRANCH   1   2
ATOM      2  P   UNL     1     -37.751  22.970   2.181  0.00  0.00    +0.484 P 
ATOM      3  O   UNL     1     -36.879  22.095   1.327  0.00  0.00    -0.227 OA
BRANCH   2   4
ATOM      4  O   UNL     1     -39.327  22.610   2.113  0.00  0.00    -0.302 OA
ATOM      5  H   UNL     1     -39.507  22.102   1.306  0.00  0.00    +0.222 HD
ENDBRANCH   2   4
BRANCH   2   6
ATOM      6  O   UNL     1     -37.711  24.536   1.782  0.00  0.00    -0.186 OA
BRANCH   6   7
ATOM      7  P   UNL     1     -38.669  25.765   2.214  0.00  0.00    +0.481 P 
ATOM      8  O   UNL     1     -39.722  26.122   1.206  0.00  0.00    -0.227 OA
BRANCH   7   9
ATOM      9  O   UNL     1     -39.225  25.313   3.663  0.00  0.00    -0.302 OA
ATOM     10  H   UNL     1     -40.104  24.913   3.562  0.00  0.00    +0.222 HD
ENDBRANCH   7   9
BRANCH   7  11
ATOM     11  O   UNL     1     -37.620  26.943   2.561  0.00  0.00    -0.302 OA
ATOM     12  H   UNL     1     -36.817  26.559   2.947  0.00  0.00    +0.222 HD
ENDBRANCH   7  11
ENDBRANCH   6   7
ENDBRANCH   2   6
ENDBRANCH   1   2
BRANCH   1  13
ATOM     13  C   UNL     1     -36.066  23.259   4.180  0.00  0.00    +0.147 C 
ATOM     14  C   UNL     1     -35.230  23.529   2.924  0.00  0.00    +0.037 C 
BRANCH  13  16
ATOM     15  F   UNL     1     -35.157  20.985   4.225  0.00  0.00    -0.206 F 
ATOM     16  C   UNL     1     -35.452  22.100   4.936  0.00  0.00    +0.142 C 
ATOM     17  C   UNL     1     -35.176  22.070   6.247  0.00  0.00    +0.030 C 
ENDBRANCH  13  16
BRANCH  13  18
ATOM     18  C   UNL     1     -36.125  24.533   5.055  0.00  0.00    +0.039 C 
BRANCH  18  19
ATOM     19  C   UNL     1     -35.120  25.619   4.645  0.00  0.00    +0.028 C 
BRANCH  19  20
ATOM     20  C   UNL     1     -34.275  26.043   5.813  0.00  0.00    -0.034 C 
ATOM     21  C   UNL     1     -33.261  26.929   5.813  0.00  0.00    -0.048 C 
ATOM     22  C   UNL     1     -32.539  27.265   7.091  0.00  0.00    +0.026 C 
ATOM     23  C   UNL     1     -32.741  27.643   4.597  0.00  0.00    +0.026 C 
ENDBRANCH  19  20
ENDBRANCH  18  19
ENDBRANCH  13  18
ENDBRANCH   1  13
TORSDOF 11
ENDMDL
MODEL 2
REMARK VINA RESULT:      -5.4      3.039      5.010
REMARK  Name = 194723
REMARK  11 active torsions:
REMARK  status: ('A' for Active; 'I' for Inactive)
REMARK    1  A    between atoms: O_1  and  P_2
REMARK    2  A    between atoms: O_1  and  C_13
REMARK    3  A    between atoms: P_2  and  O_4
REMARK    4  A    between atoms: P_2  and  O_6
REMARK    5  A    between atoms: O_6  and  P_7
REMARK    6  A    between atoms: P_7  and  O_9
REMARK    7  A    between atoms: P_7  and  O_11
REMARK    8  A    between atoms: C_13  and  C_16
REMARK    9  A    between atoms: C_13  and  C_18
REMARK   10  A    between atoms: C_18  and  C_19
REMARK   11  A    between atoms: C_19  and  C_20
REMARK                            x       y       z     vdW  Elec       q    Type
REMARK                         _______ _______ _______ _____ _____    ______ ____
ROOT
ATOM      1  O   UNL     1     -36.801  23.895   3.901  0.00  0.00    -0.271 OA
ENDROOT
BRANCH   1   2
ATOM      2  P   UNL     1     -36.866  25.292   3.100  0.00  0.00    +0.484 P 
ATOM      3  O   UNL     1     -37.297  25.164   1.667  0.00  0.00    -0.227 OA
BRANCH   2   4
ATOM      4  O   UNL     1     -37.820  26.238   4.001  0.00  0.00    -0.302 OA
ATOM      5  H   UNL     1     -37.438  27.129   4.049  0.00  0.00    +0.222 HD
ENDBRANCH   2   4
BRANCH   2   6
ATOM      6  O   UNL     1     -35.402  25.947   3.295  0.00  0.00    -0.186 OA
BRANCH   6   7
ATOM      7  P   UNL     1     -34.520  26.194   4.627  0.00  0.00    +0.481 P 
ATOM      8  O   UNL     1     -33.910  27.562   4.729  0.00  0.00    -0.227 OA
BRANCH   7   9
ATOM      9  O   UNL     1     -35.532  25.798   5.823  0.00  0.00    -0.302 OA
ATOM     10  H   UNL     1     -36.006  24.984   5.589  0.00  0.00    +0.222 HD
ENDBRANCH   7   9
BRANCH   7  11
ATOM     11  O   UNL     1     -33.466  24.970   4.602  0.00  0.00    -0.302 OA
ATOM     12  H   UNL     1     -32.835  25.071   5.332  0.00  0.00    +0.222 HD
ENDBRANCH   7  11
ENDBRANCH   6   7
ENDBRANCH   2   6
ENDBRANCH   1   2
BRANCH   1  13
ATOM     13  C   UNL     1     -36.218  22.748   3.277  0.00  0.00    +0.147 C 
ATOM     14  C   UNL     1     -37.356  21.948   2.631  0.00  0.00    +0.037 C 
BRANCH  13  16
ATOM     15  F   UNL     1     -35.057  20.676   3.878  0.00  0.00    -0.206 F 
ATOM     16  C   UNL     1     -35.528  21.874   4.303  0.00  0.00    +0.142 C 
ATOM     17  C   UNL     1     -35.344  22.170   5.596  0.00  0.00    +0.030 C 
ENDBRANCH  13  16
BRANCH  13  18
ATOM     18  C   UNL     1     -35.229  23.226   2.190  0.00  0.00    +0.039 C 
BRANCH  18  19
ATOM     19  C   UNL     1     -35.253  22.381   0.908  0.00  0.00    +0.028 C 
BRANCH  19  20
ATOM     20  C   UNL     1     -33.900  21.793   0.622  0.00  0.00    -0.034 C 
ATOM     21  C   UNL     1     -33.548  20.494   0.650  0.00  0.00    -0.048 C 
ATOM     22  C   UNL     1     -32.145  20.075   0.299  0.00  0.00    +0.026 C 
ATOM     23  C   UNL     1     -34.459  19.362   1.033  0.00  0.00    +0.026 C 
ENDBRANCH  19  20
ENDBRANCH  18  19
ENDBRANCH  13  18
ENDBRANCH   1  13
TORSDOF 11
ENDMDL
MODEL 3
REMARK VINA RESULT:      -5.3      3.340      5.569
REMARK  Name = 194723
REMARK  11 active torsions:
REMARK  status: ('A' for Active; 'I' for Inactive)
REMARK    1  A    between atoms: O_1  and  P_2
REMARK    2  A    between atoms: O_1  and  C_13
REMARK    3  A    between atoms: P_2  and  O_4
REMARK    4  A    between atoms: P_2  and  O_6
REMARK    5  A    between atoms: O_6  and  P_7
REMARK    6  A    between atoms: P_7  and  O_9
REMARK    7  A    between atoms: P_7  and  O_11
REMARK    8  A    between atoms: C_13  and  C_16
REMARK    9  A    between atoms: C_13  and  C_18
REMARK   10  A    between atoms: C_18  and  C_19
REMARK   11  A    between atoms: C_19  and  C_20
REMARK                            x       y       z     vdW  Elec       q    Type
REMARK                         _______ _______ _______ _____ _____    ______ ____
ROOT
ATOM      1  O   UNL     1     -35.336  23.961   3.486  0.00  0.00    -0.271 OA
ENDROOT
BRANCH   1   2
ATOM      2  P   UNL     1     -36.026  22.688   4.194  0.00  0.00    +0.484 P 
ATOM      3  O   UNL     1     -36.085  22.770   5.692  0.00  0.00    -0.227 OA
BRANCH   2   4
ATOM      4  O   UNL     1     -37.470  22.553   3.477  0.00  0.00    -0.302 OA
ATOM      5  H   UNL     1     -37.622  23.325   2.910  0.00  0.00    +0.222 HD
ENDBRANCH   2   4
BRANCH   2   6
ATOM      6  O   UNL     1     -35.210  21.411   3.631  0.00  0.00    -0.186 OA
BRANCH   6   7
ATOM      7  P   UNL     1     -35.396  20.547   2.277  0.00  0.00    +0.481 P 
ATOM      8  O   UNL     1     -34.218  19.689   1.917  0.00  0.00    -0.227 OA
BRANCH   7   9
ATOM      9  O   UNL     1     -36.780  19.752   2.529  0.00  0.00    -0.302 OA
ATOM     10  H   UNL     1     -36.594  18.918   2.991  0.00  0.00    +0.222 HD
ENDBRANCH   7   9
BRANCH   7  11
ATOM     11  O   UNL     1     -35.795  21.665   1.181  0.00  0.00    -0.302 OA
ATOM     12  H   UNL     1     -36.330  22.356   1.603  0.00  0.00    +0.222 HD
ENDBRANCH   7  11
ENDBRANCH   6   7
ENDBRANCH   2   6
ENDBRANCH   1   2
BRANCH   1  13
ATOM     13  C   UNL     1     -35.803  25.279   3.789  0.00  0.00    +0.147 C 
ATOM     14  C   UNL     1     -35.253  26.220   2.711  0.00  0.00    +0.037 C 
BRANCH  13  16
ATOM     15  F   UNL     1     -36.213  25.976   6.101  0.00  0.00    -0.206 F 
ATOM     16  C   UNL     1     -35.290  25.730   5.140  0.00  0.00    +0.142 C 
ATOM     17  C   UNL     1     -34.006  25.916   5.475  0.00  0.00    +0.030 C 
ENDBRANCH  13  16
BRANCH  13  18
ATOM     18  C   UNL     1     -37.348  25.277   3.746  0.00  0.00    +0.039 C 
BRANCH  18  19
ATOM     19  C   UNL     1     -37.942  26.141   2.623  0.00  0.00    +0.028 C 
BRANCH  19  20
ATOM     20  C   UNL     1     -39.024  25.401   1.887  0.00  0.00    -0.034 C 
ATOM     21  C   UNL     1     -40.349  25.439   2.122  0.00  0.00    -0.048 C 
ATOM     22  C   UNL     1     -41.301  24.655   1.257  0.00  0.00    +0.026 C 
ATOM     23  C   UNL     1     -41.007  26.216   3.227  0.00  0.00    +0.026 C 
ENDBRANCH  19  20
ENDBRANCH  18  19
ENDBRANCH  13  18
ENDBRANCH   1  13
TORSDOF 11
ENDMDL
MODEL 4
REMARK VINA RESULT:      -5.3      6.329      7.987
REMARK  Name = 194723
REMARK  11 active torsions:
REMARK  status: ('A' for Active; 'I' for Inactive)
REMARK    1  A    between atoms: O_1  and  P_2
REMARK    2  A    between atoms: O_1  and  C_13
REMARK    3  A    between atoms: P_2  and  O_4
REMARK    4  A    between atoms: P_2  and  O_6
REMARK    5  A    between atoms: O_6  and  P_7
REMARK    6  A    between atoms: P_7  and  O_9
REMARK    7  A    between atoms: P_7  and  O_11
REMARK    8  A    between atoms: C_13  and  C_16
REMARK    9  A    between atoms: C_13  and  C_18
REMARK   10  A    between atoms: C_18  and  C_19
REMARK   11  A    between atoms: C_19  and  C_20
REMARK                            x       y       z     vdW  Elec       q    Type
REMARK                         _______ _______ _______ _____ _____    ______ ____
ROOT
ATOM      1  O   UNL     1     -31.584  27.480   4.192  0.00  0.00    -0.271 OA
ENDROOT
BRANCH   1   2
ATOM      2  P   UNL     1     -31.551  28.431   5.493  0.00  0.00    +0.484 P 
ATOM      3  O   UNL     1     -32.581  29.524   5.489  0.00  0.00    -0.227 OA
BRANCH   2   4
ATOM      4  O   UNL     1     -31.663  27.415   6.747  0.00  0.00    -0.302 OA
ATOM      5  H   UNL     1     -32.592  27.334   7.014  0.00  0.00    +0.222 HD
ENDBRANCH   2   4
BRANCH   2   6
ATOM      6  O   UNL     1     -30.026  28.960   5.578  0.00  0.00    -0.186 OA
BRANCH   6   7
ATOM      7  P   UNL     1     -28.874  28.702   6.684  0.00  0.00    +0.481 P 
ATOM      8  O   UNL     1     -27.520  29.232   6.311  0.00  0.00    -0.227 OA
BRANCH   7   9
ATOM      9  O   UNL     1     -29.511  29.320   8.035  0.00  0.00    -0.302 OA
ATOM     10  H   UNL     1     -28.971  29.054   8.797  0.00  0.00    +0.222 HD
ENDBRANCH   7   9
BRANCH   7  11
ATOM     11  O   UNL     1     -28.948  27.107   6.925  0.00  0.00    -0.302 OA
ATOM     12  H   UNL     1     -29.832  26.784   6.690  0.00  0.00    +0.222 HD
ENDBRANCH   7  11
ENDBRANCH   6   7
ENDBRANCH   2   6
ENDBRANCH   1   2
BRANCH   1  13
ATOM     13  C   UNL     1     -32.840  27.133   3.602  0.00  0.00    +0.147 C 
ATOM     14  C   UNL     1     -32.571  26.044   2.557  0.00  0.00    +0.037 C 
BRANCH  13  16
ATOM     15  F   UNL     1     -34.707  28.689   3.291  0.00  0.00    -0.206 F 
ATOM     16  C   UNL     1     -33.456  28.331   2.911  0.00  0.00    +0.142 C 
ATOM     17  C   UNL     1     -32.882  29.071   1.952  0.00  0.00    +0.030 C 
ENDBRANCH  13  16
BRANCH  13  18
ATOM     18  C   UNL     1     -33.770  26.582   4.707  0.00  0.00    +0.039 C 
BRANCH  18  19
ATOM     19  C   UNL     1     -34.647  25.405   4.256  0.00  0.00    +0.028 C 
BRANCH  19  20
ATOM     20  C   UNL     1     -34.749  24.362   5.332  0.00  0.00    -0.034 C 
ATOM     21  C   UNL     1     -35.301  23.137   5.237  0.00  0.00    -0.048 C 
ATOM     22  C   UNL     1     -35.284  22.198   6.414  0.00  0.00    +0.026 C 
ATOM     23  C   UNL     1     -35.981  22.591   4.014  0.00  0.00    +0.026 C 
ENDBRANCH  19  20
ENDBRANCH  18  19
ENDBRANCH  13  18
ENDBRANCH   1  13
TORSDOF 11
ENDMDL
MODEL 5
REMARK VINA RESULT:      -5.3      3.944      6.024
REMARK  Name = 194723
REMARK  11 active torsions:
REMARK  status: ('A' for Active; 'I' for Inactive)
REMARK    1  A    between atoms: O_1  and  P_2
REMARK    2  A    between atoms: O_1  and  C_13
REMARK    3  A    between atoms: P_2  and  O_4
REMARK    4  A    between atoms: P_2  and  O_6
REMARK    5  A    between atoms: O_6  and  P_7
REMARK    6  A    between atoms: P_7  and  O_9
REMARK    7  A    between atoms: P_7  and  O_11
REMARK    8  A    between atoms: C_13  and  C_16
REMARK    9  A    between atoms: C_13  and  C_18
REMARK   10  A    between atoms: C_18  and  C_19
REMARK   11  A    between atoms: C_19  and  C_20
REMARK                            x       y       z     vdW  Elec       q    Type
REMARK                         _______ _______ _______ _____ _____    ______ ____
ROOT
ATOM      1  O   UNL     1     -35.341  23.658   3.078  0.00  0.00    -0.271 OA
ENDROOT
BRANCH   1   2
ATOM      2  P   UNL     1     -36.130  23.868   4.467  0.00  0.00    +0.484 P 
ATOM      3  O   UNL     1     -37.450  24.571   4.330  0.00  0.00    -0.227 OA
BRANCH   2   4
ATOM      4  O   UNL     1     -36.227  22.388   5.112  0.00  0.00    -0.302 OA
ATOM      5  H   UNL     1     -35.690  22.352   5.920  0.00  0.00    +0.222 HD
ENDBRANCH   2   4
BRANCH   2   6
ATOM      6  O   UNL     1     -35.074  24.624   5.430  0.00  0.00    -0.186 OA
BRANCH   6   7
ATOM      7  P   UNL     1     -34.308  26.038   5.261  0.00  0.00    +0.481 P 
ATOM      8  O   UNL     1     -33.668  26.557   6.515  0.00  0.00    -0.227 OA
BRANCH   7   9
ATOM      9  O   UNL     1     -33.297  25.769   4.029  0.00  0.00    -0.302 OA
ATOM     10  H   UNL     1     -33.260  24.817   3.843  0.00  0.00    +0.222 HD
ENDBRANCH   7   9
BRANCH   7  11
ATOM     11  O   UNL     1     -35.441  26.994   4.619  0.00  0.00    -0.302 OA
ATOM     12  H   UNL     1     -35.979  26.484   3.993  0.00  0.00    +0.222 HD
ENDBRANCH   7  11
ENDBRANCH   6   7
ENDBRANCH   2   6
ENDBRANCH   1   2
BRANCH   1  13
ATOM     13  C   UNL     1     -35.758  22.629   2.176  0.00  0.00    +0.147 C 
ATOM     14  C   UNL     1     -34.977  22.818   0.870  0.00  0.00    +0.037 C 
BRANCH  13  16
ATOM     15  F   UNL     1     -38.074  21.937   2.576  0.00  0.00    -0.206 F 
ATOM     16  C   UNL     1     -37.239  22.746   1.881  0.00  0.00    +0.142 C 
ATOM     17  C   UNL     1     -37.803  23.572   0.990  0.00  0.00    +0.030 C 
ENDBRANCH  13  16
BRANCH  13  18
ATOM     18  C   UNL     1     -35.416  21.256   2.799  0.00  0.00    +0.039 C 
BRANCH  18  19
ATOM     19  C   UNL     1     -35.287  20.120   1.774  0.00  0.00    +0.028 C 
BRANCH  19  20
ATOM     20  C   UNL     1     -33.908  19.523   1.799  0.00  0.00    -0.034 C 
ATOM     21  C   UNL     1     -33.439  18.510   1.047  0.00  0.00    -0.048 C 
ATOM     22  C   UNL     1     -32.009  18.058   1.179  0.00  0.00    +0.026 C 
ATOM     23  C   UNL     1     -34.248  17.734   0.046  0.00  0.00    +0.026 C 
ENDBRANCH  19  20
ENDBRANCH  18  19
ENDBRANCH  13  18
ENDBRANCH   1  13
TORSDOF 11
ENDMDL
MODEL 6
REMARK VINA RESULT:      -5.2      5.623      6.702
REMARK  Name = 194723
REMARK  11 active torsions:
REMARK  status: ('A' for Active; 'I' for Inactive)
REMARK    1  A    between atoms: O_1  and  P_2
REMARK    2  A    between atoms: O_1  and  C_13
REMARK    3  A    between atoms: P_2  and  O_4
REMARK    4  A    between atoms: P_2  and  O_6
REMARK    5  A    between atoms: O_6  and  P_7
REMARK    6  A    between atoms: P_7  and  O_9
REMARK    7  A    between atoms: P_7  and  O_11
REMARK    8  A    between atoms: C_13  and  C_16
REMARK    9  A    between atoms: C_13  and  C_18
REMARK   10  A    between atoms: C_18  and  C_19
REMARK   11  A    between atoms: C_19  and  C_20
REMARK                            x       y       z     vdW  Elec       q    Type
REMARK                         _______ _______ _______ _____ _____    ______ ____
ROOT
ATOM      1  O   UNL     1     -34.321  19.472   2.316  0.00  0.00    -0.271 OA
ENDROOT
BRANCH   1   2
ATOM      2  P   UNL     1     -35.460  20.592   2.530  0.00  0.00    +0.484 P 
ATOM      3  O   UNL     1     -35.450  21.689   1.504  0.00  0.00    -0.227 OA
BRANCH   2   4
ATOM      4  O   UNL     1     -36.846  19.761   2.602  0.00  0.00    -0.302 OA
ATOM      5  H   UNL     1     -37.114  19.661   3.530  0.00  0.00    +0.222 HD
ENDBRANCH   2   4
BRANCH   2   6
ATOM      6  O   UNL     1     -35.255  21.104   4.049  0.00  0.00    -0.186 OA
BRANCH   6   7
ATOM      7  P   UNL     1     -35.644  22.504   4.759  0.00  0.00    +0.481 P 
ATOM      8  O   UNL     1     -34.558  23.539   4.738  0.00  0.00    -0.227 OA
BRANCH   7   9
ATOM      9  O   UNL     1     -37.017  22.927   4.019  0.00  0.00    -0.302 OA
ATOM     10  H   UNL     1     -37.524  23.523   4.594  0.00  0.00    +0.222 HD
ENDBRANCH   7   9
BRANCH   7  11
ATOM     11  O   UNL     1     -36.131  22.046   6.230  0.00  0.00    -0.302 OA
ATOM     12  H   UNL     1     -36.167  21.078   6.272  0.00  0.00    +0.222 HD
ENDBRANCH   7  11
ENDBRANCH   6   7
ENDBRANCH   2   6
ENDBRANCH   1   2
BRANCH   1  13
ATOM     13  C   UNL     1     -33.804  19.231   1.005  0.00  0.00    +0.147 C 
ATOM     14  C   UNL     1     -35.001  19.021   0.070  0.00  0.00    +0.037 C 
BRANCH  13  16
ATOM     15  F   UNL     1     -31.878  17.955   1.820  0.00  0.00    -0.206 F 
ATOM     16  C   UNL     1     -32.948  17.982   0.989  0.00  0.00    +0.142 C 
ATOM     17  C   UNL     1     -33.146  16.899   0.225  0.00  0.00    +0.030 C 
ENDBRANCH  13  16
BRANCH  13  18
ATOM     18  C   UNL     1     -32.997  20.470   0.556  0.00  0.00    +0.039 C 
BRANCH  18  19
ATOM     19  C   UNL     1     -32.408  20.354  -0.857  0.00  0.00    +0.028 C 
BRANCH  19  20
ATOM     20  C   UNL     1     -31.068  21.029  -0.943  0.00  0.00    -0.034 C 
ATOM     21  C   UNL     1     -29.859  20.483  -0.713  0.00  0.00    -0.048 C 
ATOM     22  C   UNL     1     -28.607  21.302  -0.880  0.00  0.00    +0.026 C 
ATOM     23  C   UNL     1     -29.623  19.067  -0.270  0.00  0.00    +0.026 C 
ENDBRANCH  19  20
ENDBRANCH  18  19
ENDBRANCH  13  18
ENDBRANCH   1  13
TORSDOF 11
ENDMDL
MODEL 7
REMARK VINA RESULT:      -5.2      2.468      4.695
REMARK  Name = 194723
REMARK  11 active torsions:
REMARK  status: ('A' for Active; 'I' for Inactive)
REMARK    1  A    between atoms: O_1  and  P_2
REMARK    2  A    between atoms: O_1  and  C_13
REMARK    3  A    between atoms: P_2  and  O_4
REMARK    4  A    between atoms: P_2  and  O_6
REMARK    5  A    between atoms: O_6  and  P_7
REMARK    6  A    between atoms: P_7  and  O_9
REMARK    7  A    between atoms: P_7  and  O_11
REMARK    8  A    between atoms: C_13  and  C_16
REMARK    9  A    between atoms: C_13  and  C_18
REMARK   10  A    between atoms: C_18  and  C_19
REMARK   11  A    between atoms: C_19  and  C_20
REMARK                            x       y       z     vdW  Elec       q    Type
REMARK                         _______ _______ _______ _____ _____    ______ ____
ROOT
ATOM      1  O   UNL     1     -36.971  23.720   4.434  0.00  0.00    -0.271 OA
ENDROOT
BRANCH   1   2
ATOM      2  P   UNL     1     -37.554  24.275   3.037  0.00  0.00    +0.484 P 
ATOM      3  O   UNL     1     -36.515  24.851   2.118  0.00  0.00    -0.227 OA
BRANCH   2   4
ATOM      4  O   UNL     1     -38.380  23.032   2.414  0.00  0.00    -0.302 OA
ATOM      5  H   UNL     1     -38.844  23.322   1.614  0.00  0.00    +0.222 HD
ENDBRANCH   2   4
BRANCH   2   6
ATOM      6  O   UNL     1     -38.715  25.317   3.461  0.00  0.00    -0.186 OA
BRANCH   6   7
ATOM      7  P   UNL     1     -40.015  25.841   2.655  0.00  0.00    +0.481 P 
ATOM      8  O   UNL     1     -40.842  24.756   2.029  0.00  0.00    -0.227 OA
BRANCH   7   9
ATOM      9  O   UNL     1     -40.784  26.756   3.742  0.00  0.00    -0.302 OA
ATOM     10  H   UNL     1     -41.640  26.352   3.959  0.00  0.00    +0.222 HD
ENDBRANCH   7   9
BRANCH   7  11
ATOM     11  O   UNL     1     -39.397  26.919   1.622  0.00  0.00    -0.302 OA
ATOM     12  H   UNL     1     -38.988  26.454   0.875  0.00  0.00    +0.222 HD
ENDBRANCH   7  11
ENDBRANCH   6   7
ENDBRANCH   2   6
ENDBRANCH   1   2
BRANCH   1  13
ATOM     13  C   UNL     1     -35.597  23.333   4.524  0.00  0.00    +0.147 C 
ATOM     14  C   UNL     1     -35.455  22.424   5.750  0.00  0.00    +0.037 C 
BRANCH  13  16
ATOM     15  F   UNL     1     -33.688  24.706   3.836  0.00  0.00    -0.206 F 
ATOM     16  C   UNL     1     -34.711  24.547   4.710  0.00  0.00    +0.142 C 
ATOM     17  C   UNL     1     -34.840  25.479   5.664  0.00  0.00    +0.030 C 
ENDBRANCH  13  16
BRANCH  13  18
ATOM     18  C   UNL     1     -35.219  22.553   3.244  0.00  0.00    +0.039 C 
BRANCH  18  19
ATOM     19  C   UNL     1     -35.388  21.032   3.368  0.00  0.00    +0.028 C 
BRANCH  19  20
ATOM     20  C   UNL     1     -35.815  20.426   2.060  0.00  0.00    -0.034 C 
ATOM     21  C   UNL     1     -35.087  19.641   1.244  0.00  0.00    -0.048 C 
ATOM     22  C   UNL     1     -35.688  19.088  -0.021  0.00  0.00    +0.026 C 
ATOM     23  C   UNL     1     -33.653  19.253   1.474  0.00  0.00    +0.026 C 
ENDBRANCH  19  20
ENDBRANCH  18  19
ENDBRANCH  13  18
ENDBRANCH   1  13
TORSDOF 11
ENDMDL
MODEL 8
REMARK VINA RESULT:      -5.1      4.277      6.082
REMARK  Name = 194723
REMARK  11 active torsions:
REMARK  status: ('A' for Active; 'I' for Inactive)
REMARK    1  A    between atoms: O_1  and  P_2
REMARK    2  A    between atoms: O_1  and  C_13
REMARK    3  A    between atoms: P_2  and  O_4
REMARK    4  A    between atoms: P_2  and  O_6
REMARK    5  A    between atoms: O_6  and  P_7
REMARK    6  A    between atoms: P_7  and  O_9
REMARK    7  A    between atoms: P_7  and  O_11
REMARK    8  A    between atoms: C_13  and  C_16
REMARK    9  A    between atoms: C_13  and  C_18
REMARK   10  A    between atoms: C_18  and  C_19
REMARK   11  A    between atoms: C_19  and  C_20
REMARK                            x       y       z     vdW  Elec       q    Type
REMARK                         _______ _______ _______ _____ _____    ______ ____
ROOT
ATOM      1  O   UNL     1     -34.501  24.935   5.235  0.00  0.00    -0.271 OA
ENDROOT
BRANCH   1   2
ATOM      2  P   UNL     1     -33.968  26.313   4.591  0.00  0.00    +0.484 P 
ATOM      3  O   UNL     1     -33.193  26.142   3.317  0.00  0.00    -0.227 OA
BRANCH   2   4
ATOM      4  O   UNL     1     -35.288  27.238   4.451  0.00  0.00    -0.302 OA
ATOM      5  H   UNL     1     -35.588  27.508   5.333  0.00  0.00    +0.222 HD
ENDBRANCH   2   4
BRANCH   2   6
ATOM      6  O   UNL     1     -33.139  27.029   5.780  0.00  0.00    -0.186 OA
BRANCH   6   7
ATOM      7  P   UNL     1     -31.930  28.102   5.733  0.00  0.00    +0.481 P 
ATOM      8  O   UNL     1     -32.354  29.529   5.923  0.00  0.00    -0.227 OA
BRANCH   7   9
ATOM      9  O   UNL     1     -30.888  27.538   6.831  0.00  0.00    -0.302 OA
ATOM     10  H   UNL     1     -31.095  26.611   7.028  0.00  0.00    +0.222 HD
ENDBRANCH   7   9
BRANCH   7  11
ATOM     11  O   UNL     1     -31.208  27.780   4.324  0.00  0.00    -0.302 OA
ATOM     12  H   UNL     1     -30.434  28.354   4.218  0.00  0.00    +0.222 HD
ENDBRANCH   7  11
ENDBRANCH   6   7
ENDBRANCH   2   6
ENDBRANCH   1   2
BRANCH   1  13
ATOM     13  C   UNL     1     -35.326  24.063   4.457  0.00  0.00    +0.147 C 
ATOM     14  C   UNL     1     -36.754  24.619   4.503  0.00  0.00    +0.037 C 
BRANCH  13  16
ATOM     15  F   UNL     1     -35.285  21.631   4.167  0.00  0.00    -0.206 F 
ATOM     16  C   UNL     1     -35.327  22.666   5.040  0.00  0.00    +0.142 C 
ATOM     17  C   UNL     1     -35.372  22.355   6.343  0.00  0.00    +0.030 C 
ENDBRANCH  13  16
BRANCH  13  18
ATOM     18  C   UNL     1     -34.808  24.064   3.000  0.00  0.00    +0.039 C 
BRANCH  18  19
ATOM     19  C   UNL     1     -35.920  24.122   1.943  0.00  0.00    +0.028 C 
BRANCH  19  20
ATOM     20  C   UNL     1     -36.085  22.795   1.257  0.00  0.00    -0.034 C 
ATOM     21  C   UNL     1     -37.122  21.942   1.360  0.00  0.00    -0.048 C 
ATOM     22  C   UNL     1     -37.139  20.661   0.569  0.00  0.00    +0.026 C 
ATOM     23  C   UNL     1     -38.321  22.145   2.243  0.00  0.00    +0.026 C 
ENDBRANCH  19  20
ENDBRANCH  18  19
ENDBRANCH  13  18
ENDBRANCH   1  13
TORSDOF 11
ENDMDL
MODEL 9
REMARK VINA RESULT:      -5.0      4.508      6.229
REMARK  Name = 194723
REMARK  11 active torsions:
REMARK  status: ('A' for Active; 'I' for Inactive)
REMARK    1  A    between atoms: O_1  and  P_2
REMARK    2  A    between atoms: O_1  and  C_13
REMARK    3  A    between atoms: P_2  and  O_4
REMARK    4  A    between atoms: P_2  and  O_6
REMARK    5  A    between atoms: O_6  and  P_7
REMARK    6  A    between atoms: P_7  and  O_9
REMARK    7  A    between atoms: P_7  and  O_11
REMARK    8  A    between atoms: C_13  and  C_16
REMARK    9  A    between atoms: C_13  and  C_18
REMARK   10  A    between atoms: C_18  and  C_19
REMARK   11  A    between atoms: C_19  and  C_20
REMARK                            x       y       z     vdW  Elec       q    Type
REMARK                         _______ _______ _______ _____ _____    ______ ____
ROOT
ATOM      1  O   UNL     1     -35.150  26.743   3.596  0.00  0.00    -0.271 OA
ENDROOT
BRANCH   1   2
ATOM      2  P   UNL     1     -33.557  26.954   3.727  0.00  0.00    +0.484 P 
ATOM      3  O   UNL     1     -32.749  25.700   3.555  0.00  0.00    -0.227 OA
BRANCH   2   4
ATOM      4  O   UNL     1     -33.209  28.121   2.663  0.00  0.00    -0.302 OA
ATOM      5  H   UNL     1     -32.794  27.729   1.878  0.00  0.00    +0.222 HD
ENDBRANCH   2   4
BRANCH   2   6
ATOM      6  O   UNL     1     -33.354  27.682   5.156  0.00  0.00    -0.186 OA
BRANCH   6   7
ATOM      7  P   UNL     1     -32.020  28.231   5.886  0.00  0.00    +0.481 P 
ATOM      8  O   UNL     1     -32.107  29.652   6.361  0.00  0.00    -0.227 OA
BRANCH   7   9
ATOM      9  O   UNL     1     -31.748  27.133   7.040  0.00  0.00    -0.302 OA
ATOM     10  H   UNL     1     -30.879  26.724   6.898  0.00  0.00    +0.222 HD
ENDBRANCH   7   9
BRANCH   7  11
ATOM     11  O   UNL     1     -30.860  27.937   4.801  0.00  0.00    -0.302 OA
ATOM     12  H   UNL     1     -30.809  28.675   4.174  0.00  0.00    +0.222 HD
ENDBRANCH   7  11
ENDBRANCH   6   7
ENDBRANCH   2   6
ENDBRANCH   1   2
BRANCH   1  13
ATOM     13  C   UNL     1     -35.706  25.436   3.767  0.00  0.00    +0.147 C 
ATOM     14  C   UNL     1     -37.199  25.525   3.432  0.00  0.00    +0.037 C 
BRANCH  13  16
ATOM     15  F   UNL     1     -35.892  25.854   6.173  0.00  0.00    -0.206 F 
ATOM     16  C   UNL     1     -35.554  24.974   5.201  0.00  0.00    +0.142 C 
ATOM     17  C   UNL     1     -35.110  23.774   5.601  0.00  0.00    +0.030 C 
ENDBRANCH  13  16
BRANCH  13  18
ATOM     18  C   UNL     1     -35.004  24.468   2.787  0.00  0.00    +0.039 C 
BRANCH  18  19
ATOM     19  C   UNL     1     -35.969  23.579   1.989  0.00  0.00    +0.028 C 
BRANCH  19  20
ATOM     20  C   UNL     1     -35.646  22.124   2.179  0.00  0.00    -0.034 C 
ATOM     21  C   UNL     1     -34.800  21.370   1.451  0.00  0.00    -0.048 C 
ATOM     22  C   UNL     1     -34.567  19.925   1.805  0.00  0.00    +0.026 C 
ATOM     23  C   UNL     1     -34.037  21.848   0.249  0.00  0.00    +0.026 C 
ENDBRANCH  19  20
ENDBRANCH  18  19
ENDBRANCH  13  18
ENDBRANCH   1  13
TORSDOF 11
ENDMDL
