MODEL 1
REMARK VINA RESULT:      -6.4      0.000      0.000
REMARK  Name = 51701
REMARK  7 active torsions:
REMARK  status: ('A' for Active; 'I' for Inactive)
REMARK    1  A    between atoms: C_2  and  C_13
REMARK    2  A    between atoms: C_3  and  C_20
REMARK    3  A    between atoms: C_4  and  C_25
REMARK    4  A    between atoms: C_20  and  O_21
REMARK    5  A    between atoms: O_21  and  C_22
REMARK    6  A    between atoms: C_25  and  O_26
REMARK    7  A    between atoms: O_26  and  C_27
REMARK                            x       y       z     vdW  Elec       q    Type
REMARK                         _______ _______ _______ _____ _____    ______ ____
ROOT
ATOM      1  N   UNL     1     -35.566  21.384   4.185  0.00  0.00    -0.334 N 
ATOM      2  C   UNL     1     -34.912  23.846   2.952  0.00  0.00    +0.013 C 
ATOM      3  C   UNL     1     -35.319  22.594   2.166  0.00  0.00    +0.071 C 
ATOM      4  C   UNL     1     -35.060  23.678   4.467  0.00  0.00    +0.085 C 
ATOM      5  C   UNL     1     -35.607  21.434   2.800  0.00  0.00    +0.098 C 
ATOM      6  C   UNL     1     -35.347  22.474   5.012  0.00  0.00    +0.028 C 
ATOM      7  C   UNL     1     -35.976  20.139   2.130  0.00  0.00    +0.026 C 
ATOM      8  C   UNL     1     -35.462  22.188   6.484  0.00  0.00    +0.047 C 
ATOM      9  H   UNL     1     -35.703  20.508   4.613  0.00  0.00    +0.147 HD
ENDROOT
BRANCH   2  13
ATOM     10  O   UNL     1     -39.189  25.003   3.244  0.00  0.00    -0.242 OA
ATOM     11  N   UNL     1     -37.959  24.370   3.322  0.00  0.00    -0.048 NA
ATOM     12  N   UNL     1     -39.106  26.211   2.574  0.00  0.00    -0.048 NA
ATOM     13  C   UNL     1     -35.717  25.026   2.486  0.00  0.00    +0.023 C 
ATOM     14  C   UNL     1     -37.092  25.179   2.700  0.00  0.00    +0.143 A 
ATOM     15  C   UNL     1     -35.100  26.073   1.789  0.00  0.00    +0.002 C 
ATOM     16  C   UNL     1     -37.820  26.348   2.223  0.00  0.00    +0.143 A 
ATOM     17  C   UNL     1     -35.810  27.211   1.326  0.00  0.00    +0.002 C 
ATOM     18  C   UNL     1     -37.191  27.394   1.524  0.00  0.00    +0.024 C 
ENDBRANCH   2  13
BRANCH   3  20
ATOM     19  O   UNL     1     -36.504  22.831   0.126  0.00  0.00    -0.245 OA
ATOM     20  C   UNL     1     -35.437  22.741   0.707  0.00  0.00    +0.339 C 
BRANCH  20  21
ATOM     21  O   UNL     1     -34.190  22.756   0.176  0.00  0.00    -0.446 OA
BRANCH  21  22
ATOM     22  C   UNL     1     -33.854  21.610  -0.613  0.00  0.00    +0.209 C 
ATOM     23  C   UNL     1     -32.788  20.811   0.108  0.00  0.00    +0.051 C 
ENDBRANCH  21  22
ENDBRANCH  20  21
ENDBRANCH   3  20
BRANCH   4  25
ATOM     24  O   UNL     1     -35.851  25.411   5.876  0.00  0.00    -0.245 OA
ATOM     25  C   UNL     1     -34.922  24.895   5.282  0.00  0.00    +0.342 C 
BRANCH  25  26
ATOM     26  O   UNL     1     -33.628  25.295   5.238  0.00  0.00    -0.445 OA
BRANCH  26  27
ATOM     27  C   UNL     1     -33.426  26.709   5.332  0.00  0.00    +0.209 C 
ATOM     28  C   UNL     1     -32.846  27.034   6.693  0.00  0.00    +0.051 C 
ENDBRANCH  26  27
ENDBRANCH  25  26
ENDBRANCH   4  25
TORSDOF 7
ENDMDL
MODEL 2
REMARK VINA RESULT:      -6.2      1.918      4.895
REMARK  Name = 51701
REMARK  7 active torsions:
REMARK  status: ('A' for Active; 'I' for Inactive)
REMARK    1  A    between atoms: C_2  and  C_13
REMARK    2  A    between atoms: C_3  and  C_20
REMARK    3  A    between atoms: C_4  and  C_25
REMARK    4  A    between atoms: C_20  and  O_21
REMARK    5  A    between atoms: O_21  and  C_22
REMARK    6  A    between atoms: C_25  and  O_26
REMARK    7  A    between atoms: O_26  and  C_27
REMARK                            x       y       z     vdW  Elec       q    Type
REMARK                         _______ _______ _______ _____ _____    ______ ____
ROOT
ATOM      1  N   UNL     1     -36.443  27.433   1.609  0.00  0.00    -0.334 N 
ATOM      2  C   UNL     1     -36.286  25.331   3.499  0.00  0.00    +0.013 C 
ATOM      3  C   UNL     1     -37.524  25.593   2.633  0.00  0.00    +0.071 C 
ATOM      4  C   UNL     1     -35.091  26.211   3.118  0.00  0.00    +0.085 C 
ATOM      5  C   UNL     1     -37.558  26.621   1.754  0.00  0.00    +0.098 C 
ATOM      6  C   UNL     1     -35.222  27.221   2.230  0.00  0.00    +0.028 C 
ATOM      7  C   UNL     1     -38.730  26.993   0.888  0.00  0.00    +0.026 C 
ATOM      8  C   UNL     1     -34.131  28.175   1.825  0.00  0.00    +0.047 C 
ATOM      9  H   UNL     1     -36.525  28.219   1.021  0.00  0.00    +0.147 HD
ENDROOT
BRANCH   2  13
ATOM     10  O   UNL     1     -35.769  22.082   6.480  0.00  0.00    -0.242 OA
ATOM     11  N   UNL     1     -36.007  23.278   5.823  0.00  0.00    -0.048 NA
ATOM     12  N   UNL     1     -35.413  21.073   5.602  0.00  0.00    -0.048 NA
ATOM     13  C   UNL     1     -35.902  23.881   3.418  0.00  0.00    +0.023 C 
ATOM     14  C   UNL     1     -35.802  23.028   4.523  0.00  0.00    +0.143 A 
ATOM     15  C   UNL     1     -35.616  23.293   2.181  0.00  0.00    +0.002 C 
ATOM     16  C   UNL     1     -35.424  21.627   4.383  0.00  0.00    +0.143 A 
ATOM     17  C   UNL     1     -35.248  21.929   2.044  0.00  0.00    +0.002 C 
ATOM     18  C   UNL     1     -35.139  21.046   3.134  0.00  0.00    +0.024 C 
ENDBRANCH   2  13
BRANCH   3  20
ATOM     19  O   UNL     1     -39.364  24.589   3.741  0.00  0.00    -0.245 OA
ATOM     20  C   UNL     1     -38.635  24.638   2.767  0.00  0.00    +0.339 C 
BRANCH  20  21
ATOM     21  O   UNL     1     -38.677  23.871   1.650  0.00  0.00    -0.446 OA
BRANCH  21  22
ATOM     22  C   UNL     1     -39.832  23.035   1.532  0.00  0.00    +0.209 C 
ATOM     23  C   UNL     1     -39.446  21.610   1.869  0.00  0.00    +0.051 C 
ENDBRANCH  21  22
ENDBRANCH  20  21
ENDBRANCH   3  20
BRANCH   4  25
ATOM     24  O   UNL     1     -32.863  25.406   3.102  0.00  0.00    -0.245 OA
ATOM     25  C   UNL     1     -33.798  25.867   3.730  0.00  0.00    +0.342 C 
BRANCH  25  26
ATOM     26  O   UNL     1     -33.861  26.155   5.053  0.00  0.00    -0.445 OA
BRANCH  26  27
ATOM     27  C   UNL     1     -33.041  27.250   5.476  0.00  0.00    +0.209 C 
ATOM     28  C   UNL     1     -32.742  27.099   6.952  0.00  0.00    +0.051 C 
ENDBRANCH  26  27
ENDBRANCH  25  26
ENDBRANCH   4  25
TORSDOF 7
ENDMDL
MODEL 3
REMARK VINA RESULT:      -6.0      1.656      2.063
REMARK  Name = 51701
REMARK  7 active torsions:
REMARK  status: ('A' for Active; 'I' for Inactive)
REMARK    1  A    between atoms: C_2  and  C_13
REMARK    2  A    between atoms: C_3  and  C_20
REMARK    3  A    between atoms: C_4  and  C_25
REMARK    4  A    between atoms: C_20  and  O_21
REMARK    5  A    between atoms: O_21  and  C_22
REMARK    6  A    between atoms: C_25  and  O_26
REMARK    7  A    between atoms: O_26  and  C_27
REMARK                            x       y       z     vdW  Elec       q    Type
REMARK                         _______ _______ _______ _____ _____    ______ ____
ROOT
ATOM      1  N   UNL     1     -35.561  21.383   4.083  0.00  0.00    -0.334 N 
ATOM      2  C   UNL     1     -34.818  23.842   2.893  0.00  0.00    +0.013 C 
ATOM      3  C   UNL     1     -35.190  22.594   2.084  0.00  0.00    +0.071 C 
ATOM      4  C   UNL     1     -35.053  23.672   4.397  0.00  0.00    +0.085 C 
ATOM      5  C   UNL     1     -35.523  21.435   2.698  0.00  0.00    +0.098 C 
ATOM      6  C   UNL     1     -35.380  22.470   4.923  0.00  0.00    +0.028 C 
ATOM      7  C   UNL     1     -35.864  20.144   2.006  0.00  0.00    +0.026 C 
ATOM      8  C   UNL     1     -35.580  22.183   6.386  0.00  0.00    +0.047 C 
ATOM      9  H   UNL     1     -35.729  20.507   4.501  0.00  0.00    +0.147 HD
ENDROOT
BRANCH   2  13
ATOM     10  O   UNL     1     -33.688  27.688   0.987  0.00  0.00    -0.242 OA
ATOM     11  N   UNL     1     -33.708  26.438   1.582  0.00  0.00    -0.048 NA
ATOM     12  N   UNL     1     -34.963  28.206   0.832  0.00  0.00    -0.048 NA
ATOM     13  C   UNL     1     -35.586  25.029   2.385  0.00  0.00    +0.023 C 
ATOM     14  C   UNL     1     -34.998  26.160   1.806  0.00  0.00    +0.143 A 
ATOM     15  C   UNL     1     -36.983  25.058   2.471  0.00  0.00    +0.002 C 
ATOM     16  C   UNL     1     -35.796  27.283   1.330  0.00  0.00    +0.143 A 
ATOM     17  C   UNL     1     -37.759  26.153   2.007  0.00  0.00    +0.002 C 
ATOM     18  C   UNL     1     -37.200  27.302   1.421  0.00  0.00    +0.024 C 
ENDBRANCH   2  13
BRANCH   3  20
ATOM     19  O   UNL     1     -36.257  22.828  -0.021  0.00  0.00    -0.245 OA
ATOM     20  C   UNL     1     -35.224  22.744   0.620  0.00  0.00    +0.339 C 
BRANCH  20  21
ATOM     21  O   UNL     1     -33.949  22.768   0.163  0.00  0.00    -0.446 OA
BRANCH  21  22
ATOM     22  C   UNL     1     -33.582  21.662  -0.668  0.00  0.00    +0.209 C 
ATOM     23  C   UNL     1     -32.596  20.790   0.081  0.00  0.00    +0.051 C 
ENDBRANCH  21  22
ENDBRANCH  20  21
ENDBRANCH   3  20
BRANCH   4  25
ATOM     24  O   UNL     1     -35.906  25.404   5.771  0.00  0.00    -0.245 OA
ATOM     25  C   UNL     1     -34.951  24.887   5.221  0.00  0.00    +0.342 C 
BRANCH  25  26
ATOM     26  O   UNL     1     -33.655  25.283   5.241  0.00  0.00    -0.445 OA
BRANCH  26  27
ATOM     27  C   UNL     1     -33.454  26.696   5.355  0.00  0.00    +0.209 C 
ATOM     28  C   UNL     1     -32.877  27.003   6.720  0.00  0.00    +0.051 C 
ENDBRANCH  26  27
ENDBRANCH  25  26
ENDBRANCH   4  25
TORSDOF 7
ENDMDL
MODEL 4
REMARK VINA RESULT:      -5.9      1.819      5.014
REMARK  Name = 51701
REMARK  7 active torsions:
REMARK  status: ('A' for Active; 'I' for Inactive)
REMARK    1  A    between atoms: C_2  and  C_13
REMARK    2  A    between atoms: C_3  and  C_20
REMARK    3  A    between atoms: C_4  and  C_25
REMARK    4  A    between atoms: C_20  and  O_21
REMARK    5  A    between atoms: O_21  and  C_22
REMARK    6  A    between atoms: C_25  and  O_26
REMARK    7  A    between atoms: O_26  and  C_27
REMARK                            x       y       z     vdW  Elec       q    Type
REMARK                         _______ _______ _______ _____ _____    ______ ____
ROOT
ATOM      1  N   UNL     1     -35.833  21.455   4.060  0.00  0.00    -0.334 N 
ATOM      2  C   UNL     1     -36.411  24.013   2.997  0.00  0.00    +0.013 C 
ATOM      3  C   UNL     1     -35.862  23.795   4.411  0.00  0.00    +0.071 C 
ATOM      4  C   UNL     1     -36.452  22.728   2.165  0.00  0.00    +0.085 C 
ATOM      5  C   UNL     1     -35.616  22.551   4.882  0.00  0.00    +0.098 C 
ATOM      6  C   UNL     1     -36.195  21.525   2.724  0.00  0.00    +0.028 C 
ATOM      7  C   UNL     1     -35.119  22.219   6.262  0.00  0.00    +0.026 C 
ATOM      8  C   UNL     1     -36.259  20.200   2.014  0.00  0.00    +0.047 C 
ATOM      9  H   UNL     1     -35.720  20.560   4.456  0.00  0.00    +0.147 HD
ENDROOT
BRANCH   2  13
ATOM     10  O   UNL     1     -37.244  28.097   1.468  0.00  0.00    -0.242 OA
ATOM     11  N   UNL     1     -37.307  26.837   2.038  0.00  0.00    -0.048 NA
ATOM     12  N   UNL     1     -35.986  28.371   0.959  0.00  0.00    -0.048 NA
ATOM     13  C   UNL     1     -35.596  25.057   2.287  0.00  0.00    +0.023 C 
ATOM     14  C   UNL     1     -36.086  26.308   1.892  0.00  0.00    +0.143 A 
ATOM     15  C   UNL     1     -34.252  24.816   1.978  0.00  0.00    +0.002 C 
ATOM     16  C   UNL     1     -35.246  27.282   1.206  0.00  0.00    +0.143 A 
ATOM     17  C   UNL     1     -33.435  25.766   1.309  0.00  0.00    +0.002 C 
ATOM     18  C   UNL     1     -33.896  27.030   0.899  0.00  0.00    +0.024 C 
ENDBRANCH   2  13
BRANCH   3  20
ATOM     19  O   UNL     1     -36.421  25.771   5.595  0.00  0.00    -0.245 OA
ATOM     20  C   UNL     1     -35.564  25.003   5.196  0.00  0.00    +0.339 C 
BRANCH  20  21
ATOM     21  O   UNL     1     -34.223  25.080   5.372  0.00  0.00    -0.446 OA
BRANCH  21  22
ATOM     22  C   UNL     1     -33.746  26.336   5.865  0.00  0.00    +0.209 C 
ATOM     23  C   UNL     1     -33.267  27.174   4.698  0.00  0.00    +0.051 C 
ENDBRANCH  21  22
ENDBRANCH  20  21
ENDBRANCH   3  20
BRANCH   4  25
ATOM     24  O   UNL     1     -35.892  22.751  -0.138  0.00  0.00    -0.245 OA
ATOM     25  C   UNL     1     -36.737  22.881   0.729  0.00  0.00    +0.342 C 
BRANCH  25  26
ATOM     26  O   UNL     1     -38.052  23.175   0.583  0.00  0.00    -0.445 OA
BRANCH  26  27
ATOM     27  C   UNL     1     -38.844  22.138  -0.008  0.00  0.00    +0.209 C 
ATOM     28  C   UNL     1     -39.752  21.550   1.051  0.00  0.00    +0.051 C 
ENDBRANCH  26  27
ENDBRANCH  25  26
ENDBRANCH   4  25
TORSDOF 7
ENDMDL
MODEL 5
REMARK VINA RESULT:      -5.8      2.725      5.108
REMARK  Name = 51701
REMARK  7 active torsions:
REMARK  status: ('A' for Active; 'I' for Inactive)
REMARK    1  A    between atoms: C_2  and  C_13
REMARK    2  A    between atoms: C_3  and  C_20
REMARK    3  A    between atoms: C_4  and  C_25
REMARK    4  A    between atoms: C_20  and  O_21
REMARK    5  A    between atoms: O_21  and  C_22
REMARK    6  A    between atoms: C_25  and  O_26
REMARK    7  A    between atoms: O_26  and  C_27
REMARK                            x       y       z     vdW  Elec       q    Type
REMARK                         _______ _______ _______ _____ _____    ______ ____
ROOT
ATOM      1  N   UNL     1     -40.157  22.788   1.357  0.00  0.00    -0.334 N 
ATOM      2  C   UNL     1     -38.476  24.528   2.826  0.00  0.00    +0.013 C 
ATOM      3  C   UNL     1     -38.098  23.082   2.487  0.00  0.00    +0.071 C 
ATOM      4  C   UNL     1     -39.771  24.984   2.148  0.00  0.00    +0.085 C 
ATOM      5  C   UNL     1     -38.942  22.282   1.796  0.00  0.00    +0.098 C 
ATOM      6  C   UNL     1     -40.556  24.109   1.480  0.00  0.00    +0.028 C 
ATOM      7  C   UNL     1     -38.692  20.841   1.445  0.00  0.00    +0.026 C 
ATOM      8  C   UNL     1     -41.870  24.439   0.824  0.00  0.00    +0.047 C 
ATOM      9  H   UNL     1     -40.782  22.160   0.926  0.00  0.00    +0.147 HD
ENDROOT
BRANCH   2  13
ATOM     10  O   UNL     1     -35.435  26.802   5.128  0.00  0.00    -0.242 OA
ATOM     11  N   UNL     1     -36.482  25.994   4.716  0.00  0.00    -0.048 NA
ATOM     12  N   UNL     1     -34.787  27.391   4.056  0.00  0.00    -0.048 NA
ATOM     13  C   UNL     1     -37.351  25.452   2.456  0.00  0.00    +0.023 C 
ATOM     14  C   UNL     1     -36.499  26.069   3.379  0.00  0.00    +0.143 A 
ATOM     15  C   UNL     1     -37.092  25.748   1.112  0.00  0.00    +0.002 C 
ATOM     16  C   UNL     1     -35.422  26.957   2.959  0.00  0.00    +0.143 A 
ATOM     17  C   UNL     1     -36.042  26.613   0.704  0.00  0.00    +0.002 C 
ATOM     18  C   UNL     1     -35.170  27.248   1.606  0.00  0.00    +0.024 C 
ENDBRANCH   2  13
BRANCH   3  20
ATOM     19  O   UNL     1     -35.874  22.354   2.107  0.00  0.00    -0.245 OA
ATOM     20  C   UNL     1     -36.756  22.638   2.897  0.00  0.00    +0.339 C 
BRANCH  20  21
ATOM     21  O   UNL     1     -36.709  22.612   4.251  0.00  0.00    -0.446 OA
BRANCH  21  22
ATOM     22  C   UNL     1     -35.397  22.708   4.814  0.00  0.00    +0.209 C 
ATOM     23  C   UNL     1     -35.336  21.861   6.068  0.00  0.00    +0.051 C 
ENDBRANCH  21  22
ENDBRANCH  20  21
ENDBRANCH   3  20
BRANCH   4  25
ATOM     24  O   UNL     1     -40.025  27.168   1.264  0.00  0.00    -0.245 OA
ATOM     25  C   UNL     1     -40.085  26.420   2.223  0.00  0.00    +0.342 C 
BRANCH  25  26
ATOM     26  O   UNL     1     -40.434  26.716   3.498  0.00  0.00    -0.445 OA
BRANCH  26  27
ATOM     27  C   UNL     1     -41.843  26.725   3.755  0.00  0.00    +0.209 C 
ATOM     28  C   UNL     1     -42.251  28.109   4.212  0.00  0.00    +0.051 C 
ENDBRANCH  26  27
ENDBRANCH  25  26
ENDBRANCH   4  25
TORSDOF 7
ENDMDL
MODEL 6
REMARK VINA RESULT:      -5.8      1.894      2.934
REMARK  Name = 51701
REMARK  7 active torsions:
REMARK  status: ('A' for Active; 'I' for Inactive)
REMARK    1  A    between atoms: C_2  and  C_13
REMARK    2  A    between atoms: C_3  and  C_20
REMARK    3  A    between atoms: C_4  and  C_25
REMARK    4  A    between atoms: C_20  and  O_21
REMARK    5  A    between atoms: O_21  and  C_22
REMARK    6  A    between atoms: C_25  and  O_26
REMARK    7  A    between atoms: O_26  and  C_27
REMARK                            x       y       z     vdW  Elec       q    Type
REMARK                         _______ _______ _______ _____ _____    ______ ____
ROOT
ATOM      1  N   UNL     1     -34.522  24.364   5.647  0.00  0.00    -0.334 N 
ATOM      2  C   UNL     1     -34.646  24.615   2.830  0.00  0.00    +0.013 C 
ATOM      3  C   UNL     1     -35.210  23.411   3.593  0.00  0.00    +0.071 C 
ATOM      4  C   UNL     1     -34.166  25.738   3.754  0.00  0.00    +0.085 C 
ATOM      5  C   UNL     1     -35.113  23.328   4.940  0.00  0.00    +0.098 C 
ATOM      6  C   UNL     1     -34.098  25.561   5.093  0.00  0.00    +0.028 C 
ATOM      7  C   UNL     1     -35.592  22.178   5.783  0.00  0.00    +0.026 C 
ATOM      8  C   UNL     1     -33.594  26.576   6.083  0.00  0.00    +0.047 C 
ATOM      9  H   UNL     1     -34.395  24.240   6.616  0.00  0.00    +0.147 HD
ENDROOT
BRANCH   2  13
ATOM     10  O   UNL     1     -38.737  26.281   3.279  0.00  0.00    -0.242 OA
ATOM     11  N   UNL     1     -37.479  25.734   3.474  0.00  0.00    -0.048 NA
ATOM     12  N   UNL     1     -38.991  26.524   1.940  0.00  0.00    -0.048 NA
ATOM     13  C   UNL     1     -35.677  25.144   1.874  0.00  0.00    +0.023 C 
ATOM     14  C   UNL     1     -36.933  25.631   2.256  0.00  0.00    +0.143 A 
ATOM     15  C   UNL     1     -35.416  25.176   0.499  0.00  0.00    +0.002 C 
ATOM     16  C   UNL     1     -37.893  26.132   1.281  0.00  0.00    +0.143 A 
ATOM     17  C   UNL     1     -36.352  25.665  -0.450  0.00  0.00    +0.002 C 
ATOM     18  C   UNL     1     -37.621  26.160  -0.099  0.00  0.00    +0.024 C 
ENDBRANCH   2  13
BRANCH   3  20
ATOM     19  O   UNL     1     -37.121  22.268   2.778  0.00  0.00    -0.245 OA
ATOM     20  C   UNL     1     -35.909  22.393   2.793  0.00  0.00    +0.339 C 
BRANCH  20  21
ATOM     21  O   UNL     1     -34.984  21.669   2.118  0.00  0.00    -0.446 OA
BRANCH  21  22
ATOM     22  C   UNL     1     -35.166  20.251   2.171  0.00  0.00    +0.209 C 
ATOM     23  C   UNL     1     -33.979  19.576   1.515  0.00  0.00    +0.051 C 
ENDBRANCH  21  22
ENDBRANCH  20  21
ENDBRANCH   3  20
BRANCH   4  25
ATOM     24  O   UNL     1     -32.887  27.165   2.360  0.00  0.00    -0.245 OA
ATOM     25  C   UNL     1     -33.832  27.021   3.115  0.00  0.00    +0.342 C 
BRANCH  25  26
ATOM     26  O   UNL     1     -34.737  27.947   3.514  0.00  0.00    -0.445 OA
BRANCH  26  27
ATOM     27  C   UNL     1     -34.723  29.170   2.769  0.00  0.00    +0.209 C 
ATOM     28  C   UNL     1     -35.806  29.115   1.713  0.00  0.00    +0.051 C 
ENDBRANCH  26  27
ENDBRANCH  25  26
ENDBRANCH   4  25
TORSDOF 7
ENDMDL
MODEL 7
REMARK VINA RESULT:      -5.6      9.617     13.048
REMARK  Name = 51701
REMARK  7 active torsions:
REMARK  status: ('A' for Active; 'I' for Inactive)
REMARK    1  A    between atoms: C_2  and  C_13
REMARK    2  A    between atoms: C_3  and  C_20
REMARK    3  A    between atoms: C_4  and  C_25
REMARK    4  A    between atoms: C_20  and  O_21
REMARK    5  A    between atoms: O_21  and  C_22
REMARK    6  A    between atoms: C_25  and  O_26
REMARK    7  A    between atoms: O_26  and  C_27
REMARK                            x       y       z     vdW  Elec       q    Type
REMARK                         _______ _______ _______ _____ _____    ______ ____
ROOT
ATOM      1  N   UNL     1     -47.628  32.430   7.300  0.00  0.00    -0.334 N 
ATOM      2  C   UNL     1     -45.360  31.065   6.297  0.00  0.00    +0.013 C 
ATOM      3  C   UNL     1     -46.414  30.402   7.192  0.00  0.00    +0.071 C 
ATOM      4  C   UNL     1     -45.747  32.483   5.865  0.00  0.00    +0.085 C 
ATOM      5  C   UNL     1     -47.473  31.100   7.660  0.00  0.00    +0.098 C 
ATOM      6  C   UNL     1     -46.825  33.104   6.394  0.00  0.00    +0.028 C 
ATOM      7  C   UNL     1     -48.540  30.563   8.575  0.00  0.00    +0.026 C 
ATOM      8  C   UNL     1     -47.264  34.509   6.081  0.00  0.00    +0.047 C 
ATOM      9  H   UNL     1     -48.364  32.933   7.719  0.00  0.00    +0.147 HD
ENDROOT
BRANCH   2  13
ATOM     10  O   UNL     1     -41.854  28.814   4.763  0.00  0.00    -0.242 OA
ATOM     11  N   UNL     1     -42.737  29.595   5.491  0.00  0.00    -0.048 NA
ATOM     12  N   UNL     1     -42.441  28.308   3.615  0.00  0.00    -0.048 NA
ATOM     13  C   UNL     1     -45.106  30.212   5.087  0.00  0.00    +0.023 C 
ATOM     14  C   UNL     1     -43.886  29.586   4.804  0.00  0.00    +0.143 A 
ATOM     15  C   UNL     1     -46.121  29.995   4.149  0.00  0.00    +0.002 C 
ATOM     16  C   UNL     1     -43.699  28.769   3.612  0.00  0.00    +0.143 A 
ATOM     17  C   UNL     1     -45.938  29.198   2.987  0.00  0.00    +0.002 C 
ATOM     18  C   UNL     1     -44.726  28.556   2.675  0.00  0.00    +0.024 C 
ENDBRANCH   2  13
BRANCH   3  20
ATOM     19  O   UNL     1     -45.365  28.516   8.175  0.00  0.00    -0.245 OA
ATOM     20  C   UNL     1     -46.241  28.965   7.458  0.00  0.00    +0.339 C 
BRANCH  20  21
ATOM     21  O   UNL     1     -47.199  28.286   6.781  0.00  0.00    -0.446 OA
BRANCH  21  22
ATOM     22  C   UNL     1     -47.034  26.865   6.758  0.00  0.00    +0.209 C 
ATOM     23  C   UNL     1     -46.028  26.503   5.685  0.00  0.00    +0.051 C 
ENDBRANCH  21  22
ENDBRANCH  20  21
ENDBRANCH   3  20
BRANCH   4  25
ATOM     24  O   UNL     1     -43.752  33.413   4.990  0.00  0.00    -0.245 OA
ATOM     25  C   UNL     1     -44.917  33.104   4.821  0.00  0.00    +0.342 C 
BRANCH  25  26
ATOM     26  O   UNL     1     -45.672  33.249   3.705  0.00  0.00    -0.445 OA
BRANCH  26  27
ATOM     27  C   UNL     1     -44.948  33.629   2.529  0.00  0.00    +0.209 C 
ATOM     28  C   UNL     1     -44.594  32.384   1.745  0.00  0.00    +0.051 C 
ENDBRANCH  26  27
ENDBRANCH  25  26
ENDBRANCH   4  25
TORSDOF 7
ENDMDL
MODEL 8
REMARK VINA RESULT:      -5.6      2.299      3.232
REMARK  Name = 51701
REMARK  7 active torsions:
REMARK  status: ('A' for Active; 'I' for Inactive)
REMARK    1  A    between atoms: C_2  and  C_13
REMARK    2  A    between atoms: C_3  and  C_20
REMARK    3  A    between atoms: C_4  and  C_25
REMARK    4  A    between atoms: C_20  and  O_21
REMARK    5  A    between atoms: O_21  and  C_22
REMARK    6  A    between atoms: C_25  and  O_26
REMARK    7  A    between atoms: O_26  and  C_27
REMARK                            x       y       z     vdW  Elec       q    Type
REMARK                         _______ _______ _______ _____ _____    ______ ____
ROOT
ATOM      1  N   UNL     1     -35.620  23.673   5.177  0.00  0.00    -0.334 N 
ATOM      2  C   UNL     1     -35.681  23.547   2.350  0.00  0.00    +0.013 C 
ATOM      3  C   UNL     1     -35.519  22.312   3.243  0.00  0.00    +0.071 C 
ATOM      4  C   UNL     1     -35.975  24.825   3.141  0.00  0.00    +0.085 C 
ATOM      5  C   UNL     1     -35.479  22.424   4.591  0.00  0.00    +0.098 C 
ATOM      6  C   UNL     1     -35.906  24.842   4.491  0.00  0.00    +0.028 C 
ATOM      7  C   UNL     1     -35.284  21.288   5.558  0.00  0.00    +0.026 C 
ATOM      8  C   UNL     1     -36.123  26.051   5.361  0.00  0.00    +0.047 C 
ATOM      9  H   UNL     1     -35.508  23.732   6.154  0.00  0.00    +0.147 HD
ENDROOT
BRANCH   2  13
ATOM     10  O   UNL     1     -40.045  22.772   2.600  0.00  0.00    -0.242 OA
ATOM     11  N   UNL     1     -38.708  23.023   2.857  0.00  0.00    -0.048 NA
ATOM     12  N   UNL     1     -40.299  22.670   1.243  0.00  0.00    -0.048 NA
ATOM     13  C   UNL     1     -36.766  23.309   1.339  0.00  0.00    +0.023 C 
ATOM     14  C   UNL     1     -38.109  23.082   1.661  0.00  0.00    +0.143 A 
ATOM     15  C   UNL     1     -36.471  23.307  -0.030  0.00  0.00    +0.002 C 
ATOM     16  C   UNL     1     -39.120  22.857   0.635  0.00  0.00    +0.143 A 
ATOM     17  C   UNL     1     -37.456  23.087  -1.029  0.00  0.00    +0.002 C 
ATOM     18  C   UNL     1     -38.812  22.856  -0.738  0.00  0.00    +0.024 C 
ENDBRANCH   2  13
BRANCH   3  20
ATOM     19  O   UNL     1     -36.329  20.152   2.694  0.00  0.00    -0.245 OA
ATOM     20  C   UNL     1     -35.473  21.008   2.562  0.00  0.00    +0.339 C 
BRANCH  20  21
ATOM     21  O   UNL     1     -34.350  20.960   1.806  0.00  0.00    -0.446 OA
BRANCH  21  22
ATOM     22  C   UNL     1     -34.288  19.869   0.881  0.00  0.00    +0.209 C 
ATOM     23  C   UNL     1     -33.277  18.857   1.379  0.00  0.00    +0.051 C 
ENDBRANCH  21  22
ENDBRANCH  20  21
ENDBRANCH   3  20
BRANCH   4  25
ATOM     24  O   UNL     1     -37.522  26.422   2.321  0.00  0.00    -0.245 OA
ATOM     25  C   UNL     1     -36.378  26.006   2.361  0.00  0.00    +0.342 C 
BRANCH  25  26
ATOM     26  O   UNL     1     -35.282  26.502   1.738  0.00  0.00    -0.445 OA
BRANCH  26  27
ATOM     27  C   UNL     1     -34.754  27.705   2.307  0.00  0.00    +0.209 C 
ATOM     28  C   UNL     1     -33.331  27.454   2.758  0.00  0.00    +0.051 C 
ENDBRANCH  26  27
ENDBRANCH  25  26
ENDBRANCH   4  25
TORSDOF 7
ENDMDL
MODEL 9
REMARK VINA RESULT:      -5.5      2.620      4.222
REMARK  Name = 51701
REMARK  7 active torsions:
REMARK  status: ('A' for Active; 'I' for Inactive)
REMARK    1  A    between atoms: C_2  and  C_13
REMARK    2  A    between atoms: C_3  and  C_20
REMARK    3  A    between atoms: C_4  and  C_25
REMARK    4  A    between atoms: C_20  and  O_21
REMARK    5  A    between atoms: O_21  and  C_22
REMARK    6  A    between atoms: C_25  and  O_26
REMARK    7  A    between atoms: O_26  and  C_27
REMARK                            x       y       z     vdW  Elec       q    Type
REMARK                         _______ _______ _______ _____ _____    ______ ____
ROOT
ATOM      1  N   UNL     1     -35.531  23.662   5.277  0.00  0.00    -0.334 N 
ATOM      2  C   UNL     1     -36.104  23.495   2.510  0.00  0.00    +0.013 C 
ATOM      3  C   UNL     1     -35.675  22.290   3.354  0.00  0.00    +0.071 C 
ATOM      4  C   UNL     1     -36.354  24.754   3.346  0.00  0.00    +0.085 C 
ATOM      5  C   UNL     1     -35.395  22.422   4.671  0.00  0.00    +0.098 C 
ATOM      6  C   UNL     1     -36.038  24.794   4.660  0.00  0.00    +0.028 C 
ATOM      7  C   UNL     1     -34.927  21.319   5.582  0.00  0.00    +0.026 C 
ATOM      8  C   UNL     1     -36.193  25.991   5.559  0.00  0.00    +0.047 C 
ATOM      9  H   UNL     1     -35.245  23.743   6.216  0.00  0.00    +0.147 HD
ENDROOT
BRANCH   2  13
ATOM     10  O   UNL     1     -37.147  23.590  -1.804  0.00  0.00    -0.242 OA
ATOM     11  N   UNL     1     -36.525  23.675  -0.569  0.00  0.00    -0.048 NA
ATOM     12  N   UNL     1     -38.447  23.128  -1.696  0.00  0.00    -0.048 NA
ATOM     13  C   UNL     1     -37.334  23.153   1.718  0.00  0.00    +0.023 C 
ATOM     14  C   UNL     1     -37.433  23.265   0.326  0.00  0.00    +0.143 A 
ATOM     15  C   UNL     1     -38.484  22.686   2.364  0.00  0.00    +0.002 C 
ATOM     16  C   UNL     1     -38.654  22.918  -0.389  0.00  0.00    +0.143 A 
ATOM     17  C   UNL     1     -39.674  22.348   1.666  0.00  0.00    +0.002 C 
ATOM     18  C   UNL     1     -39.806  22.449   0.270  0.00  0.00    +0.024 C 
ENDBRANCH   2  13
BRANCH   3  20
ATOM     19  O   UNL     1     -36.437  20.091   2.903  0.00  0.00    -0.245 OA
ATOM     20  C   UNL     1     -35.644  20.986   2.673  0.00  0.00    +0.339 C 
BRANCH  20  21
ATOM     21  O   UNL     1     -34.615  20.987   1.792  0.00  0.00    -0.446 OA
BRANCH  21  22
ATOM     22  C   UNL     1     -34.539  19.835   0.946  0.00  0.00    +0.209 C 
ATOM     23  C   UNL     1     -33.414  18.943   1.429  0.00  0.00    +0.051 C 
ENDBRANCH  21  22
ENDBRANCH  20  21
ENDBRANCH   3  20
BRANCH   4  25
ATOM     24  O   UNL     1     -36.429  26.565   1.820  0.00  0.00    -0.245 OA
ATOM     25  C   UNL     1     -36.994  25.886   2.658  0.00  0.00    +0.342 C 
BRANCH  25  26
ATOM     26  O   UNL     1     -38.262  26.007   3.121  0.00  0.00    -0.445 OA
BRANCH  26  27
ATOM     27  C   UNL     1     -39.257  26.226   2.115  0.00  0.00    +0.209 C 
ATOM     28  C   UNL     1     -40.613  25.853   2.674  0.00  0.00    +0.051 C 
ENDBRANCH  26  27
ENDBRANCH  25  26
ENDBRANCH   4  25
TORSDOF 7
ENDMDL
