MODEL 1
REMARK VINA RESULT:      -7.5      0.000      0.000
REMARK  Name = 60919
REMARK  4 active torsions:
REMARK  status: ('A' for Active; 'I' for Inactive)
REMARK    1  A    between atoms: C_1  and  C_19
REMARK    2  A    between atoms: C_4  and  C_7
REMARK    3  A    between atoms: C_8  and  C_17
REMARK    4  A    between atoms: C_19  and  N_21
REMARK                            x       y       z     vdW  Elec       q    Type
REMARK                         _______ _______ _______ _____ _____    ______ ____
ROOT
ATOM      1  C   UNL     1     -43.540  33.966   2.069  0.00  0.00    -0.002 C 
ATOM      2  C   UNL     1     -43.051  34.260   3.334  0.00  0.00    -0.003 C 
ATOM      3  C   UNL     1     -44.745  33.295   1.907  0.00  0.00    -0.003 C 
ATOM      4  C   UNL     1     -44.993  33.204   4.308  0.00  0.00    +0.001 C 
ATOM      5  C   UNL     1     -43.781  33.878   4.460  0.00  0.00    -0.000 C 
ATOM      6  C   UNL     1     -45.475  32.913   3.032  0.00  0.00    -0.000 C 
ENDROOT
BRANCH   4   7
ATOM      7  C   UNL     1     -45.751  32.807   5.475  0.00  0.00    +0.009 C 
ATOM      8  C   UNL     1     -45.536  31.581   6.111  0.00  0.00    +0.065 C 
ATOM      9  C   UNL     1     -46.720  33.682   5.970  0.00  0.00    +0.001 C 
ATOM     10  C   UNL     1     -46.286  31.234   7.235  0.00  0.00    +0.010 C 
ATOM     11  C   UNL     1     -47.470  33.335   7.094  0.00  0.00    +0.000 C 
ATOM     12  C   UNL     1     -47.253  32.110   7.726  0.00  0.00    +0.001 C 
BRANCH   8  17
ATOM     13  N   UNL     1     -44.804  29.718   4.717  0.00  0.00    -0.110 NA
ATOM     14  N   UNL     1     -43.268  30.651   6.095  0.00  0.00    -0.087 NA
ATOM     15  N   UNL     1     -43.590  29.151   4.647  0.00  0.00    -0.140 N 
ATOM     16  N   UNL     1     -42.650  29.673   5.447  0.00  0.00    -0.022 NA
ATOM     17  C   UNL     1     -44.548  30.648   5.634  0.00  0.00    +0.073 C 
ATOM     18  H   UNL     1     -43.401  28.396   4.045  0.00  0.00    +0.197 HD
ENDBRANCH   8  17
ENDBRANCH   4   7
BRANCH   1  19
ATOM     19  C   UNL     1     -42.753  34.379   0.855  0.00  0.00    +0.127 C 
BRANCH  19  21
ATOM     20  O   UNL     1     -41.487  36.721   1.857  0.00  0.00    -0.274 OA
ATOM     21  N   UNL     1     -41.328  34.507   1.148  0.00  0.00    -0.232 N 
ATOM     22  N   UNL     1     -41.045  32.247   0.368  0.00  0.00    -0.332 NA
ATOM     23  N   UNL     1     -38.955  31.089   0.654  0.00  0.00    -0.352 NA
ATOM     24  C   UNL     1     -38.664  34.534   2.171  0.00  0.00    +0.025 C 
ATOM     25  C   UNL     1     -39.208  33.359   1.430  0.00  0.00    +0.118 C 
ATOM     26  C   UNL     1     -39.297  35.808   1.648  0.00  0.00    +0.087 C 
ATOM     27  C   UNL     1     -40.516  33.344   0.963  0.00  0.00    +0.184 C 
ATOM     28  C   UNL     1     -40.809  35.724   1.598  0.00  0.00    +0.231 C 
ATOM     29  C   UNL     1     -38.476  32.195   1.255  0.00  0.00    +0.107 C 
ATOM     30  C   UNL     1     -40.230  31.182   0.242  0.00  0.00    +0.115 C 
ATOM     31  C   UNL     1     -37.072  32.084   1.754  0.00  0.00    +0.063 C 
ATOM     32  C   UNL     1     -40.806  29.979  -0.423  0.00  0.00    +0.143 C 
ENDBRANCH  19  21
ENDBRANCH   1  19
TORSDOF 4
ENDMDL
MODEL 2
REMARK VINA RESULT:      -7.5      9.929     13.075
REMARK  Name = 60919
REMARK  4 active torsions:
REMARK  status: ('A' for Active; 'I' for Inactive)
REMARK    1  A    between atoms: C_1  and  C_19
REMARK    2  A    between atoms: C_4  and  C_7
REMARK    3  A    between atoms: C_8  and  C_17
REMARK    4  A    between atoms: C_19  and  N_21
REMARK                            x       y       z     vdW  Elec       q    Type
REMARK                         _______ _______ _______ _____ _____    ______ ____
ROOT
ATOM      1  C   UNL     1     -35.624  26.341   4.043  0.00  0.00    -0.002 C 
ATOM      2  C   UNL     1     -35.182  27.333   3.179  0.00  0.00    -0.003 C 
ATOM      3  C   UNL     1     -34.875  25.975   5.154  0.00  0.00    -0.003 C 
ATOM      4  C   UNL     1     -33.208  27.613   4.542  0.00  0.00    +0.001 C 
ATOM      5  C   UNL     1     -33.969  27.973   3.430  0.00  0.00    -0.000 C 
ATOM      6  C   UNL     1     -33.662  26.615   5.405  0.00  0.00    -0.000 C 
ENDROOT
BRANCH   4   7
ATOM      7  C   UNL     1     -31.949  28.277   4.803  0.00  0.00    +0.009 C 
ATOM      8  C   UNL     1     -30.873  28.187   3.917  0.00  0.00    +0.065 C 
ATOM      9  C   UNL     1     -31.821  29.026   5.975  0.00  0.00    +0.001 C 
ATOM     10  C   UNL     1     -29.674  28.842   4.203  0.00  0.00    +0.010 C 
ATOM     11  C   UNL     1     -30.622  29.682   6.260  0.00  0.00    +0.000 C 
ATOM     12  C   UNL     1     -29.549  29.589   5.374  0.00  0.00    +0.001 C 
BRANCH   8  17
ATOM     13  N   UNL     1     -30.838  26.100   2.654  0.00  0.00    -0.110 NA
ATOM     14  N   UNL     1     -31.177  28.014   1.492  0.00  0.00    -0.087 NA
ATOM     15  N   UNL     1     -30.995  25.919   1.334  0.00  0.00    -0.140 N 
ATOM     16  N   UNL     1     -31.198  27.026   0.607  0.00  0.00    -0.022 NA
ATOM     17  C   UNL     1     -30.960  27.425   2.699  0.00  0.00    +0.073 C 
ATOM     18  H   UNL     1     -30.962  25.024   0.924  0.00  0.00    +0.197 HD
ENDBRANCH   8  17
ENDBRANCH   4   7
BRANCH   1  19
ATOM     19  C   UNL     1     -36.934  25.650   3.773  0.00  0.00    +0.127 C 
BRANCH  19  21
ATOM     20  O   UNL     1     -37.506  25.854   0.995  0.00  0.00    -0.274 OA
ATOM     21  N   UNL     1     -36.790  24.570   2.802  0.00  0.00    -0.232 N 
ATOM     22  N   UNL     1     -36.106  23.139   4.613  0.00  0.00    -0.332 NA
ATOM     23  N   UNL     1     -35.225  20.940   4.190  0.00  0.00    -0.352 NA
ATOM     24  C   UNL     1     -36.009  22.599   0.891  0.00  0.00    +0.025 C 
ATOM     25  C   UNL     1     -35.917  22.348   2.359  0.00  0.00    +0.118 C 
ATOM     26  C   UNL     1     -37.170  23.530   0.601  0.00  0.00    +0.087 C 
ATOM     27  C   UNL     1     -36.271  23.326   3.280  0.00  0.00    +0.184 C 
ATOM     28  C   UNL     1     -37.142  24.774   1.465  0.00  0.00    +0.231 C 
ATOM     29  C   UNL     1     -35.389  21.175   2.874  0.00  0.00    +0.107 C 
ATOM     30  C   UNL     1     -35.597  21.951   4.992  0.00  0.00    +0.115 C 
ATOM     31  C   UNL     1     -34.937  20.071   1.975  0.00  0.00    +0.063 C 
ATOM     32  C   UNL     1     -35.426  21.738   6.457  0.00  0.00    +0.143 C 
ENDBRANCH  19  21
ENDBRANCH   1  19
TORSDOF 4
ENDMDL
MODEL 3
REMARK VINA RESULT:      -7.1      7.353      9.785
REMARK  Name = 60919
REMARK  4 active torsions:
REMARK  status: ('A' for Active; 'I' for Inactive)
REMARK    1  A    between atoms: C_1  and  C_19
REMARK    2  A    between atoms: C_4  and  C_7
REMARK    3  A    between atoms: C_8  and  C_17
REMARK    4  A    between atoms: C_19  and  N_21
REMARK                            x       y       z     vdW  Elec       q    Type
REMARK                         _______ _______ _______ _____ _____    ______ ____
ROOT
ATOM      1  C   UNL     1     -38.352  24.928   1.153  0.00  0.00    -0.002 C 
ATOM      2  C   UNL     1     -39.076  23.971   1.849  0.00  0.00    -0.003 C 
ATOM      3  C   UNL     1     -38.994  25.929   0.435  0.00  0.00    -0.003 C 
ATOM      4  C   UNL     1     -41.126  25.015   1.112  0.00  0.00    +0.001 C 
ATOM      5  C   UNL     1     -40.470  24.014   1.829  0.00  0.00    -0.000 C 
ATOM      6  C   UNL     1     -40.388  25.972   0.415  0.00  0.00    -0.000 C 
ENDROOT
BRANCH   4   7
ATOM      7  C   UNL     1     -42.572  25.061   1.091  0.00  0.00    +0.009 C 
ATOM      8  C   UNL     1     -43.293  25.902   1.941  0.00  0.00    +0.065 C 
ATOM      9  C   UNL     1     -43.252  24.236   0.192  0.00  0.00    +0.001 C 
ATOM     10  C   UNL     1     -44.688  25.919   1.891  0.00  0.00    +0.010 C 
ATOM     11  C   UNL     1     -44.646  24.253   0.142  0.00  0.00    +0.000 C 
ATOM     12  C   UNL     1     -45.364  25.094   0.993  0.00  0.00    +0.001 C 
BRANCH   8  17
ATOM     13  N   UNL     1     -41.845  26.321   3.859  0.00  0.00    -0.110 NA
ATOM     14  N   UNL     1     -42.773  28.120   2.844  0.00  0.00    -0.087 NA
ATOM     15  N   UNL     1     -41.510  27.495   4.414  0.00  0.00    -0.140 N 
ATOM     16  N   UNL     1     -42.037  28.588   3.844  0.00  0.00    -0.022 NA
ATOM     17  C   UNL     1     -42.634  26.768   2.884  0.00  0.00    +0.073 C 
ATOM     18  H   UNL     1     -40.912  27.551   5.194  0.00  0.00    +0.197 HD
ENDBRANCH   8  17
ENDBRANCH   4   7
BRANCH   1  19
ATOM     19  C   UNL     1     -36.847  24.882   1.175  0.00  0.00    +0.127 C 
BRANCH  19  21
ATOM     20  O   UNL     1     -36.543  27.163   2.845  0.00  0.00    -0.274 OA
ATOM     21  N   UNL     1     -36.323  24.865   2.537  0.00  0.00    -0.232 N 
ATOM     22  N   UNL     1     -35.990  22.493   2.295  0.00  0.00    -0.332 NA
ATOM     23  N   UNL     1     -35.376  21.128   4.180  0.00  0.00    -0.352 NA
ATOM     24  C   UNL     1     -35.782  24.699   5.335  0.00  0.00    +0.025 C 
ATOM     25  C   UNL     1     -35.689  23.504   4.446  0.00  0.00    +0.118 C 
ATOM     26  C   UNL     1     -35.417  25.948   4.556  0.00  0.00    +0.087 C 
ATOM     27  C   UNL     1     -35.984  23.590   3.091  0.00  0.00    +0.184 C 
ATOM     28  C   UNL     1     -36.179  26.057   3.250  0.00  0.00    +0.231 C 
ATOM     29  C   UNL     1     -35.401  22.241   4.937  0.00  0.00    +0.107 C 
ATOM     30  C   UNL     1     -35.678  21.323   2.886  0.00  0.00    +0.115 C 
ATOM     31  C   UNL     1     -35.107  22.025   6.386  0.00  0.00    +0.063 C 
ATOM     32  C   UNL     1     -35.672  20.116   2.010  0.00  0.00    +0.143 C 
ENDBRANCH  19  21
ENDBRANCH   1  19
TORSDOF 4
ENDMDL
MODEL 4
REMARK VINA RESULT:      -7.1     12.524     16.382
REMARK  Name = 60919
REMARK  4 active torsions:
REMARK  status: ('A' for Active; 'I' for Inactive)
REMARK    1  A    between atoms: C_1  and  C_19
REMARK    2  A    between atoms: C_4  and  C_7
REMARK    3  A    between atoms: C_8  and  C_17
REMARK    4  A    between atoms: C_19  and  N_21
REMARK                            x       y       z     vdW  Elec       q    Type
REMARK                         _______ _______ _______ _____ _____    ______ ____
ROOT
ATOM      1  C   UNL     1     -34.564  21.254   1.035  0.00  0.00    -0.002 C 
ATOM      2  C   UNL     1     -33.619  21.352   0.023  0.00  0.00    -0.003 C 
ATOM      3  C   UNL     1     -34.623  20.135   1.854  0.00  0.00    -0.003 C 
ATOM      4  C   UNL     1     -32.762  19.180   0.644  0.00  0.00    +0.001 C 
ATOM      5  C   UNL     1     -32.713  20.309  -0.173  0.00  0.00    -0.000 C 
ATOM      6  C   UNL     1     -33.716  19.093   1.658  0.00  0.00    -0.000 C 
ENDROOT
BRANCH   4   7
ATOM      7  C   UNL     1     -31.822  18.099   0.441  0.00  0.00    +0.009 C 
ATOM      8  C   UNL     1     -32.188  16.917  -0.208  0.00  0.00    +0.065 C 
ATOM      9  C   UNL     1     -30.516  18.254   0.912  0.00  0.00    +0.001 C 
ATOM     10  C   UNL     1     -31.253  15.897  -0.385  0.00  0.00    +0.010 C 
ATOM     11  C   UNL     1     -29.581  17.234   0.734  0.00  0.00    +0.000 C 
ATOM     12  C   UNL     1     -29.950  16.055   0.086  0.00  0.00    +0.001 C 
BRANCH   8  17
ATOM     13  N   UNL     1     -33.964  17.238  -1.850  0.00  0.00    -0.110 NA
ATOM     14  N   UNL     1     -34.439  15.964  -0.038  0.00  0.00    -0.087 NA
ATOM     15  N   UNL     1     -35.215  16.755  -1.833  0.00  0.00    -0.140 N 
ATOM     16  N   UNL     1     -35.540  15.995  -0.778  0.00  0.00    -0.022 NA
ATOM     17  C   UNL     1     -33.523  16.714  -0.707  0.00  0.00    +0.073 C 
ATOM     18  H   UNL     1     -35.857  16.948  -2.554  0.00  0.00    +0.197 HD
ENDBRANCH   8  17
ENDBRANCH   4   7
BRANCH   1  19
ATOM     19  C   UNL     1     -35.542  22.379   1.247  0.00  0.00    +0.127 C 
BRANCH  19  21
ATOM     20  O   UNL     1     -34.476  24.479  -0.348  0.00  0.00    -0.274 OA
ATOM     21  N   UNL     1     -34.888  23.579   1.761  0.00  0.00    -0.232 N 
ATOM     22  N   UNL     1     -35.203  22.703   3.981  0.00  0.00    -0.332 NA
ATOM     23  N   UNL     1     -34.748  24.051   5.922  0.00  0.00    -0.352 NA
ATOM     24  C   UNL     1     -34.093  26.106   2.824  0.00  0.00    +0.025 C 
ATOM     25  C   UNL     1     -34.410  24.947   3.709  0.00  0.00    +0.118 C 
ATOM     26  C   UNL     1     -33.512  25.607   1.515  0.00  0.00    +0.087 C 
ATOM     27  C   UNL     1     -34.826  23.731   3.182  0.00  0.00    +0.184 C 
ATOM     28  C   UNL     1     -34.364  24.527   0.879  0.00  0.00    +0.231 C 
ATOM     29  C   UNL     1     -34.401  25.052   5.091  0.00  0.00    +0.107 C 
ATOM     30  C   UNL     1     -35.136  22.921   5.309  0.00  0.00    +0.115 C 
ATOM     31  C   UNL     1     -34.009  26.326   5.766  0.00  0.00    +0.063 C 
ATOM     32  C   UNL     1     -35.537  21.787   6.190  0.00  0.00    +0.143 C 
ENDBRANCH  19  21
ENDBRANCH   1  19
TORSDOF 4
ENDMDL
MODEL 5
REMARK VINA RESULT:      -7.1      1.489      2.720
REMARK  Name = 60919
REMARK  4 active torsions:
REMARK  status: ('A' for Active; 'I' for Inactive)
REMARK    1  A    between atoms: C_1  and  C_19
REMARK    2  A    between atoms: C_4  and  C_7
REMARK    3  A    between atoms: C_8  and  C_17
REMARK    4  A    between atoms: C_19  and  N_21
REMARK                            x       y       z     vdW  Elec       q    Type
REMARK                         _______ _______ _______ _____ _____    ______ ____
ROOT
ATOM      1  C   UNL     1     -43.962  33.738   2.073  0.00  0.00    -0.002 C 
ATOM      2  C   UNL     1     -45.231  33.181   2.004  0.00  0.00    -0.003 C 
ATOM      3  C   UNL     1     -43.404  34.097   3.293  0.00  0.00    -0.003 C 
ATOM      4  C   UNL     1     -45.407  33.333   4.408  0.00  0.00    +0.001 C 
ATOM      5  C   UNL     1     -45.957  32.976   3.177  0.00  0.00    -0.000 C 
ATOM      6  C   UNL     1     -44.130  33.892   4.466  0.00  0.00    -0.000 C 
ENDROOT
BRANCH   4   7
ATOM      7  C   UNL     1     -46.159  33.120   5.626  0.00  0.00    +0.009 C 
ATOM      8  C   UNL     1     -45.964  31.990   6.424  0.00  0.00    +0.065 C 
ATOM      9  C   UNL     1     -47.103  34.079   6.002  0.00  0.00    +0.001 C 
ATOM     10  C   UNL     1     -46.709  31.820   7.591  0.00  0.00    +0.010 C 
ATOM     11  C   UNL     1     -47.848  33.909   7.169  0.00  0.00    +0.000 C 
ATOM     12  C   UNL     1     -47.651  32.779   7.964  0.00  0.00    +0.001 C 
BRANCH   8  17
ATOM     13  N   UNL     1     -45.307  29.898   5.355  0.00  0.00    -0.110 NA
ATOM     14  N   UNL     1     -43.701  31.052   6.459  0.00  0.00    -0.087 NA
ATOM     15  N   UNL     1     -44.098  29.316   5.327  0.00  0.00    -0.140 N 
ATOM     16  N   UNL     1     -43.117  29.966   5.968  0.00  0.00    -0.022 NA
ATOM     17  C   UNL     1     -45.003  30.977   6.074  0.00  0.00    +0.073 C 
ATOM     18  H   UNL     1     -43.942  28.463   4.863  0.00  0.00    +0.197 HD
ENDBRANCH   8  17
ENDBRANCH   4   7
BRANCH   1  19
ATOM     19  C   UNL     1     -43.178  33.959   0.807  0.00  0.00    +0.127 C 
BRANCH  19  21
ATOM     20  O   UNL     1     -43.751  31.479  -0.463  0.00  0.00    -0.274 OA
ATOM     21  N   UNL     1     -42.212  32.890   0.572  0.00  0.00    -0.232 N 
ATOM     22  N   UNL     1     -40.563  34.241   1.690  0.00  0.00    -0.332 NA
ATOM     23  N   UNL     1     -38.239  33.617   1.685  0.00  0.00    -0.352 NA
ATOM     24  C   UNL     1     -40.193  31.074  -0.307  0.00  0.00    +0.025 C 
ATOM     25  C   UNL     1     -39.874  32.238   0.571  0.00  0.00    +0.118 C 
ATOM     26  C   UNL     1     -41.594  30.577  -0.010  0.00  0.00    +0.087 C 
ATOM     27  C   UNL     1     -40.859  33.132   0.968  0.00  0.00    +0.184 C 
ATOM     28  C   UNL     1     -42.618  31.694  -0.025  0.00  0.00    +0.231 C 
ATOM     29  C   UNL     1     -38.575  32.538   0.953  0.00  0.00    +0.107 C 
ATOM     30  C   UNL     1     -39.267  34.416   2.014  0.00  0.00    +0.115 C 
ATOM     31  C   UNL     1     -37.430  31.667   0.548  0.00  0.00    +0.063 C 
ATOM     32  C   UNL     1     -38.940  35.627   2.819  0.00  0.00    +0.143 C 
ENDBRANCH  19  21
ENDBRANCH   1  19
TORSDOF 4
ENDMDL
MODEL 6
REMARK VINA RESULT:      -7.0     10.127     12.706
REMARK  Name = 60919
REMARK  4 active torsions:
REMARK  status: ('A' for Active; 'I' for Inactive)
REMARK    1  A    between atoms: C_1  and  C_19
REMARK    2  A    between atoms: C_4  and  C_7
REMARK    3  A    between atoms: C_8  and  C_17
REMARK    4  A    between atoms: C_19  and  N_21
REMARK                            x       y       z     vdW  Elec       q    Type
REMARK                         _______ _______ _______ _____ _____    ______ ____
ROOT
ATOM      1  C   UNL     1     -35.255  24.030   4.530  0.00  0.00    -0.002 C 
ATOM      2  C   UNL     1     -34.282  24.381   3.604  0.00  0.00    -0.003 C 
ATOM      3  C   UNL     1     -35.502  24.822   5.643  0.00  0.00    -0.003 C 
ATOM      4  C   UNL     1     -33.782  26.352   4.908  0.00  0.00    +0.001 C 
ATOM      5  C   UNL     1     -33.542  25.548   3.794  0.00  0.00    -0.000 C 
ATOM      6  C   UNL     1     -34.762  25.990   5.832  0.00  0.00    -0.000 C 
ENDROOT
BRANCH   4   7
ATOM      7  C   UNL     1     -33.014  27.563   5.105  0.00  0.00    +0.009 C 
ATOM      8  C   UNL     1     -33.042  28.610   4.180  0.00  0.00    +0.065 C 
ATOM      9  C   UNL     1     -32.229  27.675   6.254  0.00  0.00    +0.001 C 
ATOM     10  C   UNL     1     -32.288  29.762   4.405  0.00  0.00    +0.010 C 
ATOM     11  C   UNL     1     -31.476  28.828   6.479  0.00  0.00    +0.000 C 
ATOM     12  C   UNL     1     -31.505  29.871   5.554  0.00  0.00    +0.001 C 
BRANCH   8  17
ATOM     13  N   UNL     1     -35.151  28.740   2.962  0.00  0.00    -0.110 NA
ATOM     14  N   UNL     1     -33.290  28.250   1.769  0.00  0.00    -0.087 NA
ATOM     15  N   UNL     1     -35.374  28.557   1.652  0.00  0.00    -0.140 N 
ATOM     16  N   UNL     1     -34.299  28.265   0.907  0.00  0.00    -0.022 NA
ATOM     17  C   UNL     1     -33.836  28.536   2.982  0.00  0.00    +0.073 C 
ATOM     18  H   UNL     1     -36.274  28.633   1.261  0.00  0.00    +0.197 HD
ENDBRANCH   8  17
ENDBRANCH   4   7
BRANCH   1  19
ATOM     19  C   UNL     1     -36.054  22.771   4.325  0.00  0.00    +0.127 C 
BRANCH  19  21
ATOM     20  O   UNL     1     -38.307  24.405   3.739  0.00  0.00    -0.274 OA
ATOM     21  N   UNL     1     -36.777  22.786   3.057  0.00  0.00    -0.232 N 
ATOM     22  N   UNL     1     -35.291  21.058   2.280  0.00  0.00    -0.332 NA
ATOM     23  N   UNL     1     -35.291  20.367  -0.025  0.00  0.00    -0.352 NA
ATOM     24  C   UNL     1     -37.817  23.137   0.422  0.00  0.00    +0.025 C 
ATOM     25  C   UNL     1     -36.801  22.089   0.731  0.00  0.00    +0.118 C 
ATOM     26  C   UNL     1     -38.701  23.367   1.632  0.00  0.00    +0.087 C 
ATOM     27  C   UNL     1     -36.279  21.947   2.011  0.00  0.00    +0.184 C 
ATOM     28  C   UNL     1     -37.900  23.602   2.897  0.00  0.00    +0.231 C 
ATOM     29  C   UNL     1     -36.259  21.276  -0.252  0.00  0.00    +0.107 C 
ATOM     30  C   UNL     1     -34.858  20.313   1.245  0.00  0.00    +0.115 C 
ATOM     31  C   UNL     1     -36.716  21.371  -1.671  0.00  0.00    +0.063 C 
ATOM     32  C   UNL     1     -33.780  19.326   1.540  0.00  0.00    +0.143 C 
ENDBRANCH  19  21
ENDBRANCH   1  19
TORSDOF 4
ENDMDL
MODEL 7
REMARK VINA RESULT:      -7.0      8.494     10.729
REMARK  Name = 60919
REMARK  4 active torsions:
REMARK  status: ('A' for Active; 'I' for Inactive)
REMARK    1  A    between atoms: C_1  and  C_19
REMARK    2  A    between atoms: C_4  and  C_7
REMARK    3  A    between atoms: C_8  and  C_17
REMARK    4  A    between atoms: C_19  and  N_21
REMARK                            x       y       z     vdW  Elec       q    Type
REMARK                         _______ _______ _______ _____ _____    ______ ____
ROOT
ATOM      1  C   UNL     1     -36.554  25.724   1.320  0.00  0.00    -0.002 C 
ATOM      2  C   UNL     1     -36.904  25.227   0.072  0.00  0.00    -0.003 C 
ATOM      3  C   UNL     1     -37.518  26.202   2.196  0.00  0.00    -0.003 C 
ATOM      4  C   UNL     1     -39.225  25.682   0.567  0.00  0.00    +0.001 C 
ATOM      5  C   UNL     1     -38.247  25.205  -0.306  0.00  0.00    -0.000 C 
ATOM      6  C   UNL     1     -38.861  26.180   1.818  0.00  0.00    -0.000 C 
ENDROOT
BRANCH   4   7
ATOM      7  C   UNL     1     -40.617  25.660   0.175  0.00  0.00    +0.009 C 
ATOM      8  C   UNL     1     -41.405  24.515   0.324  0.00  0.00    +0.065 C 
ATOM      9  C   UNL     1     -41.177  26.820  -0.366  0.00  0.00    +0.001 C 
ATOM     10  C   UNL     1     -42.745  24.532  -0.066  0.00  0.00    +0.010 C 
ATOM     11  C   UNL     1     -42.517  26.836  -0.755  0.00  0.00    +0.000 C 
ATOM     12  C   UNL     1     -43.300  25.692  -0.605  0.00  0.00    +0.001 C 
BRANCH   8  17
ATOM     13  N   UNL     1     -40.384  23.207   2.111  0.00  0.00    -0.110 NA
ATOM     14  N   UNL     1     -40.822  22.141   0.161  0.00  0.00    -0.087 NA
ATOM     15  N   UNL     1     -40.035  21.911   2.105  0.00  0.00    -0.140 N 
ATOM     16  N   UNL     1     -40.276  21.241   0.970  0.00  0.00    -0.022 NA
ATOM     17  C   UNL     1     -40.870  23.298   0.875  0.00  0.00    +0.073 C 
ATOM     18  H   UNL     1     -39.624  21.479   2.888  0.00  0.00    +0.197 HD
ENDBRANCH   8  17
ENDBRANCH   4   7
BRANCH   1  19
ATOM     19  C   UNL     1     -35.105  25.747   1.728  0.00  0.00    +0.127 C 
BRANCH  19  21
ATOM     20  O   UNL     1     -34.576  27.588   3.831  0.00  0.00    -0.274 OA
ATOM     21  N   UNL     1     -34.930  25.393   3.134  0.00  0.00    -0.232 N 
ATOM     22  N   UNL     1     -35.213  23.086   2.507  0.00  0.00    -0.332 NA
ATOM     23  N   UNL     1     -35.442  21.367   4.175  0.00  0.00    -0.352 NA
ATOM     24  C   UNL     1     -35.107  24.709   5.899  0.00  0.00    +0.025 C 
ATOM     25  C   UNL     1     -35.145  23.669   4.830  0.00  0.00    +0.118 C 
ATOM     26  C   UNL     1     -34.247  25.874   5.451  0.00  0.00    +0.087 C 
ATOM     27  C   UNL     1     -35.089  24.016   3.486  0.00  0.00    +0.184 C 
ATOM     28  C   UNL     1     -34.631  26.381   4.076  0.00  0.00    +0.231 C 
ATOM     29  C   UNL     1     -35.333  22.326   5.115  0.00  0.00    +0.107 C 
ATOM     30  C   UNL     1     -35.376  21.811   2.910  0.00  0.00    +0.115 C 
ATOM     31  C   UNL     1     -35.448  21.844   6.525  0.00  0.00    +0.063 C 
ATOM     32  C   UNL     1     -35.501  20.785   1.835  0.00  0.00    +0.143 C 
ENDBRANCH  19  21
ENDBRANCH   1  19
TORSDOF 4
ENDMDL
MODEL 8
REMARK VINA RESULT:      -7.0     10.495     14.202
REMARK  Name = 60919
REMARK  4 active torsions:
REMARK  status: ('A' for Active; 'I' for Inactive)
REMARK    1  A    between atoms: C_1  and  C_19
REMARK    2  A    between atoms: C_4  and  C_7
REMARK    3  A    between atoms: C_8  and  C_17
REMARK    4  A    between atoms: C_19  and  N_21
REMARK                            x       y       z     vdW  Elec       q    Type
REMARK                         _______ _______ _______ _____ _____    ______ ____
ROOT
ATOM      1  C   UNL     1     -36.195  22.666   2.304  0.00  0.00    -0.002 C 
ATOM      2  C   UNL     1     -35.083  22.780   1.482  0.00  0.00    -0.003 C 
ATOM      3  C   UNL     1     -36.679  21.422   2.684  0.00  0.00    -0.003 C 
ATOM      4  C   UNL     1     -34.917  20.371   1.408  0.00  0.00    +0.001 C 
ATOM      5  C   UNL     1     -34.440  21.626   1.033  0.00  0.00    -0.000 C 
ATOM      6  C   UNL     1     -36.036  20.268   2.235  0.00  0.00    -0.000 C 
ENDROOT
BRANCH   4   7
ATOM      7  C   UNL     1     -34.250  19.174   0.942  0.00  0.00    +0.009 C 
ATOM      8  C   UNL     1     -34.840  18.320   0.007  0.00  0.00    +0.065 C 
ATOM      9  C   UNL     1     -32.983  18.877   1.449  0.00  0.00    +0.001 C 
ATOM     10  C   UNL     1     -34.165  17.175  -0.419  0.00  0.00    +0.010 C 
ATOM     11  C   UNL     1     -32.308  17.732   1.023  0.00  0.00    +0.000 C 
ATOM     12  C   UNL     1     -32.900  16.881   0.089  0.00  0.00    +0.001 C 
BRANCH   8  17
ATOM     13  N   UNL     1     -36.360  19.456  -1.525  0.00  0.00    -0.110 NA
ATOM     14  N   UNL     1     -37.262  17.961  -0.083  0.00  0.00    -0.087 NA
ATOM     15  N   UNL     1     -37.690  19.319  -1.639  0.00  0.00    -0.140 N 
ATOM     16  N   UNL     1     -38.266  18.444  -0.804  0.00  0.00    -0.022 NA
ATOM     17  C   UNL     1     -36.144  18.587  -0.540  0.00  0.00    +0.073 C 
ATOM     18  H   UNL     1     -38.212  19.832  -2.297  0.00  0.00    +0.197 HD
ENDBRANCH   8  17
ENDBRANCH   4   7
BRANCH   1  19
ATOM     19  C   UNL     1     -36.889  23.910   2.790  0.00  0.00    +0.127 C 
BRANCH  19  21
ATOM     20  O   UNL     1     -36.220  23.248   5.474  0.00  0.00    -0.274 OA
ATOM     21  N   UNL     1     -36.032  24.705   3.665  0.00  0.00    -0.232 N 
ATOM     22  N   UNL     1     -35.831  26.308   1.881  0.00  0.00    -0.332 NA
ATOM     23  N   UNL     1     -34.265  28.131   2.022  0.00  0.00    -0.352 NA
ATOM     24  C   UNL     1     -33.966  26.016   5.135  0.00  0.00    +0.025 C 
ATOM     25  C   UNL     1     -34.458  26.546   3.830  0.00  0.00    +0.118 C 
ATOM     26  C   UNL     1     -35.096  25.312   5.861  0.00  0.00    +0.087 C 
ATOM     27  C   UNL     1     -35.442  25.883   3.108  0.00  0.00    +0.184 C 
ATOM     28  C   UNL     1     -35.806  24.301   4.983  0.00  0.00    +0.231 C 
ATOM     29  C   UNL     1     -33.897  27.662   3.230  0.00  0.00    +0.107 C 
ATOM     30  C   UNL     1     -35.222  27.415   1.411  0.00  0.00    +0.115 C 
ATOM     31  C   UNL     1     -32.802  28.429   3.898  0.00  0.00    +0.063 C 
ATOM     32  C   UNL     1     -35.656  27.892   0.067  0.00  0.00    +0.143 C 
ENDBRANCH  19  21
ENDBRANCH   1  19
TORSDOF 4
ENDMDL
MODEL 9
REMARK VINA RESULT:      -6.9      1.904      2.982
REMARK  Name = 60919
REMARK  4 active torsions:
REMARK  status: ('A' for Active; 'I' for Inactive)
REMARK    1  A    between atoms: C_1  and  C_19
REMARK    2  A    between atoms: C_4  and  C_7
REMARK    3  A    between atoms: C_8  and  C_17
REMARK    4  A    between atoms: C_19  and  N_21
REMARK                            x       y       z     vdW  Elec       q    Type
REMARK                         _______ _______ _______ _____ _____    ______ ____
ROOT
ATOM      1  C   UNL     1     -44.605  33.392   2.729  0.00  0.00    -0.002 C 
ATOM      2  C   UNL     1     -43.972  33.768   3.906  0.00  0.00    -0.003 C 
ATOM      3  C   UNL     1     -45.541  32.367   2.716  0.00  0.00    -0.003 C 
ATOM      4  C   UNL     1     -45.220  32.073   5.092  0.00  0.00    +0.001 C 
ATOM      5  C   UNL     1     -44.281  33.105   5.094  0.00  0.00    -0.000 C 
ATOM      6  C   UNL     1     -45.850  31.704   3.904  0.00  0.00    -0.000 C 
ENDROOT
BRANCH   4   7
ATOM      7  C   UNL     1     -45.541  31.385   6.324  0.00  0.00    +0.009 C 
ATOM      8  C   UNL     1     -44.992  30.139   6.636  0.00  0.00    +0.065 C 
ATOM      9  C   UNL     1     -46.423  31.996   7.218  0.00  0.00    +0.001 C 
ATOM     10  C   UNL     1     -45.325  29.507   7.835  0.00  0.00    +0.010 C 
ATOM     11  C   UNL     1     -46.757  31.364   8.417  0.00  0.00    +0.000 C 
ATOM     12  C   UNL     1     -46.208  30.119   8.724  0.00  0.00    +0.001 C 
BRANCH   8  17
ATOM     13  N   UNL     1     -44.439  28.470   4.944  0.00  0.00    -0.110 NA
ATOM     14  N   UNL     1     -42.768  29.825   5.655  0.00  0.00    -0.087 NA
ATOM     15  N   UNL     1     -43.255  28.233   4.359  0.00  0.00    -0.140 N 
ATOM     16  N   UNL     1     -42.237  29.013   4.751  0.00  0.00    -0.022 NA
ATOM     17  C   UNL     1     -44.079  29.473   5.744  0.00  0.00    +0.073 C 
ATOM     18  H   UNL     1     -43.141  27.528   3.683  0.00  0.00    +0.197 HD
ENDBRANCH   8  17
ENDBRANCH   4   7
BRANCH   1  19
ATOM     19  C   UNL     1     -44.272  34.108   1.447  0.00  0.00    +0.127 C 
BRANCH  19  21
ATOM     20  O   UNL     1     -44.976  32.160  -0.502  0.00  0.00    -0.274 OA
ATOM     21  N   UNL     1     -43.326  33.352   0.632  0.00  0.00    -0.232 N 
ATOM     22  N   UNL     1     -41.545  34.479   1.795  0.00  0.00    -0.332 NA
ATOM     23  N   UNL     1     -39.261  34.271   1.066  0.00  0.00    -0.352 NA
ATOM     24  C   UNL     1     -41.476  32.295  -1.267  0.00  0.00    +0.025 C 
ATOM     25  C   UNL     1     -41.025  33.120  -0.108  0.00  0.00    +0.118 C 
ATOM     26  C   UNL     1     -42.717  31.511  -0.887  0.00  0.00    +0.087 C 
ATOM     27  C   UNL     1     -41.937  33.655   0.793  0.00  0.00    +0.184 C 
ATOM     28  C   UNL     1     -43.787  32.387  -0.267  0.00  0.00    +0.231 C 
ATOM     29  C   UNL     1     -39.697  33.472   0.074  0.00  0.00    +0.107 C 
ATOM     30  C   UNL     1     -40.225  34.734   1.878  0.00  0.00    +0.115 C 
ATOM     31  C   UNL     1     -38.635  32.986  -0.859  0.00  0.00    +0.063 C 
ATOM     32  C   UNL     1     -39.789  35.630   2.987  0.00  0.00    +0.143 C 
ENDBRANCH  19  21
ENDBRANCH   1  19
TORSDOF 4
ENDMDL
