MODEL 1
REMARK VINA RESULT:      -6.2      0.000      0.000
REMARK  Name = 5477694
REMARK  10 active torsions:
REMARK  status: ('A' for Active; 'I' for Inactive)
REMARK    1  A    between atoms: C_6  and  O_16
REMARK    2  A    between atoms: C_7  and  O_14
REMARK    3  A    between atoms: C_7  and  C_19
REMARK    4  A    between atoms: C_10  and  C_26
REMARK    5  A    between atoms: C_19  and  C_20
REMARK    6  A    between atoms: C_26  and  O_27
REMARK    7  A    between atoms: C_26  and  C_29
REMARK    8  A    between atoms: C_29  and  O_30
REMARK    9  A    between atoms: C_29  and  C_32
REMARK   10  A    between atoms: C_33  and  C_34
REMARK                            x       y       z     vdW  Elec       q    Type
REMARK                         _______ _______ _______ _____ _____    ______ ____
ROOT
ATOM      1  O   UNL     1     -37.757  24.205   1.670  0.00  0.00    -0.466 OA
ATOM      2  O   UNL     1     -38.061  23.075  -1.161  0.00  0.00    -0.271 OA
ATOM      3  O   UNL     1     -40.781  22.698   0.813  0.00  0.00    -0.287 OA
ATOM      4  N   UNL     1     -36.864  21.595   0.203  0.00  0.00    -0.275 N 
ATOM      5  C   UNL     1     -38.414  22.999   1.254  0.00  0.00    +0.282 C 
ATOM      6  C   UNL     1     -38.056  21.842   2.200  0.00  0.00    +0.213 C 
ATOM      7  C   UNL     1     -36.757  21.302   1.604  0.00  0.00    +0.238 C 
ATOM      8  C   UNL     1     -37.798  22.593  -0.070  0.00  0.00    +0.270 C 
ATOM      9  C   UNL     1     -39.860  23.391   1.217  0.00  0.00    +0.219 C 
ATOM     10  C   UNL     1     -38.765  25.126   1.944  0.00  0.00    +0.145 C 
ATOM     11  C   UNL     1     -40.026  24.755   1.716  0.00  0.00    +0.049 C 
ATOM     12  C   UNL     1     -41.330  25.433   1.862  0.00  0.00    +0.037 C 
ATOM     13  H   UNL     1     -36.335  21.139  -0.490  0.00  0.00    +0.152 HD
ENDROOT
BRANCH   7  14
ATOM     14  O   UNL     1     -36.585  19.919   1.816  0.00  0.00    -0.331 OA
ATOM     15  C   UNL     1     -36.215  19.237   0.620  0.00  0.00    +0.176 C 
ENDBRANCH   7  14
BRANCH   6  16
ATOM     16  O   UNL     1     -39.065  20.837   2.153  0.00  0.00    -0.377 OA
ATOM     17  H   UNL     1     -38.797  20.084   2.702  0.00  0.00    +0.211 HD
ENDBRANCH   6  16
BRANCH   7  19
ATOM     18  O   UNL     1     -34.637  22.365   1.417  0.00  0.00    -0.287 OA
ATOM     19  C   UNL     1     -35.549  22.002   2.156  0.00  0.00    +0.218 C 
BRANCH  19  20
ATOM     20  C   UNL     1     -35.466  22.253   3.623  0.00  0.00    +0.039 C 
ATOM     21  C   UNL     1     -35.182  21.198   4.461  0.00  0.00    +0.003 C 
ATOM     22  C   UNL     1     -35.676  23.533   4.087  0.00  0.00    +0.003 C 
ATOM     23  C   UNL     1     -35.104  21.434   5.833  0.00  0.00    +0.000 C 
ATOM     24  C   UNL     1     -35.598  23.770   5.459  0.00  0.00    +0.000 C 
ATOM     25  C   UNL     1     -35.312  22.720   6.332  0.00  0.00    +0.000 C 
ENDBRANCH  19  20
ENDBRANCH   7  19
BRANCH  10  26
ATOM     26  C   UNL     1     -38.289  26.441   2.460  0.00  0.00    +0.198 C 
BRANCH  26  27
ATOM     27  O   UNL     1     -37.873  26.274   3.815  0.00  0.00    -0.375 OA
ATOM     28  H   UNL     1     -37.120  26.858   3.996  0.00  0.00    +0.211 HD
ENDBRANCH  26  27
BRANCH  26  29
ATOM     29  C   UNL     1     -37.140  27.083   1.654  0.00  0.00    +0.166 C 
BRANCH  29  30
ATOM     30  O   UNL     1     -37.069  26.482   0.361  0.00  0.00    -0.377 OA
ATOM     31  H   UNL     1     -37.759  26.858  -0.208  0.00  0.00    +0.211 HD
ENDBRANCH  29  30
BRANCH  29  32
ATOM     32  C   UNL     1     -35.789  26.947   2.303  0.00  0.00    +0.001 C 
ATOM     33  C   UNL     1     -34.808  26.167   1.823  0.00  0.00    -0.028 C 
BRANCH  33  34
ATOM     34  C   UNL     1     -33.462  26.028   2.468  0.00  0.00    +0.026 C 
ATOM     35  C   UNL     1     -33.470  26.563   3.891  0.00  0.00    +0.005 C 
ENDBRANCH  33  34
ENDBRANCH  29  32
ENDBRANCH  26  29
ENDBRANCH  10  26
TORSDOF 10
ENDMDL
MODEL 2
REMARK VINA RESULT:      -6.1      2.169      6.102
REMARK  Name = 5477694
REMARK  10 active torsions:
REMARK  status: ('A' for Active; 'I' for Inactive)
REMARK    1  A    between atoms: C_6  and  O_16
REMARK    2  A    between atoms: C_7  and  O_14
REMARK    3  A    between atoms: C_7  and  C_19
REMARK    4  A    between atoms: C_10  and  C_26
REMARK    5  A    between atoms: C_19  and  C_20
REMARK    6  A    between atoms: C_26  and  O_27
REMARK    7  A    between atoms: C_26  and  C_29
REMARK    8  A    between atoms: C_29  and  O_30
REMARK    9  A    between atoms: C_29  and  C_32
REMARK   10  A    between atoms: C_33  and  C_34
REMARK                            x       y       z     vdW  Elec       q    Type
REMARK                         _______ _______ _______ _____ _____    ______ ____
ROOT
ATOM      1  O   UNL     1     -37.152  22.779   2.472  0.00  0.00    -0.466 OA
ATOM      2  O   UNL     1     -36.965  25.394   0.889  0.00  0.00    -0.271 OA
ATOM      3  O   UNL     1     -37.242  25.784   4.237  0.00  0.00    -0.287 OA
ATOM      4  N   UNL     1     -39.138  24.525   0.808  0.00  0.00    -0.275 N 
ATOM      5  C   UNL     1     -37.852  24.012   2.695  0.00  0.00    +0.282 C 
ATOM      6  C   UNL     1     -39.333  23.737   3.001  0.00  0.00    +0.213 C 
ATOM      7  C   UNL     1     -39.963  23.669   1.611  0.00  0.00    +0.238 C 
ATOM      8  C   UNL     1     -37.883  24.749   1.372  0.00  0.00    +0.270 C 
ATOM      9  C   UNL     1     -37.065  24.659   3.794  0.00  0.00    +0.219 C 
ATOM     10  C   UNL     1     -36.153  22.715   3.440  0.00  0.00    +0.145 C 
ATOM     11  C   UNL     1     -36.014  23.756   4.262  0.00  0.00    +0.049 C 
ATOM     12  C   UNL     1     -35.090  24.063   5.372  0.00  0.00    +0.037 C 
ATOM     13  H   UNL     1     -39.427  24.914  -0.048  0.00  0.00    +0.152 HD
ENDROOT
BRANCH   7  14
ATOM     14  O   UNL     1     -41.305  24.101   1.591  0.00  0.00    -0.331 OA
ATOM     15  C   UNL     1     -41.498  25.201   0.705  0.00  0.00    +0.176 C 
ENDBRANCH   7  14
BRANCH   6  16
ATOM     16  O   UNL     1     -39.894  24.823   3.734  0.00  0.00    -0.377 OA
ATOM     17  H   UNL     1     -39.959  25.602   3.160  0.00  0.00    +0.211 HD
ENDBRANCH   6  16
BRANCH   7  19
ATOM     18  O   UNL     1     -40.189  21.305   1.739  0.00  0.00    -0.287 OA
ATOM     19  C   UNL     1     -39.922  22.281   1.042  0.00  0.00    +0.218 C 
BRANCH  19  20
ATOM     20  C   UNL     1     -39.550  22.095  -0.389  0.00  0.00    +0.039 C 
ATOM     21  C   UNL     1     -38.267  21.701  -0.695  0.00  0.00    +0.003 C 
ATOM     22  C   UNL     1     -40.506  22.324  -1.355  0.00  0.00    +0.003 C 
ATOM     23  C   UNL     1     -37.920  21.528  -2.035  0.00  0.00    +0.000 C 
ATOM     24  C   UNL     1     -40.159  22.151  -2.695  0.00  0.00    +0.000 C 
ATOM     25  C   UNL     1     -38.866  21.752  -3.035  0.00  0.00    +0.000 C 
ENDBRANCH  19  20
ENDBRANCH   7  19
BRANCH  10  26
ATOM     26  C   UNL     1     -35.342  21.464   3.421  0.00  0.00    +0.198 C 
BRANCH  26  27
ATOM     27  O   UNL     1     -35.616  20.728   4.613  0.00  0.00    -0.375 OA
ATOM     28  H   UNL     1     -36.385  21.113   5.062  0.00  0.00    +0.211 HD
ENDBRANCH  26  27
BRANCH  26  29
ATOM     29  C   UNL     1     -35.575  20.551   2.199  0.00  0.00    +0.166 C 
BRANCH  29  30
ATOM     30  O   UNL     1     -36.658  19.661   2.466  0.00  0.00    -0.377 OA
ATOM     31  H   UNL     1     -37.044  19.871   3.331  0.00  0.00    +0.211 HD
ENDBRANCH  29  30
BRANCH  29  32
ATOM     32  C   UNL     1     -34.377  19.724   1.818  0.00  0.00    +0.001 C 
ATOM     33  C   UNL     1     -33.459  20.113   0.919  0.00  0.00    -0.028 C 
BRANCH  33  34
ATOM     34  C   UNL     1     -32.266  19.291   0.536  0.00  0.00    +0.026 C 
ATOM     35  C   UNL     1     -32.212  17.990   1.321  0.00  0.00    +0.005 C 
ENDBRANCH  33  34
ENDBRANCH  29  32
ENDBRANCH  26  29
ENDBRANCH  10  26
TORSDOF 10
ENDMDL
MODEL 3
REMARK VINA RESULT:      -6.1      2.456      3.713
REMARK  Name = 5477694
REMARK  10 active torsions:
REMARK  status: ('A' for Active; 'I' for Inactive)
REMARK    1  A    between atoms: C_6  and  O_16
REMARK    2  A    between atoms: C_7  and  O_14
REMARK    3  A    between atoms: C_7  and  C_19
REMARK    4  A    between atoms: C_10  and  C_26
REMARK    5  A    between atoms: C_19  and  C_20
REMARK    6  A    between atoms: C_26  and  O_27
REMARK    7  A    between atoms: C_26  and  C_29
REMARK    8  A    between atoms: C_29  and  O_30
REMARK    9  A    between atoms: C_29  and  C_32
REMARK   10  A    between atoms: C_33  and  C_34
REMARK                            x       y       z     vdW  Elec       q    Type
REMARK                         _______ _______ _______ _____ _____    ______ ____
ROOT
ATOM      1  O   UNL     1     -36.440  22.816   2.590  0.00  0.00    -0.466 OA
ATOM      2  O   UNL     1     -36.315  23.555  -0.380  0.00  0.00    -0.271 OA
ATOM      3  O   UNL     1     -39.441  23.172   0.852  0.00  0.00    -0.287 OA
ATOM      4  N   UNL     1     -35.911  21.268  -0.072  0.00  0.00    -0.275 N 
ATOM      5  C   UNL     1     -37.260  22.339   1.514  0.00  0.00    +0.282 C 
ATOM      6  C   UNL     1     -37.455  20.818   1.626  0.00  0.00    +0.213 C 
ATOM      7  C   UNL     1     -36.232  20.261   0.898  0.00  0.00    +0.238 C 
ATOM      8  C   UNL     1     -36.461  22.511   0.238  0.00  0.00    +0.270 C 
ATOM      9  C   UNL     1     -38.502  23.169   1.634  0.00  0.00    +0.219 C 
ATOM     10  C   UNL     1     -37.213  23.735   3.295  0.00  0.00    +0.145 C 
ATOM     11  C   UNL     1     -38.431  24.014   2.825  0.00  0.00    +0.049 C 
ATOM     12  C   UNL     1     -39.513  24.917   3.267  0.00  0.00    +0.037 C 
ATOM     13  H   UNL     1     -35.363  21.100  -0.871  0.00  0.00    +0.152 HD
ENDROOT
BRANCH   7  14
ATOM     14  O   UNL     1     -36.478  19.022   0.274  0.00  0.00    -0.331 OA
ATOM     15  C   UNL     1     -36.247  19.077  -1.132  0.00  0.00    +0.176 C 
ENDBRANCH   7  14
BRANCH   6  16
ATOM     16  O   UNL     1     -38.644  20.422   0.948  0.00  0.00    -0.377 OA
ATOM     17  H   UNL     1     -39.380  20.986   1.229  0.00  0.00    +0.211 HD
ENDBRANCH   6  16
BRANCH   7  19
ATOM     18  O   UNL     1     -35.192  20.197   3.036  0.00  0.00    -0.287 OA
ATOM     19  C   UNL     1     -35.061  20.083   1.820  0.00  0.00    +0.218 C 
BRANCH  19  20
ATOM     20  C   UNL     1     -33.725  19.766   1.240  0.00  0.00    +0.039 C 
ATOM     21  C   UNL     1     -33.096  20.716   0.466  0.00  0.00    +0.003 C 
ATOM     22  C   UNL     1     -33.167  18.534   1.500  0.00  0.00    +0.003 C 
ATOM     23  C   UNL     1     -31.845  20.419  -0.075  0.00  0.00    +0.000 C 
ATOM     24  C   UNL     1     -31.917  18.236   0.958  0.00  0.00    +0.000 C 
ATOM     25  C   UNL     1     -31.256  19.179   0.171  0.00  0.00    +0.000 C 
ENDBRANCH  19  20
ENDBRANCH   7  19
BRANCH  10  26
ATOM     26  C   UNL     1     -36.559  24.308   4.504  0.00  0.00    +0.198 C 
BRANCH  26  27
ATOM     27  O   UNL     1     -36.192  23.237   5.373  0.00  0.00    -0.375 OA
ATOM     28  H   UNL     1     -36.954  22.988   5.919  0.00  0.00    +0.211 HD
ENDBRANCH  26  27
BRANCH  26  29
ATOM     29  C   UNL     1     -35.317  25.180   4.226  0.00  0.00    +0.166 C 
BRANCH  29  30
ATOM     30  O   UNL     1     -34.445  24.496   3.327  0.00  0.00    -0.377 OA
ATOM     31  H   UNL     1     -34.954  23.860   2.802  0.00  0.00    +0.211 HD
ENDBRANCH  29  30
BRANCH  29  32
ATOM     32  C   UNL     1     -34.529  25.533   5.459  0.00  0.00    +0.001 C 
ATOM     33  C   UNL     1     -33.697  26.583   5.535  0.00  0.00    -0.028 C 
BRANCH  33  34
ATOM     34  C   UNL     1     -32.909  26.936   6.760  0.00  0.00    +0.026 C 
ATOM     35  C   UNL     1     -32.051  28.171   6.531  0.00  0.00    +0.005 C 
ENDBRANCH  33  34
ENDBRANCH  29  32
ENDBRANCH  26  29
ENDBRANCH  10  26
TORSDOF 10
ENDMDL
MODEL 4
REMARK VINA RESULT:      -6.0      2.243      6.270
REMARK  Name = 5477694
REMARK  10 active torsions:
REMARK  status: ('A' for Active; 'I' for Inactive)
REMARK    1  A    between atoms: C_6  and  O_16
REMARK    2  A    between atoms: C_7  and  O_14
REMARK    3  A    between atoms: C_7  and  C_19
REMARK    4  A    between atoms: C_10  and  C_26
REMARK    5  A    between atoms: C_19  and  C_20
REMARK    6  A    between atoms: C_26  and  O_27
REMARK    7  A    between atoms: C_26  and  C_29
REMARK    8  A    between atoms: C_29  and  O_30
REMARK    9  A    between atoms: C_29  and  C_32
REMARK   10  A    between atoms: C_33  and  C_34
REMARK                            x       y       z     vdW  Elec       q    Type
REMARK                         _______ _______ _______ _____ _____    ______ ____
ROOT
ATOM      1  O   UNL     1     -35.689  23.115   2.490  0.00  0.00    -0.466 OA
ATOM      2  O   UNL     1     -33.633  25.322   3.017  0.00  0.00    -0.271 OA
ATOM      3  O   UNL     1     -35.560  24.520   5.677  0.00  0.00    -0.287 OA
ATOM      4  N   UNL     1     -35.511  26.180   1.912  0.00  0.00    -0.275 N 
ATOM      5  C   UNL     1     -35.837  24.305   3.276  0.00  0.00    +0.282 C 
ATOM      6  C   UNL     1     -37.194  24.967   2.992  0.00  0.00    +0.213 C 
ATOM      7  C   UNL     1     -36.900  25.846   1.776  0.00  0.00    +0.238 C 
ATOM      8  C   UNL     1     -34.826  25.307   2.756  0.00  0.00    +0.270 C 
ATOM      9  C   UNL     1     -35.625  23.820   4.679  0.00  0.00    +0.219 C 
ATOM     10  C   UNL     1     -35.530  22.066   3.392  0.00  0.00    +0.145 C 
ATOM     11  C   UNL     1     -35.480  22.365   4.692  0.00  0.00    +0.049 C 
ATOM     12  C   UNL     1     -35.309  21.560   5.918  0.00  0.00    +0.037 C 
ATOM     13  H   UNL     1     -35.088  26.944   1.459  0.00  0.00    +0.152 HD
ENDROOT
BRANCH   7  14
ATOM     14  O   UNL     1     -37.695  27.009   1.730  0.00  0.00    -0.331 OA
ATOM     15  C   UNL     1     -37.000  28.107   1.144  0.00  0.00    +0.176 C 
ENDBRANCH   7  14
BRANCH   6  16
ATOM     16  O   UNL     1     -37.586  25.783   4.094  0.00  0.00    -0.377 OA
ATOM     17  H   UNL     1     -37.665  25.235   4.889  0.00  0.00    +0.211 HD
ENDBRANCH   6  16
BRANCH   7  19
ATOM     18  O   UNL     1     -36.293  25.218  -0.436  0.00  0.00    -0.287 OA
ATOM     19  C   UNL     1     -37.098  25.105   0.486  0.00  0.00    +0.218 C 
BRANCH  19  20
ATOM     20  C   UNL     1     -38.291  24.226   0.332  0.00  0.00    +0.039 C 
ATOM     21  C   UNL     1     -38.100  22.869   0.195  0.00  0.00    +0.003 C 
ATOM     22  C   UNL     1     -39.542  24.802   0.332  0.00  0.00    +0.003 C 
ATOM     23  C   UNL     1     -39.217  22.045   0.051  0.00  0.00    +0.000 C 
ATOM     24  C   UNL     1     -40.659  23.979   0.188  0.00  0.00    +0.000 C 
ATOM     25  C   UNL     1     -40.496  22.601   0.047  0.00  0.00    +0.000 C 
ENDBRANCH  19  20
ENDBRANCH   7  19
BRANCH  10  26
ATOM     26  C   UNL     1     -35.423  20.716   2.772  0.00  0.00    +0.198 C 
BRANCH  26  27
ATOM     27  O   UNL     1     -36.690  20.067   2.873  0.00  0.00    -0.375 OA
ATOM     28  H   UNL     1     -36.571  19.182   3.251  0.00  0.00    +0.211 HD
ENDBRANCH  26  27
BRANCH  26  29
ATOM     29  C   UNL     1     -34.967  20.707   1.297  0.00  0.00    +0.166 C 
BRANCH  29  30
ATOM     30  O   UNL     1     -35.933  20.018   0.503  0.00  0.00    -0.377 OA
ATOM     31  H   UNL     1     -36.784  20.480   0.555  0.00  0.00    +0.211 HD
ENDBRANCH  29  30
BRANCH  29  32
ATOM     32  C   UNL     1     -33.631  20.052   1.075  0.00  0.00    +0.001 C 
ATOM     33  C   UNL     1     -33.367  18.774   1.388  0.00  0.00    -0.028 C 
BRANCH  33  34
ATOM     34  C   UNL     1     -32.037  18.119   1.169  0.00  0.00    +0.026 C 
ATOM     35  C   UNL     1     -31.114  18.999   0.341  0.00  0.00    +0.005 C 
ENDBRANCH  33  34
ENDBRANCH  29  32
ENDBRANCH  26  29
ENDBRANCH  10  26
TORSDOF 10
ENDMDL
MODEL 5
REMARK VINA RESULT:      -5.9      2.084      3.649
REMARK  Name = 5477694
REMARK  10 active torsions:
REMARK  status: ('A' for Active; 'I' for Inactive)
REMARK    1  A    between atoms: C_6  and  O_16
REMARK    2  A    between atoms: C_7  and  O_14
REMARK    3  A    between atoms: C_7  and  C_19
REMARK    4  A    between atoms: C_10  and  C_26
REMARK    5  A    between atoms: C_19  and  C_20
REMARK    6  A    between atoms: C_26  and  O_27
REMARK    7  A    between atoms: C_26  and  C_29
REMARK    8  A    between atoms: C_29  and  O_30
REMARK    9  A    between atoms: C_29  and  C_32
REMARK   10  A    between atoms: C_33  and  C_34
REMARK                            x       y       z     vdW  Elec       q    Type
REMARK                         _______ _______ _______ _____ _____    ______ ____
ROOT
ATOM      1  O   UNL     1     -36.358  23.278   1.612  0.00  0.00    -0.466 OA
ATOM      2  O   UNL     1     -36.389  22.893  -1.426  0.00  0.00    -0.271 OA
ATOM      3  O   UNL     1     -39.438  23.292  -0.019  0.00  0.00    -0.287 OA
ATOM      4  N   UNL     1     -36.149  20.838  -0.328  0.00  0.00    -0.275 N 
ATOM      5  C   UNL     1     -37.289  22.534   0.815  0.00  0.00    +0.282 C 
ATOM      6  C   UNL     1     -37.597  21.181   1.477  0.00  0.00    +0.213 C 
ATOM      7  C   UNL     1     -36.479  20.281   0.953  0.00  0.00    +0.238 C 
ATOM      8  C   UNL     1     -36.574  22.159  -0.467  0.00  0.00    +0.270 C 
ATOM      9  C   UNL     1     -38.449  23.473   0.674  0.00  0.00    +0.219 C 
ATOM     10  C   UNL     1     -37.002  24.461   1.966  0.00  0.00    +0.145 C 
ATOM     11  C   UNL     1     -38.224  24.675   1.475  0.00  0.00    +0.049 C 
ATOM     12  C   UNL     1     -39.195  25.781   1.602  0.00  0.00    +0.037 C 
ATOM     13  H   UNL     1     -35.675  20.341  -1.032  0.00  0.00    +0.152 HD
ENDROOT
BRANCH   7  14
ATOM     14  O   UNL     1     -36.868  18.932   0.829  0.00  0.00    -0.331 OA
ATOM     15  C   UNL     1     -36.686  18.444  -0.498  0.00  0.00    +0.176 C 
ENDBRANCH   7  14
BRANCH   6  16
ATOM     16  O   UNL     1     -38.860  20.691   1.034  0.00  0.00    -0.377 OA
ATOM     17  H   UNL     1     -39.325  21.389   0.547  0.00  0.00    +0.211 HD
ENDBRANCH   6  16
BRANCH   7  19
ATOM     18  O   UNL     1     -35.353  20.614   3.022  0.00  0.00    -0.287 OA
ATOM     19  C   UNL     1     -35.262  20.326   1.830  0.00  0.00    +0.218 C 
BRANCH  19  20
ATOM     20  C   UNL     1     -33.930  20.016   1.238  0.00  0.00    +0.039 C 
ATOM     21  C   UNL     1     -33.304  20.977   0.476  0.00  0.00    +0.003 C 
ATOM     22  C   UNL     1     -33.373  18.779   1.476  0.00  0.00    +0.003 C 
ATOM     23  C   UNL     1     -32.057  20.687  -0.078  0.00  0.00    +0.000 C 
ATOM     24  C   UNL     1     -32.126  18.488   0.922  0.00  0.00    +0.000 C 
ATOM     25  C   UNL     1     -31.468  19.442   0.145  0.00  0.00    +0.000 C 
ENDBRANCH  19  20
ENDBRANCH   7  19
BRANCH  10  26
ATOM     26  C   UNL     1     -36.218  25.358   2.861  0.00  0.00    +0.198 C 
BRANCH  26  27
ATOM     27  O   UNL     1     -36.223  26.673   2.305  0.00  0.00    -0.375 OA
ATOM     28  H   UNL     1     -35.971  26.629   1.369  0.00  0.00    +0.211 HD
ENDBRANCH  26  27
BRANCH  26  29
ATOM     29  C   UNL     1     -36.716  25.426   4.320  0.00  0.00    +0.166 C 
BRANCH  29  30
ATOM     30  O   UNL     1     -36.334  26.674   4.898  0.00  0.00    -0.377 OA
ATOM     31  H   UNL     1     -36.987  27.352   4.664  0.00  0.00    +0.211 HD
ENDBRANCH  29  30
BRANCH  29  32
ATOM     32  C   UNL     1     -36.184  24.326   5.198  0.00  0.00    +0.001 C 
ATOM     33  C   UNL     1     -35.027  23.685   4.970  0.00  0.00    -0.028 C 
BRANCH  33  34
ATOM     34  C   UNL     1     -34.494  22.588   5.841  0.00  0.00    +0.026 C 
ATOM     35  C   UNL     1     -35.620  21.813   6.508  0.00  0.00    +0.005 C 
ENDBRANCH  33  34
ENDBRANCH  29  32
ENDBRANCH  26  29
ENDBRANCH  10  26
TORSDOF 10
ENDMDL
MODEL 6
REMARK VINA RESULT:      -5.6      1.197      1.604
REMARK  Name = 5477694
REMARK  10 active torsions:
REMARK  status: ('A' for Active; 'I' for Inactive)
REMARK    1  A    between atoms: C_6  and  O_16
REMARK    2  A    between atoms: C_7  and  O_14
REMARK    3  A    between atoms: C_7  and  C_19
REMARK    4  A    between atoms: C_10  and  C_26
REMARK    5  A    between atoms: C_19  and  C_20
REMARK    6  A    between atoms: C_26  and  O_27
REMARK    7  A    between atoms: C_26  and  C_29
REMARK    8  A    between atoms: C_29  and  O_30
REMARK    9  A    between atoms: C_29  and  C_32
REMARK   10  A    between atoms: C_33  and  C_34
REMARK                            x       y       z     vdW  Elec       q    Type
REMARK                         _______ _______ _______ _____ _____    ______ ____
ROOT
ATOM      1  O   UNL     1     -37.949  24.161   1.406  0.00  0.00    -0.466 OA
ATOM      2  O   UNL     1     -38.131  22.892  -1.376  0.00  0.00    -0.271 OA
ATOM      3  O   UNL     1     -40.863  22.442   0.565  0.00  0.00    -0.287 OA
ATOM      4  N   UNL     1     -36.877  21.546   0.074  0.00  0.00    -0.275 N 
ATOM      5  C   UNL     1     -38.527  22.902   1.033  0.00  0.00    +0.282 C 
ATOM      6  C   UNL     1     -38.121  21.810   2.036  0.00  0.00    +0.213 C 
ATOM      7  C   UNL     1     -36.781  21.321   1.487  0.00  0.00    +0.238 C 
ATOM      8  C   UNL     1     -37.862  22.475  -0.260  0.00  0.00    +0.270 C 
ATOM      9  C   UNL     1     -39.992  23.206   0.953  0.00  0.00    +0.219 C 
ATOM     10  C   UNL     1     -39.014  25.032   1.621  0.00  0.00    +0.145 C 
ATOM     11  C   UNL     1     -40.247  24.578   1.389  0.00  0.00    +0.049 C 
ATOM     12  C   UNL     1     -41.591  25.183   1.481  0.00  0.00    +0.037 C 
ATOM     13  H   UNL     1     -36.309  21.093  -0.590  0.00  0.00    +0.152 HD
ENDROOT
BRANCH   7  14
ATOM     14  O   UNL     1     -36.534  19.962   1.765  0.00  0.00    -0.331 OA
ATOM     15  C   UNL     1     -36.109  19.249   0.605  0.00  0.00    +0.176 C 
ENDBRANCH   7  14
BRANCH   6  16
ATOM     16  O   UNL     1     -39.068  20.746   2.017  0.00  0.00    -0.377 OA
ATOM     17  H   UNL     1     -39.941  21.093   1.777  0.00  0.00    +0.211 HD
ENDBRANCH   6  16
BRANCH   7  19
ATOM     18  O   UNL     1     -34.776  22.583   1.278  0.00  0.00    -0.287 OA
ATOM     19  C   UNL     1     -35.628  22.115   2.029  0.00  0.00    +0.218 C 
BRANCH  19  20
ATOM     20  C   UNL     1     -35.524  22.330   3.500  0.00  0.00    +0.039 C 
ATOM     21  C   UNL     1     -35.246  21.252   4.310  0.00  0.00    +0.003 C 
ATOM     22  C   UNL     1     -35.711  23.602   3.996  0.00  0.00    +0.003 C 
ATOM     23  C   UNL     1     -35.149  21.455   5.687  0.00  0.00    +0.000 C 
ATOM     24  C   UNL     1     -35.614  23.805   5.373  0.00  0.00    +0.000 C 
ATOM     25  C   UNL     1     -35.333  22.731   6.218  0.00  0.00    +0.000 C 
ENDBRANCH  19  20
ENDBRANCH   7  19
BRANCH  10  26
ATOM     26  C   UNL     1     -38.626  26.394   2.086  0.00  0.00    +0.198 C 
BRANCH  26  27
ATOM     27  O   UNL     1     -39.105  26.574   3.418  0.00  0.00    -0.375 OA
ATOM     28  H   UNL     1     -38.755  27.404   3.778  0.00  0.00    +0.211 HD
ENDBRANCH  26  27
BRANCH  26  29
ATOM     29  C   UNL     1     -37.112  26.691   2.049  0.00  0.00    +0.166 C 
BRANCH  29  30
ATOM     30  O   UNL     1     -36.604  26.749   3.381  0.00  0.00    -0.377 OA
ATOM     31  H   UNL     1     -35.646  26.602   3.369  0.00  0.00    +0.211 HD
ENDBRANCH  29  30
BRANCH  29  32
ATOM     32  C   UNL     1     -36.759  27.982   1.360  0.00  0.00    +0.001 C 
ATOM     33  C   UNL     1     -35.568  28.587   1.480  0.00  0.00    -0.028 C 
BRANCH  33  34
ATOM     34  C   UNL     1     -35.213  29.874   0.798  0.00  0.00    +0.026 C 
ATOM     35  C   UNL     1     -36.385  30.844   0.799  0.00  0.00    +0.005 C 
ENDBRANCH  33  34
ENDBRANCH  29  32
ENDBRANCH  26  29
ENDBRANCH  10  26
TORSDOF 10
ENDMDL
MODEL 7
REMARK VINA RESULT:      -5.6      2.298      3.480
REMARK  Name = 5477694
REMARK  10 active torsions:
REMARK  status: ('A' for Active; 'I' for Inactive)
REMARK    1  A    between atoms: C_6  and  O_16
REMARK    2  A    between atoms: C_7  and  O_14
REMARK    3  A    between atoms: C_7  and  C_19
REMARK    4  A    between atoms: C_10  and  C_26
REMARK    5  A    between atoms: C_19  and  C_20
REMARK    6  A    between atoms: C_26  and  O_27
REMARK    7  A    between atoms: C_26  and  C_29
REMARK    8  A    between atoms: C_29  and  O_30
REMARK    9  A    between atoms: C_29  and  C_32
REMARK   10  A    between atoms: C_33  and  C_34
REMARK                            x       y       z     vdW  Elec       q    Type
REMARK                         _______ _______ _______ _____ _____    ______ ____
ROOT
ATOM      1  O   UNL     1     -36.509  22.963   2.610  0.00  0.00    -0.466 OA
ATOM      2  O   UNL     1     -36.386  23.689  -0.363  0.00  0.00    -0.271 OA
ATOM      3  O   UNL     1     -39.511  23.324   0.876  0.00  0.00    -0.287 OA
ATOM      4  N   UNL     1     -35.991  21.403  -0.047  0.00  0.00    -0.275 N 
ATOM      5  C   UNL     1     -37.333  22.484   1.537  0.00  0.00    +0.282 C 
ATOM      6  C   UNL     1     -37.533  20.965   1.656  0.00  0.00    +0.213 C 
ATOM      7  C   UNL     1     -36.314  20.400   0.927  0.00  0.00    +0.238 C 
ATOM      8  C   UNL     1     -36.535  22.649   0.259  0.00  0.00    +0.270 C 
ATOM      9  C   UNL     1     -38.571  23.320   1.656  0.00  0.00    +0.219 C 
ATOM     10  C   UNL     1     -37.277  23.888   3.312  0.00  0.00    +0.145 C 
ATOM     11  C   UNL     1     -38.495  24.169   2.844  0.00  0.00    +0.049 C 
ATOM     12  C   UNL     1     -39.572  25.079   3.284  0.00  0.00    +0.037 C 
ATOM     13  H   UNL     1     -35.444  21.229  -0.847  0.00  0.00    +0.152 HD
ENDROOT
BRANCH   7  14
ATOM     14  O   UNL     1     -36.566  19.160   0.308  0.00  0.00    -0.331 OA
ATOM     15  C   UNL     1     -36.352  19.213  -1.100  0.00  0.00    +0.176 C 
ENDBRANCH   7  14
BRANCH   6  16
ATOM     16  O   UNL     1     -38.725  20.571   0.980  0.00  0.00    -0.377 OA
ATOM     17  H   UNL     1     -39.489  20.997   1.397  0.00  0.00    +0.211 HD
ENDBRANCH   6  16
BRANCH   7  19
ATOM     18  O   UNL     1     -35.268  20.352   3.063  0.00  0.00    -0.287 OA
ATOM     19  C   UNL     1     -35.142  20.221   1.848  0.00  0.00    +0.218 C 
BRANCH  19  20
ATOM     20  C   UNL     1     -33.812  19.881   1.269  0.00  0.00    +0.039 C 
ATOM     21  C   UNL     1     -33.185  20.804   0.462  0.00  0.00    +0.003 C 
ATOM     22  C   UNL     1     -33.257  18.655   1.562  0.00  0.00    +0.003 C 
ATOM     23  C   UNL     1     -31.939  20.486  -0.080  0.00  0.00    +0.000 C 
ATOM     24  C   UNL     1     -32.011  18.336   1.021  0.00  0.00    +0.000 C 
ATOM     25  C   UNL     1     -31.353  19.252   0.200  0.00  0.00    +0.000 C 
ENDBRANCH  19  20
ENDBRANCH   7  19
BRANCH  10  26
ATOM     26  C   UNL     1     -36.619  24.462   4.519  0.00  0.00    +0.198 C 
BRANCH  26  27
ATOM     27  O   UNL     1     -36.019  23.400   5.259  0.00  0.00    -0.375 OA
ATOM     28  H   UNL     1     -36.698  22.947   5.783  0.00  0.00    +0.211 HD
ENDBRANCH  26  27
BRANCH  26  29
ATOM     29  C   UNL     1     -35.554  25.542   4.232  0.00  0.00    +0.166 C 
BRANCH  29  30
ATOM     30  O   UNL     1     -36.005  26.802   4.728  0.00  0.00    -0.377 OA
ATOM     31  H   UNL     1     -35.893  26.829   5.691  0.00  0.00    +0.211 HD
ENDBRANCH  29  30
BRANCH  29  32
ATOM     32  C   UNL     1     -35.230  25.707   2.771  0.00  0.00    +0.001 C 
ATOM     33  C   UNL     1     -34.002  25.534   2.258  0.00  0.00    -0.028 C 
BRANCH  33  34
ATOM     34  C   UNL     1     -33.675  25.700   0.804  0.00  0.00    +0.026 C 
ATOM     35  C   UNL     1     -32.971  24.471   0.250  0.00  0.00    +0.005 C 
ENDBRANCH  33  34
ENDBRANCH  29  32
ENDBRANCH  26  29
ENDBRANCH  10  26
TORSDOF 10
ENDMDL
MODEL 8
REMARK VINA RESULT:      -5.5      2.374      4.599
REMARK  Name = 5477694
REMARK  10 active torsions:
REMARK  status: ('A' for Active; 'I' for Inactive)
REMARK    1  A    between atoms: C_6  and  O_16
REMARK    2  A    between atoms: C_7  and  O_14
REMARK    3  A    between atoms: C_7  and  C_19
REMARK    4  A    between atoms: C_10  and  C_26
REMARK    5  A    between atoms: C_19  and  C_20
REMARK    6  A    between atoms: C_26  and  O_27
REMARK    7  A    between atoms: C_26  and  C_29
REMARK    8  A    between atoms: C_29  and  O_30
REMARK    9  A    between atoms: C_29  and  C_32
REMARK   10  A    between atoms: C_33  and  C_34
REMARK                            x       y       z     vdW  Elec       q    Type
REMARK                         _______ _______ _______ _____ _____    ______ ____
ROOT
ATOM      1  O   UNL     1     -35.274  24.063   2.550  0.00  0.00    -0.466 OA
ATOM      2  O   UNL     1     -38.240  23.659   3.196  0.00  0.00    -0.271 OA
ATOM      3  O   UNL     1     -36.134  23.017   5.762  0.00  0.00    -0.287 OA
ATOM      4  N   UNL     1     -37.384  21.818   2.029  0.00  0.00    -0.275 N 
ATOM      5  C   UNL     1     -35.884  23.039   3.349  0.00  0.00    +0.282 C 
ATOM      6  C   UNL     1     -35.270  21.669   3.020  0.00  0.00    +0.213 C 
ATOM      7  C   UNL     1     -36.106  21.195   1.832  0.00  0.00    +0.238 C 
ATOM      8  C   UNL     1     -37.322  22.915   2.887  0.00  0.00    +0.270 C 
ATOM      9  C   UNL     1     -35.680  23.529   4.751  0.00  0.00    +0.219 C 
ATOM     10  C   UNL     1     -34.692  24.961   3.442  0.00  0.00    +0.145 C 
ATOM     11  C   UNL     1     -34.867  24.744   4.747  0.00  0.00    +0.049 C 
ATOM     12  C   UNL     1     -34.435  25.457   5.966  0.00  0.00    +0.037 C 
ATOM     13  H   UNL     1     -38.214  21.504   1.606  0.00  0.00    +0.152 HD
ENDROOT
BRANCH   7  14
ATOM     14  O   UNL     1     -36.235  19.793   1.771  0.00  0.00    -0.331 OA
ATOM     15  C   UNL     1     -37.130  19.383   0.740  0.00  0.00    +0.176 C 
ENDBRANCH   7  14
BRANCH   6  16
ATOM     16  O   UNL     1     -35.441  20.776   4.118  0.00  0.00    -0.377 OA
ATOM     17  H   UNL     1     -36.385  20.686   4.318  0.00  0.00    +0.211 HD
ENDBRANCH   6  16
BRANCH   7  19
ATOM     18  O   UNL     1     -36.238  22.246  -0.298  0.00  0.00    -0.287 OA
ATOM     19  C   UNL     1     -35.537  21.658   0.522  0.00  0.00    +0.218 C 
BRANCH  19  20
ATOM     20  C   UNL     1     -34.101  21.395   0.224  0.00  0.00    +0.039 C 
ATOM     21  C   UNL     1     -33.349  22.397  -0.349  0.00  0.00    +0.003 C 
ATOM     22  C   UNL     1     -33.577  20.159   0.532  0.00  0.00    +0.003 C 
ATOM     23  C   UNL     1     -32.004  22.151  -0.627  0.00  0.00    +0.000 C 
ATOM     24  C   UNL     1     -32.232  19.912   0.254  0.00  0.00    +0.000 C 
ATOM     25  C   UNL     1     -31.446  20.909  -0.326  0.00  0.00    +0.000 C 
ENDBRANCH  19  20
ENDBRANCH   7  19
BRANCH  10  26
ATOM     26  C   UNL     1     -33.942  26.079   2.805  0.00  0.00    +0.198 C 
BRANCH  26  27
ATOM     27  O   UNL     1     -33.310  25.588   1.623  0.00  0.00    -0.375 OA
ATOM     28  H   UNL     1     -32.869  26.320   1.164  0.00  0.00    +0.211 HD
ENDBRANCH  26  27
BRANCH  26  29
ATOM     29  C   UNL     1     -34.791  27.316   2.445  0.00  0.00    +0.166 C 
BRANCH  29  30
ATOM     30  O   UNL     1     -35.380  27.853   3.630  0.00  0.00    -0.377 OA
ATOM     31  H   UNL     1     -34.789  27.699   4.383  0.00  0.00    +0.211 HD
ENDBRANCH  29  30
BRANCH  29  32
ATOM     32  C   UNL     1     -35.897  27.034   1.465  0.00  0.00    +0.001 C 
ATOM     33  C   UNL     1     -37.188  26.919   1.812  0.00  0.00    -0.028 C 
BRANCH  33  34
ATOM     34  C   UNL     1     -38.293  26.636   0.839  0.00  0.00    +0.026 C 
ATOM     35  C   UNL     1     -38.036  25.352   0.066  0.00  0.00    +0.005 C 
ENDBRANCH  33  34
ENDBRANCH  29  32
ENDBRANCH  26  29
ENDBRANCH  10  26
TORSDOF 10
ENDMDL
MODEL 9
REMARK VINA RESULT:      -5.5      2.659      6.448
REMARK  Name = 5477694
REMARK  10 active torsions:
REMARK  status: ('A' for Active; 'I' for Inactive)
REMARK    1  A    between atoms: C_6  and  O_16
REMARK    2  A    between atoms: C_7  and  O_14
REMARK    3  A    between atoms: C_7  and  C_19
REMARK    4  A    between atoms: C_10  and  C_26
REMARK    5  A    between atoms: C_19  and  C_20
REMARK    6  A    between atoms: C_26  and  O_27
REMARK    7  A    between atoms: C_26  and  C_29
REMARK    8  A    between atoms: C_29  and  O_30
REMARK    9  A    between atoms: C_29  and  C_32
REMARK   10  A    between atoms: C_33  and  C_34
REMARK                            x       y       z     vdW  Elec       q    Type
REMARK                         _______ _______ _______ _____ _____    ______ ____
ROOT
ATOM      1  O   UNL     1     -36.063  22.953   2.435  0.00  0.00    -0.466 OA
ATOM      2  O   UNL     1     -34.283  25.417   2.808  0.00  0.00    -0.271 OA
ATOM      3  O   UNL     1     -35.773  24.307   5.634  0.00  0.00    -0.287 OA
ATOM      4  N   UNL     1     -36.373  26.022   1.942  0.00  0.00    -0.275 N 
ATOM      5  C   UNL     1     -36.284  24.097   3.271  0.00  0.00    +0.282 C 
ATOM      6  C   UNL     1     -37.743  24.567   3.157  0.00  0.00    +0.213 C 
ATOM      7  C   UNL     1     -37.709  25.499   1.946  0.00  0.00    +0.238 C 
ATOM      8  C   UNL     1     -35.485  25.240   2.678  0.00  0.00    +0.270 C 
ATOM      9  C   UNL     1     -35.853  23.622   4.626  0.00  0.00    +0.219 C 
ATOM     10  C   UNL     1     -35.661  21.921   3.281  0.00  0.00    +0.145 C 
ATOM     11  C   UNL     1     -35.508  22.202   4.576  0.00  0.00    +0.049 C 
ATOM     12  C   UNL     1     -35.092  21.408   5.750  0.00  0.00    +0.037 C 
ATOM     13  H   UNL     1     -36.112  26.845   1.470  0.00  0.00    +0.152 HD
ENDROOT
BRANCH   7  14
ATOM     14  O   UNL     1     -38.657  26.539   2.023  0.00  0.00    -0.331 OA
ATOM     15  C   UNL     1     -39.991  26.058   1.882  0.00  0.00    +0.176 C 
ENDBRANCH   7  14
BRANCH   6  16
ATOM     16  O   UNL     1     -38.117  25.300   4.321  0.00  0.00    -0.377 OA
ATOM     17  H   UNL     1     -38.935  25.790   4.146  0.00  0.00    +0.211 HD
ENDBRANCH   6  16
BRANCH   7  19
ATOM     18  O   UNL     1     -38.640  23.746   0.635  0.00  0.00    -0.287 OA
ATOM     19  C   UNL     1     -37.947  24.760   0.661  0.00  0.00    +0.218 C 
BRANCH  19  20
ATOM     20  C   UNL     1     -37.327  25.272  -0.594  0.00  0.00    +0.039 C 
ATOM     21  C   UNL     1     -36.199  24.649  -1.078  0.00  0.00    +0.003 C 
ATOM     22  C   UNL     1     -37.906  26.352  -1.224  0.00  0.00    +0.003 C 
ATOM     23  C   UNL     1     -35.620  25.128  -2.253  0.00  0.00    +0.000 C 
ATOM     24  C   UNL     1     -37.327  26.832  -2.399  0.00  0.00    +0.000 C 
ATOM     25  C   UNL     1     -36.184  26.220  -2.913  0.00  0.00    +0.000 C 
ENDBRANCH  19  20
ENDBRANCH   7  19
BRANCH  10  26
ATOM     26  C   UNL     1     -35.439  20.610   2.608  0.00  0.00    +0.198 C 
BRANCH  26  27
ATOM     27  O   UNL     1     -36.643  19.848   2.691  0.00  0.00    -0.375 OA
ATOM     28  H   UNL     1     -36.882  19.721   3.623  0.00  0.00    +0.211 HD
ENDBRANCH  26  27
BRANCH  26  29
ATOM     29  C   UNL     1     -34.998  20.698   1.132  0.00  0.00    +0.166 C 
BRANCH  29  30
ATOM     30  O   UNL     1     -36.025  20.167   0.294  0.00  0.00    -0.377 OA
ATOM     31  H   UNL     1     -36.831  20.034   0.815  0.00  0.00    +0.211 HD
ENDBRANCH  29  30
BRANCH  29  32
ATOM     32  C   UNL     1     -33.724  19.956   0.831  0.00  0.00    +0.001 C 
ATOM     33  C   UNL     1     -33.328  18.857   1.493  0.00  0.00    -0.028 C 
BRANCH  33  34
ATOM     34  C   UNL     1     -32.059  18.117   1.197  0.00  0.00    +0.026 C 
ATOM     35  C   UNL     1     -31.107  18.958   0.360  0.00  0.00    +0.005 C 
ENDBRANCH  33  34
ENDBRANCH  29  32
ENDBRANCH  26  29
ENDBRANCH  10  26
TORSDOF 10
ENDMDL
