MODEL 1
REMARK VINA RESULT:      -6.6      0.000      0.000
REMARK  Name = 197538
REMARK  9 active torsions:
REMARK  status: ('A' for Active; 'I' for Inactive)
REMARK    1  A    between atoms: C_4  and  C_7
REMARK    2  A    between atoms: C_5  and  C_19
REMARK    3  A    between atoms: C_7  and  N_9
REMARK    4  A    between atoms: C_7  and  C_13
REMARK    5  A    between atoms: C_13  and  C_16
REMARK    6  A    between atoms: C_19  and  N_20
REMARK    7  A    between atoms: N_20  and  C_23
REMARK    8  A    between atoms: C_23  and  C_24
REMARK    9  A    between atoms: C_24  and  C_25
REMARK                            x       y       z     vdW  Elec       q    Type
REMARK                         _______ _______ _______ _____ _____    ______ ____
ROOT
ATOM      1  O   UNL     1     -39.206  25.176   3.346  0.00  0.00    -0.273 OA
ATOM      2  O   UNL     1     -40.398  23.128   1.848  0.00  0.00    -0.277 OA
ATOM      3  N   UNL     1     -38.252  23.131   2.761  0.00  0.00    -0.256 N 
ATOM      4  C   UNL     1     -38.262  24.390   3.367  0.00  0.00    +0.246 C 
ATOM      5  C   UNL     1     -39.315  22.580   2.041  0.00  0.00    +0.207 C 
ATOM      6  H   UNL     1     -37.433  22.591   2.847  0.00  0.00    +0.157 HD
ENDROOT
BRANCH   4   7
ATOM      7  C   UNL     1     -36.924  24.717   4.020  0.00  0.00    +0.158 C 
BRANCH   7   9
ATOM      8  O   UNL     1     -34.835  24.512   6.026  0.00  0.00    -0.275 OA
ATOM      9  N   UNL     1     -36.425  23.518   4.645  0.00  0.00    -0.298 N 
ATOM     10  C   UNL     1     -35.419  23.520   5.598  0.00  0.00    +0.223 C 
ATOM     11  C   UNL     1     -35.107  22.137   6.105  0.00  0.00    +0.095 C 
ATOM     12  H   UNL     1     -36.818  22.655   4.382  0.00  0.00    +0.150 HD
ENDBRANCH   7   9
BRANCH   7  13
ATOM     13  C   UNL     1     -35.936  25.260   2.987  0.00  0.00    +0.114 C 
BRANCH  13  16
ATOM     14  O   UNL     1     -34.861  27.372   2.562  0.00  0.00    -0.275 OA
ATOM     15  N   UNL     1     -35.781  27.016   4.644  0.00  0.00    -0.329 N 
ATOM     16  C   UNL     1     -35.462  26.650   3.355  0.00  0.00    +0.222 C 
ATOM     17  H   UNL     1     -35.516  27.902   4.983  0.00  0.00    +0.145 HD
ATOM     18  H   UNL     1     -36.272  26.392   5.225  0.00  0.00    +0.145 HD
ENDBRANCH  13  16
ENDBRANCH   7  13
ENDBRANCH   4   7
BRANCH   5  19
ATOM     19  C   UNL     1     -38.961  21.207   1.507  0.00  0.00    +0.006 C 
BRANCH  19  20
ATOM     20  N   UNL     1     -37.785  20.697   2.196  0.00  0.00    +0.390 N 
ATOM     21  H   UNL     1     -37.441  21.410   2.841  0.00  0.00    -0.084 HD
ATOM     22  H   UNL     1     -38.045  19.852   2.704  0.00  0.00    -0.084 HD
BRANCH  20  23
ATOM     23  C   UNL     1     -36.730  20.363   1.249  0.00  0.00    -0.076 C 
BRANCH  23  24
ATOM     24  C   UNL     1     -35.517  21.277   1.433  0.00  0.00    +0.003 C 
BRANCH  24  25
ATOM     25  C   UNL     1     -34.231  20.566   1.096  0.00  0.00    -0.024 C 
ATOM     26  C   UNL     1     -33.983  19.313   1.639  0.00  0.00    -0.004 C 
ATOM     27  C   UNL     1     -33.318  21.174   0.249  0.00  0.00    -0.004 C 
ATOM     28  C   UNL     1     -32.793  18.655   1.327  0.00  0.00    -0.000 C 
ATOM     29  C   UNL     1     -32.128  20.516  -0.063  0.00  0.00    -0.000 C 
ATOM     30  C   UNL     1     -31.866  19.256   0.476  0.00  0.00    -0.000 C 
ENDBRANCH  24  25
ENDBRANCH  23  24
ENDBRANCH  20  23
ENDBRANCH  19  20
ENDBRANCH   5  19
TORSDOF 9
ENDMDL
MODEL 2
REMARK VINA RESULT:      -6.5      1.870      3.308
REMARK  Name = 197538
REMARK  9 active torsions:
REMARK  status: ('A' for Active; 'I' for Inactive)
REMARK    1  A    between atoms: C_4  and  C_7
REMARK    2  A    between atoms: C_5  and  C_19
REMARK    3  A    between atoms: C_7  and  N_9
REMARK    4  A    between atoms: C_7  and  C_13
REMARK    5  A    between atoms: C_13  and  C_16
REMARK    6  A    between atoms: C_19  and  N_20
REMARK    7  A    between atoms: N_20  and  C_23
REMARK    8  A    between atoms: C_23  and  C_24
REMARK    9  A    between atoms: C_24  and  C_25
REMARK                            x       y       z     vdW  Elec       q    Type
REMARK                         _______ _______ _______ _____ _____    ______ ____
ROOT
ATOM      1  O   UNL     1     -35.150  22.934   5.325  0.00  0.00    -0.273 OA
ATOM      2  O   UNL     1     -35.166  20.504   3.928  0.00  0.00    -0.277 OA
ATOM      3  N   UNL     1     -36.164  22.506   3.270  0.00  0.00    -0.256 N 
ATOM      4  C   UNL     1     -35.808  23.308   4.357  0.00  0.00    +0.246 C 
ATOM      5  C   UNL     1     -35.823  21.159   3.124  0.00  0.00    +0.207 C 
ATOM      6  H   UNL     1     -36.696  22.921   2.553  0.00  0.00    +0.157 HD
ENDROOT
BRANCH   4   7
ATOM      7  C   UNL     1     -36.389  24.713   4.241  0.00  0.00    +0.158 C 
BRANCH   7   9
ATOM      8  O   UNL     1     -38.125  26.405   2.643  0.00  0.00    -0.275 OA
ATOM      9  N   UNL     1     -37.816  24.596   4.077  0.00  0.00    -0.298 N 
ATOM     10  C   UNL     1     -38.564  25.457   3.289  0.00  0.00    +0.223 C 
ATOM     11  C   UNL     1     -40.025  25.096   3.273  0.00  0.00    +0.095 C 
ATOM     12  H   UNL     1     -38.283  23.870   4.549  0.00  0.00    +0.150 HD
ENDBRANCH   7   9
BRANCH   7  13
ATOM     13  C   UNL     1     -36.034  25.548   5.471  0.00  0.00    +0.114 C 
BRANCH  13  16
ATOM     14  O   UNL     1     -33.940  26.693   5.792  0.00  0.00    -0.275 OA
ATOM     15  N   UNL     1     -35.305  27.379   4.069  0.00  0.00    -0.329 N 
ATOM     16  C   UNL     1     -34.982  26.588   5.148  0.00  0.00    +0.222 C 
ATOM     17  H   UNL     1     -34.688  28.088   3.776  0.00  0.00    +0.145 HD
ATOM     18  H   UNL     1     -36.154  27.237   3.591  0.00  0.00    +0.145 HD
ENDBRANCH  13  16
ENDBRANCH   7  13
ENDBRANCH   4   7
BRANCH   5  19
ATOM     19  C   UNL     1     -36.384  20.590   1.836  0.00  0.00    +0.006 C 
BRANCH  19  20
ATOM     20  N   UNL     1     -36.066  21.475   0.725  0.00  0.00    +0.390 N 
ATOM     21  H   UNL     1     -36.917  21.667   0.196  0.00  0.00    -0.084 HD
ATOM     22  H   UNL     1     -35.675  22.340   1.099  0.00  0.00    -0.084 HD
BRANCH  20  23
ATOM     23  C   UNL     1     -35.081  20.868  -0.161  0.00  0.00    -0.076 C 
BRANCH  23  24
ATOM     24  C   UNL     1     -33.666  21.322   0.199  0.00  0.00    +0.003 C 
BRANCH  24  25
ATOM     25  C   UNL     1     -32.749  20.147   0.432  0.00  0.00    -0.024 C 
ATOM     26  C   UNL     1     -31.478  20.156  -0.121  0.00  0.00    -0.004 C 
ATOM     27  C   UNL     1     -33.193  19.078   1.195  0.00  0.00    -0.004 C 
ATOM     28  C   UNL     1     -30.629  19.070   0.094  0.00  0.00    -0.000 C 
ATOM     29  C   UNL     1     -32.345  17.991   1.410  0.00  0.00    -0.000 C 
ATOM     30  C   UNL     1     -31.063  17.987   0.860  0.00  0.00    -0.000 C 
ENDBRANCH  24  25
ENDBRANCH  23  24
ENDBRANCH  20  23
ENDBRANCH  19  20
ENDBRANCH   5  19
TORSDOF 9
ENDMDL
MODEL 3
REMARK VINA RESULT:      -6.4      1.460      1.950
REMARK  Name = 197538
REMARK  9 active torsions:
REMARK  status: ('A' for Active; 'I' for Inactive)
REMARK    1  A    between atoms: C_4  and  C_7
REMARK    2  A    between atoms: C_5  and  C_19
REMARK    3  A    between atoms: C_7  and  N_9
REMARK    4  A    between atoms: C_7  and  C_13
REMARK    5  A    between atoms: C_13  and  C_16
REMARK    6  A    between atoms: C_19  and  N_20
REMARK    7  A    between atoms: N_20  and  C_23
REMARK    8  A    between atoms: C_23  and  C_24
REMARK    9  A    between atoms: C_24  and  C_25
REMARK                            x       y       z     vdW  Elec       q    Type
REMARK                         _______ _______ _______ _____ _____    ______ ____
ROOT
ATOM      1  O   UNL     1     -39.885  22.779   2.264  0.00  0.00    -0.273 OA
ATOM      2  O   UNL     1     -39.865  20.636   0.458  0.00  0.00    -0.277 OA
ATOM      3  N   UNL     1     -38.024  21.584   1.528  0.00  0.00    -0.256 N 
ATOM      4  C   UNL     1     -38.674  22.575   2.269  0.00  0.00    +0.246 C 
ATOM      5  C   UNL     1     -38.656  20.681   0.672  0.00  0.00    +0.207 C 
ATOM      6  H   UNL     1     -37.045  21.519   1.617  0.00  0.00    +0.157 HD
ENDROOT
BRANCH   4   7
ATOM      7  C   UNL     1     -37.690  23.433   3.057  0.00  0.00    +0.158 C 
BRANCH   7   9
ATOM      8  O   UNL     1     -36.130  23.959   5.448  0.00  0.00    -0.275 OA
ATOM      9  N   UNL     1     -36.739  22.556   3.692  0.00  0.00    -0.298 N 
ATOM     10  C   UNL     1     -36.037  22.898   4.838  0.00  0.00    +0.223 C 
ATOM     11  C   UNL     1     -35.129  21.791   5.305  0.00  0.00    +0.095 C 
ATOM     12  H   UNL     1     -36.578  21.672   3.292  0.00  0.00    +0.150 HD
ENDBRANCH   7   9
BRANCH   7  13
ATOM     13  C   UNL     1     -36.996  24.440   2.140  0.00  0.00    +0.114 C 
BRANCH  13  16
ATOM     14  O   UNL     1     -36.221  26.709   2.362  0.00  0.00    -0.275 OA
ATOM     15  N   UNL     1     -37.902  25.989   3.763  0.00  0.00    -0.329 N 
ATOM     16  C   UNL     1     -36.981  25.825   2.752  0.00  0.00    +0.222 C 
ATOM     17  H   UNL     1     -37.973  26.854   4.228  0.00  0.00    +0.145 HD
ATOM     18  H   UNL     1     -38.488  25.241   4.020  0.00  0.00    +0.145 HD
ENDBRANCH  13  16
ENDBRANCH   7  13
ENDBRANCH   4   7
BRANCH   5  19
ATOM     19  C   UNL     1     -37.652  19.754   0.015  0.00  0.00    +0.006 C 
BRANCH  19  20
ATOM     20  N   UNL     1     -36.720  19.251   1.012  0.00  0.00    +0.390 N 
ATOM     21  H   UNL     1     -36.713  19.884   1.813  0.00  0.00    -0.084 HD
ATOM     22  H   UNL     1     -37.019  18.318   1.297  0.00  0.00    -0.084 HD
BRANCH  20  23
ATOM     23  C   UNL     1     -35.372  19.159   0.467  0.00  0.00    -0.076 C 
BRANCH  23  24
ATOM     24  C   UNL     1     -34.327  19.527   1.521  0.00  0.00    +0.003 C 
BRANCH  24  25
ATOM     25  C   UNL     1     -32.925  19.297   1.016  0.00  0.00    -0.024 C 
ATOM     26  C   UNL     1     -32.265  18.125   1.352  0.00  0.00    -0.004 C 
ATOM     27  C   UNL     1     -32.320  20.261   0.224  0.00  0.00    -0.004 C 
ATOM     28  C   UNL     1     -30.967  17.912   0.885  0.00  0.00    -0.000 C 
ATOM     29  C   UNL     1     -31.023  20.048  -0.244  0.00  0.00    -0.000 C 
ATOM     30  C   UNL     1     -30.346  18.873   0.087  0.00  0.00    -0.000 C 
ENDBRANCH  24  25
ENDBRANCH  23  24
ENDBRANCH  20  23
ENDBRANCH  19  20
ENDBRANCH   5  19
TORSDOF 9
ENDMDL
MODEL 4
REMARK VINA RESULT:      -6.2      2.696      4.784
REMARK  Name = 197538
REMARK  9 active torsions:
REMARK  status: ('A' for Active; 'I' for Inactive)
REMARK    1  A    between atoms: C_4  and  C_7
REMARK    2  A    between atoms: C_5  and  C_19
REMARK    3  A    between atoms: C_7  and  N_9
REMARK    4  A    between atoms: C_7  and  C_13
REMARK    5  A    between atoms: C_13  and  C_16
REMARK    6  A    between atoms: C_19  and  N_20
REMARK    7  A    between atoms: N_20  and  C_23
REMARK    8  A    between atoms: C_23  and  C_24
REMARK    9  A    between atoms: C_24  and  C_25
REMARK                            x       y       z     vdW  Elec       q    Type
REMARK                         _______ _______ _______ _____ _____    ______ ____
ROOT
ATOM      1  O   UNL     1     -41.881  23.668   0.689  0.00  0.00    -0.273 OA
ATOM      2  O   UNL     1     -41.019  21.020   0.376  0.00  0.00    -0.277 OA
ATOM      3  N   UNL     1     -39.728  22.845   1.040  0.00  0.00    -0.256 N 
ATOM      4  C   UNL     1     -40.706  23.842   1.003  0.00  0.00    +0.246 C 
ATOM      5  C   UNL     1     -39.944  21.501   0.725  0.00  0.00    +0.207 C 
ATOM      6  H   UNL     1     -38.819  23.109   1.308  0.00  0.00    +0.157 HD
ENDROOT
BRANCH   4   7
ATOM      7  C   UNL     1     -40.132  25.213   1.343  0.00  0.00    +0.158 C 
BRANCH   7   9
ATOM      8  O   UNL     1     -41.588  27.705   1.656  0.00  0.00    -0.275 OA
ATOM      9  N   UNL     1     -40.797  25.696   2.528  0.00  0.00    -0.298 N 
ATOM     10  C   UNL     1     -41.470  26.907   2.581  0.00  0.00    +0.223 C 
ATOM     11  C   UNL     1     -42.094  27.155   3.928  0.00  0.00    +0.095 C 
ATOM     12  H   UNL     1     -40.770  25.139   3.338  0.00  0.00    +0.150 HD
ENDBRANCH   7   9
BRANCH   7  13
ATOM     13  C   UNL     1     -38.619  25.131   1.546  0.00  0.00    +0.114 C 
BRANCH  13  16
ATOM     14  O   UNL     1     -38.420  23.967   3.644  0.00  0.00    -0.275 OA
ATOM     15  N   UNL     1     -37.745  26.167   3.550  0.00  0.00    -0.329 N 
ATOM     16  C   UNL     1     -38.264  25.010   3.013  0.00  0.00    +0.222 C 
ATOM     17  H   UNL     1     -37.482  26.194   4.498  0.00  0.00    +0.145 HD
ATOM     18  H   UNL     1     -37.638  26.966   2.985  0.00  0.00    +0.145 HD
ENDBRANCH  13  16
ENDBRANCH   7  13
ENDBRANCH   4   7
BRANCH   5  19
ATOM     19  C   UNL     1     -38.666  20.697   0.854  0.00  0.00    +0.006 C 
BRANCH  19  20
ATOM     20  N   UNL     1     -37.918  21.142   2.020  0.00  0.00    +0.390 N 
ATOM     21  H   UNL     1     -38.302  22.031   2.344  0.00  0.00    -0.084 HD
ATOM     22  H   UNL     1     -37.998  20.433   2.749  0.00  0.00    -0.084 HD
BRANCH  20  23
ATOM     23  C   UNL     1     -36.509  21.321   1.700  0.00  0.00    -0.076 C 
BRANCH  23  24
ATOM     24  C   UNL     1     -35.620  20.847   2.852  0.00  0.00    +0.003 C 
BRANCH  24  25
ATOM     25  C   UNL     1     -35.372  21.951   3.850  0.00  0.00    -0.024 C 
ATOM     26  C   UNL     1     -35.450  21.671   5.206  0.00  0.00    -0.004 C 
ATOM     27  C   UNL     1     -35.071  23.225   3.395  0.00  0.00    -0.004 C 
ATOM     28  C   UNL     1     -35.221  22.692   6.129  0.00  0.00    -0.000 C 
ATOM     29  C   UNL     1     -34.842  24.246   4.319  0.00  0.00    -0.000 C 
ATOM     30  C   UNL     1     -34.916  23.979   5.686  0.00  0.00    -0.000 C 
ENDBRANCH  24  25
ENDBRANCH  23  24
ENDBRANCH  20  23
ENDBRANCH  19  20
ENDBRANCH   5  19
TORSDOF 9
ENDMDL
MODEL 5
REMARK VINA RESULT:      -6.1      2.222      3.912
REMARK  Name = 197538
REMARK  9 active torsions:
REMARK  status: ('A' for Active; 'I' for Inactive)
REMARK    1  A    between atoms: C_4  and  C_7
REMARK    2  A    between atoms: C_5  and  C_19
REMARK    3  A    between atoms: C_7  and  N_9
REMARK    4  A    between atoms: C_7  and  C_13
REMARK    5  A    between atoms: C_13  and  C_16
REMARK    6  A    between atoms: C_19  and  N_20
REMARK    7  A    between atoms: N_20  and  C_23
REMARK    8  A    between atoms: C_23  and  C_24
REMARK    9  A    between atoms: C_24  and  C_25
REMARK                            x       y       z     vdW  Elec       q    Type
REMARK                         _______ _______ _______ _____ _____    ______ ____
ROOT
ATOM      1  O   UNL     1     -35.975  26.615   5.008  0.00  0.00    -0.273 OA
ATOM      2  O   UNL     1     -37.179  24.127   4.545  0.00  0.00    -0.277 OA
ATOM      3  N   UNL     1     -35.569  25.172   3.222  0.00  0.00    -0.256 N 
ATOM      4  C   UNL     1     -35.385  26.341   3.966  0.00  0.00    +0.246 C 
ATOM      5  C   UNL     1     -36.451  24.142   3.556  0.00  0.00    +0.207 C 
ATOM      6  H   UNL     1     -35.036  25.068   2.401  0.00  0.00    +0.157 HD
ENDROOT
BRANCH   4   7
ATOM      7  C   UNL     1     -34.396  27.290   3.298  0.00  0.00    +0.158 C 
BRANCH   7   9
ATOM      8  O   UNL     1     -34.377  29.475   1.387  0.00  0.00    -0.275 OA
ATOM      9  N   UNL     1     -34.859  28.639   3.506  0.00  0.00    -0.298 N 
ATOM     10  C   UNL     1     -34.808  29.620   2.527  0.00  0.00    +0.223 C 
ATOM     11  C   UNL     1     -35.379  30.930   2.999  0.00  0.00    +0.095 C 
ATOM     12  H   UNL     1     -35.229  28.876   4.386  0.00  0.00    +0.150 HD
ENDBRANCH   7   9
BRANCH   7  13
ATOM     13  C   UNL     1     -32.989  27.090   3.861  0.00  0.00    +0.114 C 
BRANCH  13  16
ATOM     14  O   UNL     1     -32.441  29.052   5.144  0.00  0.00    -0.275 OA
ATOM     15  N   UNL     1     -33.049  27.142   6.278  0.00  0.00    -0.329 N 
ATOM     16  C   UNL     1     -32.790  27.873   5.141  0.00  0.00    +0.222 C 
ATOM     17  H   UNL     1     -32.948  27.559   7.165  0.00  0.00    +0.145 HD
ATOM     18  H   UNL     1     -33.333  26.203   6.205  0.00  0.00    +0.145 HD
ENDBRANCH  13  16
ENDBRANCH   7  13
ENDBRANCH   4   7
BRANCH   5  19
ATOM     19  C   UNL     1     -36.411  23.032   2.525  0.00  0.00    +0.006 C 
BRANCH  19  20
ATOM     20  N   UNL     1     -36.548  21.742   3.183  0.00  0.00    +0.390 N 
ATOM     21  H   UNL     1     -36.662  21.889   4.187  0.00  0.00    -0.084 HD
ATOM     22  H   UNL     1     -37.362  21.263   2.798  0.00  0.00    -0.084 HD
BRANCH  20  23
ATOM     23  C   UNL     1     -35.372  20.912   2.955  0.00  0.00    -0.076 C 
BRANCH  23  24
ATOM     24  C   UNL     1     -35.355  20.368   1.526  0.00  0.00    +0.003 C 
BRANCH  24  25
ATOM     25  C   UNL     1     -33.960  19.990   1.094  0.00  0.00    -0.024 C 
ATOM     26  C   UNL     1     -33.426  18.778   1.503  0.00  0.00    -0.004 C 
ATOM     27  C   UNL     1     -33.235  20.861   0.295  0.00  0.00    -0.004 C 
ATOM     28  C   UNL     1     -32.135  18.428   1.104  0.00  0.00    -0.000 C 
ATOM     29  C   UNL     1     -31.945  20.512  -0.105  0.00  0.00    -0.000 C 
ATOM     30  C   UNL     1     -31.395  19.295   0.299  0.00  0.00    -0.000 C 
ENDBRANCH  24  25
ENDBRANCH  23  24
ENDBRANCH  20  23
ENDBRANCH  19  20
ENDBRANCH   5  19
TORSDOF 9
ENDMDL
MODEL 6
REMARK VINA RESULT:      -6.1      4.533      8.301
REMARK  Name = 197538
REMARK  9 active torsions:
REMARK  status: ('A' for Active; 'I' for Inactive)
REMARK    1  A    between atoms: C_4  and  C_7
REMARK    2  A    between atoms: C_5  and  C_19
REMARK    3  A    between atoms: C_7  and  N_9
REMARK    4  A    between atoms: C_7  and  C_13
REMARK    5  A    between atoms: C_13  and  C_16
REMARK    6  A    between atoms: C_19  and  N_20
REMARK    7  A    between atoms: N_20  and  C_23
REMARK    8  A    between atoms: C_23  and  C_24
REMARK    9  A    between atoms: C_24  and  C_25
REMARK                            x       y       z     vdW  Elec       q    Type
REMARK                         _______ _______ _______ _____ _____    ______ ____
ROOT
ATOM      1  O   UNL     1     -36.544  26.395   2.764  0.00  0.00    -0.273 OA
ATOM      2  O   UNL     1     -39.043  26.941   1.617  0.00  0.00    -0.277 OA
ATOM      3  N   UNL     1     -38.620  25.625   3.495  0.00  0.00    -0.256 N 
ATOM      4  C   UNL     1     -37.229  25.745   3.551  0.00  0.00    +0.246 C 
ATOM      5  C   UNL     1     -39.437  26.227   2.536  0.00  0.00    +0.207 C 
ATOM      6  H   UNL     1     -39.057  25.074   4.184  0.00  0.00    +0.157 HD
ENDROOT
BRANCH   4   7
ATOM      7  C   UNL     1     -36.632  24.915   4.682  0.00  0.00    +0.158 C 
BRANCH   7   9
ATOM      8  O   UNL     1     -37.692  22.663   3.188  0.00  0.00    -0.275 OA
ATOM      9  N   UNL     1     -35.891  23.826   4.096  0.00  0.00    -0.298 N 
ATOM     10  C   UNL     1     -36.489  22.789   3.397  0.00  0.00    +0.223 C 
ATOM     11  C   UNL     1     -35.485  21.800   2.870  0.00  0.00    +0.095 C 
ATOM     12  H   UNL     1     -34.913  23.818   4.199  0.00  0.00    +0.150 HD
ENDBRANCH   7   9
BRANCH   7  13
ATOM     13  C   UNL     1     -35.742  25.779   5.575  0.00  0.00    +0.114 C 
BRANCH  13  16
ATOM     14  O   UNL     1     -33.540  25.122   4.858  0.00  0.00    -0.275 OA
ATOM     15  N   UNL     1     -34.207  27.293   4.477  0.00  0.00    -0.329 N 
ATOM     16  C   UNL     1     -34.385  26.010   4.945  0.00  0.00    +0.222 C 
ATOM     17  H   UNL     1     -33.358  27.548   4.050  0.00  0.00    +0.145 HD
ATOM     18  H   UNL     1     -34.930  27.955   4.571  0.00  0.00    +0.145 HD
ENDBRANCH  13  16
ENDBRANCH   7  13
ENDBRANCH   4   7
BRANCH   5  19
ATOM     19  C   UNL     1     -40.895  25.876   2.760  0.00  0.00    +0.006 C 
BRANCH  19  20
ATOM     20  N   UNL     1     -41.352  26.449   4.017  0.00  0.00    +0.390 N 
ATOM     21  H   UNL     1     -41.669  25.697   4.632  0.00  0.00    -0.084 HD
ATOM     22  H   UNL     1     -40.577  26.957   4.445  0.00  0.00    -0.084 HD
BRANCH  20  23
ATOM     23  C   UNL     1     -42.451  27.379   3.798  0.00  0.00    -0.076 C 
BRANCH  23  24
ATOM     24  C   UNL     1     -43.481  26.793   2.830  0.00  0.00    +0.003 C 
BRANCH  24  25
ATOM     25  C   UNL     1     -44.685  26.255   3.562  0.00  0.00    -0.024 C 
ATOM     26  C   UNL     1     -44.968  26.718   4.838  0.00  0.00    -0.004 C 
ATOM     27  C   UNL     1     -45.489  25.308   2.947  0.00  0.00    -0.004 C 
ATOM     28  C   UNL     1     -46.082  26.221   5.515  0.00  0.00    -0.000 C 
ATOM     29  C   UNL     1     -46.603  24.811   3.624  0.00  0.00    -0.000 C 
ATOM     30  C   UNL     1     -46.900  25.267   4.908  0.00  0.00    -0.000 C 
ENDBRANCH  24  25
ENDBRANCH  23  24
ENDBRANCH  20  23
ENDBRANCH  19  20
ENDBRANCH   5  19
TORSDOF 9
ENDMDL
MODEL 7
REMARK VINA RESULT:      -6.0      1.929      2.919
REMARK  Name = 197538
REMARK  9 active torsions:
REMARK  status: ('A' for Active; 'I' for Inactive)
REMARK    1  A    between atoms: C_4  and  C_7
REMARK    2  A    between atoms: C_5  and  C_19
REMARK    3  A    between atoms: C_7  and  N_9
REMARK    4  A    between atoms: C_7  and  C_13
REMARK    5  A    between atoms: C_13  and  C_16
REMARK    6  A    between atoms: C_19  and  N_20
REMARK    7  A    between atoms: N_20  and  C_23
REMARK    8  A    between atoms: C_23  and  C_24
REMARK    9  A    between atoms: C_24  and  C_25
REMARK                            x       y       z     vdW  Elec       q    Type
REMARK                         _______ _______ _______ _____ _____    ______ ____
ROOT
ATOM      1  O   UNL     1     -37.410  24.050   3.710  0.00  0.00    -0.273 OA
ATOM      2  O   UNL     1     -38.450  21.862   2.301  0.00  0.00    -0.277 OA
ATOM      3  N   UNL     1     -36.228  22.201   2.922  0.00  0.00    -0.256 N 
ATOM      4  C   UNL     1     -36.358  23.430   3.575  0.00  0.00    +0.246 C 
ATOM      5  C   UNL     1     -37.277  21.497   2.328  0.00  0.00    +0.207 C 
ATOM      6  H   UNL     1     -35.329  21.803   2.878  0.00  0.00    +0.157 HD
ENDROOT
BRANCH   4   7
ATOM      7  C   UNL     1     -35.013  23.961   4.059  0.00  0.00    +0.158 C 
BRANCH   7   9
ATOM      8  O   UNL     1     -34.090  23.695   1.319  0.00  0.00    -0.275 OA
ATOM      9  N   UNL     1     -34.601  25.016   3.167  0.00  0.00    -0.298 N 
ATOM     10  C   UNL     1     -34.172  24.790   1.868  0.00  0.00    +0.223 C 
ATOM     11  C   UNL     1     -33.825  26.066   1.150  0.00  0.00    +0.095 C 
ATOM     12  H   UNL     1     -34.623  25.943   3.498  0.00  0.00    +0.150 HD
ENDBRANCH   7   9
BRANCH   7  13
ATOM     13  C   UNL     1     -35.115  24.456   5.501  0.00  0.00    +0.114 C 
BRANCH  13  16
ATOM     14  O   UNL     1     -34.206  26.682   5.624  0.00  0.00    -0.275 OA
ATOM     15  N   UNL     1     -36.494  26.443   5.528  0.00  0.00    -0.329 N 
ATOM     16  C   UNL     1     -35.203  25.966   5.562  0.00  0.00    +0.222 C 
ATOM     17  H   UNL     1     -36.661  27.413   5.563  0.00  0.00    +0.145 HD
ATOM     18  H   UNL     1     -37.249  25.814   5.469  0.00  0.00    +0.145 HD
ENDBRANCH  13  16
ENDBRANCH   7  13
ENDBRANCH   4   7
BRANCH   5  19
ATOM     19  C   UNL     1     -36.784  20.210   1.696  0.00  0.00    +0.006 C 
BRANCH  19  20
ATOM     20  N   UNL     1     -36.503  20.430   0.285  0.00  0.00    +0.390 N 
ATOM     21  H   UNL     1     -37.183  19.914  -0.275  0.00  0.00    -0.084 HD
ATOM     22  H   UNL     1     -36.566  21.430   0.092  0.00  0.00    -0.084 HD
BRANCH  20  23
ATOM     23  C   UNL     1     -35.162  19.975  -0.057  0.00  0.00    -0.076 C 
BRANCH  23  24
ATOM     24  C   UNL     1     -34.312  19.781   1.200  0.00  0.00    +0.003 C 
BRANCH  24  25
ATOM     25  C   UNL     1     -32.895  19.395   0.856  0.00  0.00    -0.024 C 
ATOM     26  C   UNL     1     -32.116  20.264   0.107  0.00  0.00    -0.004 C 
ATOM     27  C   UNL     1     -32.395  18.178   1.294  0.00  0.00    -0.004 C 
ATOM     28  C   UNL     1     -30.805  19.907  -0.212  0.00  0.00    -0.000 C 
ATOM     29  C   UNL     1     -31.084  17.821   0.976  0.00  0.00    -0.000 C 
ATOM     30  C   UNL     1     -30.289  18.686   0.223  0.00  0.00    -0.000 C 
ENDBRANCH  24  25
ENDBRANCH  23  24
ENDBRANCH  20  23
ENDBRANCH  19  20
ENDBRANCH   5  19
TORSDOF 9
ENDMDL
MODEL 8
REMARK VINA RESULT:      -5.9      1.758      3.430
REMARK  Name = 197538
REMARK  9 active torsions:
REMARK  status: ('A' for Active; 'I' for Inactive)
REMARK    1  A    between atoms: C_4  and  C_7
REMARK    2  A    between atoms: C_5  and  C_19
REMARK    3  A    between atoms: C_7  and  N_9
REMARK    4  A    between atoms: C_7  and  C_13
REMARK    5  A    between atoms: C_13  and  C_16
REMARK    6  A    between atoms: C_19  and  N_20
REMARK    7  A    between atoms: N_20  and  C_23
REMARK    8  A    between atoms: C_23  and  C_24
REMARK    9  A    between atoms: C_24  and  C_25
REMARK                            x       y       z     vdW  Elec       q    Type
REMARK                         _______ _______ _______ _____ _____    ______ ____
ROOT
ATOM      1  O   UNL     1     -36.358  25.461   5.682  0.00  0.00    -0.273 OA
ATOM      2  O   UNL     1     -35.651  22.800   6.209  0.00  0.00    -0.277 OA
ATOM      3  N   UNL     1     -35.978  23.775   4.116  0.00  0.00    -0.256 N 
ATOM      4  C   UNL     1     -36.299  25.075   4.516  0.00  0.00    +0.246 C 
ATOM      5  C   UNL     1     -35.676  22.723   4.983  0.00  0.00    +0.207 C 
ATOM      6  H   UNL     1     -35.964  23.587   3.150  0.00  0.00    +0.157 HD
ENDROOT
BRANCH   4   7
ATOM      7  C   UNL     1     -36.637  25.968   3.328  0.00  0.00    +0.158 C 
BRANCH   7   9
ATOM      8  O   UNL     1     -34.541  27.879   3.948  0.00  0.00    -0.275 OA
ATOM      9  N   UNL     1     -35.423  26.207   2.588  0.00  0.00    -0.298 N 
ATOM     10  C   UNL     1     -34.476  27.147   2.964  0.00  0.00    +0.223 C 
ATOM     11  C   UNL     1     -33.295  27.175   2.031  0.00  0.00    +0.095 C 
ATOM     12  H   UNL     1     -35.260  25.678   1.775  0.00  0.00    +0.150 HD
ENDBRANCH   7   9
BRANCH   7  13
ATOM     13  C   UNL     1     -37.708  25.320   2.451  0.00  0.00    +0.114 C 
BRANCH  13  16
ATOM     14  O   UNL     1     -39.654  26.737   2.452  0.00  0.00    -0.275 OA
ATOM     15  N   UNL     1     -39.671  24.860   3.786  0.00  0.00    -0.329 N 
ATOM     16  C   UNL     1     -39.099  25.729   2.884  0.00  0.00    +0.222 C 
ATOM     17  H   UNL     1     -40.576  25.036   4.132  0.00  0.00    +0.145 HD
ATOM     18  H   UNL     1     -39.175  24.064   4.085  0.00  0.00    +0.145 HD
ENDBRANCH  13  16
ENDBRANCH   7  13
ENDBRANCH   4   7
BRANCH   5  19
ATOM     19  C   UNL     1     -35.390  21.447   4.216  0.00  0.00    +0.006 C 
BRANCH  19  20
ATOM     20  N   UNL     1     -36.273  21.356   3.063  0.00  0.00    +0.390 N 
ATOM     21  H   UNL     1     -36.880  20.542   3.171  0.00  0.00    -0.084 HD
ATOM     22  H   UNL     1     -36.829  22.210   3.010  0.00  0.00    -0.084 HD
BRANCH  20  23
ATOM     23  C   UNL     1     -35.510  21.222   1.830  0.00  0.00    -0.076 C 
BRANCH  23  24
ATOM     24  C   UNL     1     -35.196  19.754   1.537  0.00  0.00    +0.003 C 
BRANCH  24  25
ATOM     25  C   UNL     1     -33.765  19.571   1.096  0.00  0.00    -0.024 C 
ATOM     26  C   UNL     1     -33.090  18.410   1.442  0.00  0.00    -0.004 C 
ATOM     27  C   UNL     1     -33.149  20.565   0.351  0.00  0.00    -0.004 C 
ATOM     28  C   UNL     1     -31.766  18.240   1.033  0.00  0.00    -0.000 C 
ATOM     29  C   UNL     1     -31.826  20.396  -0.057  0.00  0.00    -0.000 C 
ATOM     30  C   UNL     1     -31.134  19.233   0.284  0.00  0.00    -0.000 C 
ENDBRANCH  24  25
ENDBRANCH  23  24
ENDBRANCH  20  23
ENDBRANCH  19  20
ENDBRANCH   5  19
TORSDOF 9
ENDMDL
MODEL 9
REMARK VINA RESULT:      -5.9      2.103      3.288
REMARK  Name = 197538
REMARK  9 active torsions:
REMARK  status: ('A' for Active; 'I' for Inactive)
REMARK    1  A    between atoms: C_4  and  C_7
REMARK    2  A    between atoms: C_5  and  C_19
REMARK    3  A    between atoms: C_7  and  N_9
REMARK    4  A    between atoms: C_7  and  C_13
REMARK    5  A    between atoms: C_13  and  C_16
REMARK    6  A    between atoms: C_19  and  N_20
REMARK    7  A    between atoms: N_20  and  C_23
REMARK    8  A    between atoms: C_23  and  C_24
REMARK    9  A    between atoms: C_24  and  C_25
REMARK                            x       y       z     vdW  Elec       q    Type
REMARK                         _______ _______ _______ _____ _____    ______ ____
ROOT
ATOM      1  O   UNL     1     -35.250  23.154   6.166  0.00  0.00    -0.273 OA
ATOM      2  O   UNL     1     -35.075  20.716   4.794  0.00  0.00    -0.277 OA
ATOM      3  N   UNL     1     -35.774  22.765   3.928  0.00  0.00    -0.256 N 
ATOM      4  C   UNL     1     -35.639  23.556   5.071  0.00  0.00    +0.246 C 
ATOM      5  C   UNL     1     -35.486  21.400   3.860  0.00  0.00    +0.207 C 
ATOM      6  H   UNL     1     -36.097  23.203   3.107  0.00  0.00    +0.157 HD
ENDROOT
BRANCH   4   7
ATOM      7  C   UNL     1     -36.094  24.990   4.828  0.00  0.00    +0.158 C 
BRANCH   7   9
ATOM      8  O   UNL     1     -34.001  26.520   6.135  0.00  0.00    -0.275 OA
ATOM      9  N   UNL     1     -35.010  25.704   4.201  0.00  0.00    -0.298 N 
ATOM     10  C   UNL     1     -34.053  26.411   4.913  0.00  0.00    +0.223 C 
ATOM     11  C   UNL     1     -33.021  27.041   4.016  0.00  0.00    +0.095 C 
ATOM     12  H   UNL     1     -34.946  25.690   3.220  0.00  0.00    +0.150 HD
ENDBRANCH   7   9
BRANCH   7  13
ATOM     13  C   UNL     1     -37.354  25.019   3.964  0.00  0.00    +0.114 C 
BRANCH  13  16
ATOM     14  O   UNL     1     -36.396  24.902   1.758  0.00  0.00    -0.275 OA
ATOM     15  N   UNL     1     -37.614  26.774   2.320  0.00  0.00    -0.329 N 
ATOM     16  C   UNL     1     -37.059  25.539   2.573  0.00  0.00    +0.222 C 
ATOM     17  H   UNL     1     -37.481  27.203   1.444  0.00  0.00    +0.145 HD
ATOM     18  H   UNL     1     -38.143  27.227   3.015  0.00  0.00    +0.145 HD
ENDBRANCH  13  16
ENDBRANCH   7  13
ENDBRANCH   4   7
BRANCH   5  19
ATOM     19  C   UNL     1     -35.759  20.851   2.473  0.00  0.00    +0.006 C 
BRANCH  19  20
ATOM     20  N   UNL     1     -34.832  21.441   1.518  0.00  0.00    +0.390 N 
ATOM     21  H   UNL     1     -35.306  22.190   1.013  0.00  0.00    -0.084 HD
ATOM     22  H   UNL     1     -34.028  21.807   2.028  0.00  0.00    -0.084 HD
BRANCH  20  23
ATOM     23  C   UNL     1     -34.362  20.446   0.564  0.00  0.00    -0.076 C 
BRANCH  23  24
ATOM     24  C   UNL     1     -33.645  19.299   1.278  0.00  0.00    +0.003 C 
BRANCH  24  25
ATOM     25  C   UNL     1     -32.225  19.146   0.792  0.00  0.00    -0.024 C 
ATOM     26  C   UNL     1     -31.499  18.021   1.155  0.00  0.00    -0.004 C 
ATOM     27  C   UNL     1     -31.670  20.132  -0.009  0.00  0.00    -0.004 C 
ATOM     28  C   UNL     1     -30.186  17.880   0.706  0.00  0.00    -0.000 C 
ATOM     29  C   UNL     1     -30.356  19.990  -0.458  0.00  0.00    -0.000 C 
ATOM     30  C   UNL     1     -29.614  18.864  -0.101  0.00  0.00    -0.000 C 
ENDBRANCH  24  25
ENDBRANCH  23  24
ENDBRANCH  20  23
ENDBRANCH  19  20
ENDBRANCH   5  19
TORSDOF 9
ENDMDL
