MODEL 1
REMARK VINA RESULT:      -6.3      0.000      0.000
REMARK  Name = 5379096
REMARK  6 active torsions:
REMARK  status: ('A' for Active; 'I' for Inactive)
REMARK    1  A    between atoms: C_5  and  C_12
REMARK    2  A    between atoms: C_6  and  O_24
REMARK    3  A    between atoms: C_10  and  O_22
REMARK    4  A    between atoms: C_11  and  O_26
REMARK    5  A    between atoms: C_15  and  O_18
REMARK    6  A    between atoms: C_17  and  O_20
REMARK                            x       y       z     vdW  Elec       q    Type
REMARK                         _______ _______ _______ _____ _____    ______ ____
ROOT
ATOM      1  O   UNL     1     -36.184  25.916   4.008  0.00  0.00    -0.453 OA
ATOM      2  O   UNL     1     -35.553  21.904   3.683  0.00  0.00    -0.286 OA
ATOM      3  C   UNL     1     -37.011  23.731   3.342  0.00  0.00    +0.110 C 
ATOM      4  C   UNL     1     -37.160  25.110   3.480  0.00  0.00    +0.154 C 
ATOM      5  C   UNL     1     -35.000  25.328   4.429  0.00  0.00    +0.149 C 
ATOM      6  C   UNL     1     -38.040  22.960   2.795  0.00  0.00    +0.177 C 
ATOM      7  C   UNL     1     -35.753  23.106   3.778  0.00  0.00    +0.205 C 
ATOM      8  C   UNL     1     -34.735  24.016   4.342  0.00  0.00    +0.080 C 
ATOM      9  C   UNL     1     -38.343  25.728   3.072  0.00  0.00    +0.078 C 
ATOM     10  C   UNL     1     -39.222  23.581   2.388  0.00  0.00    +0.206 C 
ATOM     11  C   UNL     1     -39.374  24.961   2.526  0.00  0.00    +0.174 C 
ENDROOT
BRANCH   5  12
ATOM     12  C   UNL     1     -34.017  26.286   4.975  0.00  0.00    +0.038 C 
ATOM     13  C   UNL     1     -33.413  27.226   4.136  0.00  0.00    +0.043 C 
ATOM     14  C   UNL     1     -33.688  26.256   6.332  0.00  0.00    +0.006 C 
ATOM     15  C   UNL     1     -32.485  28.131   4.652  0.00  0.00    +0.172 C 
ATOM     16  C   UNL     1     -32.760  27.161   6.848  0.00  0.00    +0.040 C 
ATOM     17  C   UNL     1     -32.158  28.098   6.008  0.00  0.00    +0.168 C 
BRANCH  15  18
ATOM     18  O   UNL     1     -31.904  29.041   3.822  0.00  0.00    -0.468 OA
ATOM     19  C   UNL     1     -32.679  30.186   3.471  0.00  0.00    +0.253 C 
ENDBRANCH  15  18
BRANCH  17  20
ATOM     20  O   UNL     1     -31.253  28.976   6.523  0.00  0.00    -0.503 OA
ATOM     21  H   UNL     1     -31.538  29.653   7.106  0.00  0.00    +0.292 HD
ENDBRANCH  17  20
ENDBRANCH   5  12
BRANCH  10  22
ATOM     22  O   UNL     1     -40.234  22.838   1.854  0.00  0.00    -0.465 OA
ATOM     23  C   UNL     1     -40.234  22.671   0.438  0.00  0.00    +0.253 C 
ENDBRANCH  10  22
BRANCH   6  24
ATOM     24  O   UNL     1     -37.929  21.610   2.644  0.00  0.00    -0.503 OA
ATOM     25  H   UNL     1     -38.395  21.035   3.220  0.00  0.00    +0.292 HD
ENDBRANCH   6  24
BRANCH  11  26
ATOM     26  O   UNL     1     -40.524  25.574   2.132  0.00  0.00    -0.503 OA
ATOM     27  H   UNL     1     -41.321  25.422   2.600  0.00  0.00    +0.292 HD
ENDBRANCH  11  26
TORSDOF 6
ENDMDL
MODEL 2
REMARK VINA RESULT:      -6.2      2.785      6.790
REMARK  Name = 5379096
REMARK  6 active torsions:
REMARK  status: ('A' for Active; 'I' for Inactive)
REMARK    1  A    between atoms: C_5  and  C_12
REMARK    2  A    between atoms: C_6  and  O_24
REMARK    3  A    between atoms: C_10  and  O_22
REMARK    4  A    between atoms: C_11  and  O_26
REMARK    5  A    between atoms: C_15  and  O_18
REMARK    6  A    between atoms: C_17  and  O_20
REMARK                            x       y       z     vdW  Elec       q    Type
REMARK                         _______ _______ _______ _____ _____    ______ ____
ROOT
ATOM      1  O   UNL     1     -34.922  26.251   3.261  0.00  0.00    -0.453 OA
ATOM      2  O   UNL     1     -38.321  27.213   1.232  0.00  0.00    -0.286 OA
ATOM      3  C   UNL     1     -36.157  27.859   1.924  0.00  0.00    +0.110 C 
ATOM      4  C   UNL     1     -35.023  27.466   2.633  0.00  0.00    +0.154 C 
ATOM      5  C   UNL     1     -35.999  25.380   3.192  0.00  0.00    +0.149 C 
ATOM      6  C   UNL     1     -36.203  29.110   1.303  0.00  0.00    +0.177 C 
ATOM      7  C   UNL     1     -37.297  26.934   1.840  0.00  0.00    +0.205 C 
ATOM      8  C   UNL     1     -37.139  25.641   2.534  0.00  0.00    +0.080 C 
ATOM      9  C   UNL     1     -33.926  28.324   2.726  0.00  0.00    +0.078 C 
ATOM     10  C   UNL     1     -35.105  29.966   1.398  0.00  0.00    +0.206 C 
ATOM     11  C   UNL     1     -33.969  29.574   2.109  0.00  0.00    +0.174 C 
ENDROOT
BRANCH   5  12
ATOM     12  C   UNL     1     -35.782  24.100   3.895  0.00  0.00    +0.038 C 
ATOM     13  C   UNL     1     -35.762  22.900   3.180  0.00  0.00    +0.043 C 
ATOM     14  C   UNL     1     -35.594  24.084   5.280  0.00  0.00    +0.006 C 
ATOM     15  C   UNL     1     -35.555  21.691   3.844  0.00  0.00    +0.172 C 
ATOM     16  C   UNL     1     -35.388  22.875   5.945  0.00  0.00    +0.040 C 
ATOM     17  C   UNL     1     -35.370  21.679   5.227  0.00  0.00    +0.168 C 
BRANCH  15  18
ATOM     18  O   UNL     1     -35.539  20.530   3.134  0.00  0.00    -0.468 OA
ATOM     19  C   UNL     1     -36.360  20.470   1.969  0.00  0.00    +0.253 C 
ENDBRANCH  15  18
BRANCH  17  20
ATOM     20  O   UNL     1     -35.167  20.505   5.888  0.00  0.00    -0.503 OA
ATOM     21  H   UNL     1     -35.359  20.444   6.803  0.00  0.00    +0.292 HD
ENDBRANCH  17  20
ENDBRANCH   5  12
BRANCH  10  22
ATOM     22  O   UNL     1     -35.139  31.190   0.797  0.00  0.00    -0.465 OA
ATOM     23  C   UNL     1     -35.628  32.278   1.578  0.00  0.00    +0.253 C 
ENDBRANCH  10  22
BRANCH   6  24
ATOM     24  O   UNL     1     -37.294  29.528   0.601  0.00  0.00    -0.503 OA
ATOM     25  H   UNL     1     -37.546  30.431   0.621  0.00  0.00    +0.292 HD
ENDBRANCH   6  24
BRANCH  11  26
ATOM     26  O   UNL     1     -32.893  30.404   2.207  0.00  0.00    -0.503 OA
ATOM     27  H   UNL     1     -32.026  30.059   2.125  0.00  0.00    +0.292 HD
ENDBRANCH  11  26
TORSDOF 6
ENDMDL
MODEL 3
REMARK VINA RESULT:      -6.0      2.292      4.475
REMARK  Name = 5379096
REMARK  6 active torsions:
REMARK  status: ('A' for Active; 'I' for Inactive)
REMARK    1  A    between atoms: C_5  and  C_12
REMARK    2  A    between atoms: C_6  and  O_24
REMARK    3  A    between atoms: C_10  and  O_22
REMARK    4  A    between atoms: C_11  and  O_26
REMARK    5  A    between atoms: C_15  and  O_18
REMARK    6  A    between atoms: C_17  and  O_20
REMARK                            x       y       z     vdW  Elec       q    Type
REMARK                         _______ _______ _______ _____ _____    ______ ____
ROOT
ATOM      1  O   UNL     1     -33.064  26.992   5.243  0.00  0.00    -0.453 OA
ATOM      2  O   UNL     1     -35.401  28.385   2.210  0.00  0.00    -0.286 OA
ATOM      3  C   UNL     1     -35.033  26.721   3.847  0.00  0.00    +0.110 C 
ATOM      4  C   UNL     1     -34.191  26.302   4.876  0.00  0.00    +0.154 C 
ATOM      5  C   UNL     1     -32.747  28.152   4.554  0.00  0.00    +0.149 C 
ATOM      6  C   UNL     1     -36.170  25.979   3.517  0.00  0.00    +0.177 C 
ATOM      7  C   UNL     1     -34.705  27.957   3.121  0.00  0.00    +0.205 C 
ATOM      8  C   UNL     1     -33.481  28.661   3.552  0.00  0.00    +0.080 C 
ATOM      9  C   UNL     1     -34.481  25.134   5.582  0.00  0.00    +0.078 C 
ATOM     10  C   UNL     1     -36.456  24.810   4.225  0.00  0.00    +0.206 C 
ATOM     11  C   UNL     1     -35.614  24.388   5.255  0.00  0.00    +0.174 C 
ENDROOT
BRANCH   5  12
ATOM     12  C   UNL     1     -31.518  28.818   5.034  0.00  0.00    +0.038 C 
ATOM     13  C   UNL     1     -30.652  28.151   5.903  0.00  0.00    +0.043 C 
ATOM     14  C   UNL     1     -31.217  30.118   4.619  0.00  0.00    +0.006 C 
ATOM     15  C   UNL     1     -29.492  28.779   6.356  0.00  0.00    +0.172 C 
ATOM     16  C   UNL     1     -30.057  30.746   5.072  0.00  0.00    +0.040 C 
ATOM     17  C   UNL     1     -29.195  30.077   5.941  0.00  0.00    +0.168 C 
BRANCH  15  18
ATOM     18  O   UNL     1     -28.658  28.115   7.203  0.00  0.00    -0.468 OA
ATOM     19  C   UNL     1     -27.877  27.058   6.650  0.00  0.00    +0.253 C 
ENDBRANCH  15  18
BRANCH  17  20
ATOM     20  O   UNL     1     -28.065  30.701   6.375  0.00  0.00    -0.503 OA
ATOM     21  H   UNL     1     -27.456  31.052   5.756  0.00  0.00    +0.292 HD
ENDBRANCH  17  20
ENDBRANCH   5  12
BRANCH  10  22
ATOM     22  O   UNL     1     -37.563  24.076   3.911  0.00  0.00    -0.465 OA
ATOM     23  C   UNL     1     -37.393  23.031   2.956  0.00  0.00    +0.253 C 
ENDBRANCH  10  22
BRANCH   6  24
ATOM     24  O   UNL     1     -37.016  26.357   2.518  0.00  0.00    -0.503 OA
ATOM     25  H   UNL     1     -37.364  27.228   2.504  0.00  0.00    +0.292 HD
ENDBRANCH   6  24
BRANCH  11  26
ATOM     26  O   UNL     1     -35.887  23.249   5.950  0.00  0.00    -0.503 OA
ATOM     27  H   UNL     1     -35.240  22.575   6.018  0.00  0.00    +0.292 HD
ENDBRANCH  11  26
TORSDOF 6
ENDMDL
MODEL 4
REMARK VINA RESULT:      -6.0      5.027      8.367
REMARK  Name = 5379096
REMARK  6 active torsions:
REMARK  status: ('A' for Active; 'I' for Inactive)
REMARK    1  A    between atoms: C_5  and  C_12
REMARK    2  A    between atoms: C_6  and  O_24
REMARK    3  A    between atoms: C_10  and  O_22
REMARK    4  A    between atoms: C_11  and  O_26
REMARK    5  A    between atoms: C_15  and  O_18
REMARK    6  A    between atoms: C_17  and  O_20
REMARK                            x       y       z     vdW  Elec       q    Type
REMARK                         _______ _______ _______ _____ _____    ______ ____
ROOT
ATOM      1  O   UNL     1     -34.672  20.068   2.560  0.00  0.00    -0.453 OA
ATOM      2  O   UNL     1     -36.030  22.964   0.036  0.00  0.00    -0.286 OA
ATOM      3  C   UNL     1     -35.711  22.244   2.263  0.00  0.00    +0.110 C 
ATOM      4  C   UNL     1     -35.226  21.215   3.069  0.00  0.00    +0.154 C 
ATOM      5  C   UNL     1     -34.599  19.926   1.182  0.00  0.00    +0.149 C 
ATOM      6  C   UNL     1     -36.265  23.391   2.838  0.00  0.00    +0.177 C 
ATOM      7  C   UNL     1     -35.627  22.100   0.802  0.00  0.00    +0.205 C 
ATOM      8  C   UNL     1     -35.024  20.847   0.304  0.00  0.00    +0.080 C 
ATOM      9  C   UNL     1     -35.292  21.328   4.458  0.00  0.00    +0.078 C 
ATOM     10  C   UNL     1     -36.330  23.500   4.228  0.00  0.00    +0.206 C 
ATOM     11  C   UNL     1     -35.845  22.471   5.036  0.00  0.00    +0.174 C 
ENDROOT
BRANCH   5  12
ATOM     12  C   UNL     1     -33.980  18.659   0.743  0.00  0.00    +0.038 C 
ATOM     13  C   UNL     1     -32.651  18.377   1.069  0.00  0.00    +0.043 C 
ATOM     14  C   UNL     1     -34.721  17.737  -0.000  0.00  0.00    +0.006 C 
ATOM     15  C   UNL     1     -32.067  17.180   0.655  0.00  0.00    +0.172 C 
ATOM     16  C   UNL     1     -34.137  16.540  -0.415  0.00  0.00    +0.040 C 
ATOM     17  C   UNL     1     -32.810  16.262  -0.088  0.00  0.00    +0.168 C 
BRANCH  15  18
ATOM     18  O   UNL     1     -30.771  16.919   0.980  0.00  0.00    -0.468 OA
ATOM     19  C   UNL     1     -29.808  17.921   0.661  0.00  0.00    +0.253 C 
ENDBRANCH  15  18
BRANCH  17  20
ATOM     20  O   UNL     1     -32.251  15.090  -0.499  0.00  0.00    -0.503 OA
ATOM     21  H   UNL     1     -32.787  14.328  -0.608  0.00  0.00    +0.292 HD
ENDBRANCH  17  20
ENDBRANCH   5  12
BRANCH  10  22
ATOM     22  O   UNL     1     -36.869  24.614   4.800  0.00  0.00    -0.465 OA
ATOM     23  C   UNL     1     -35.966  25.658   5.158  0.00  0.00    +0.253 C 
ENDBRANCH  10  22
BRANCH   6  24
ATOM     24  O   UNL     1     -36.749  24.416   2.082  0.00  0.00    -0.503 OA
ATOM     25  H   UNL     1     -36.359  24.611   1.252  0.00  0.00    +0.292 HD
ENDBRANCH   6  24
BRANCH  11  26
ATOM     26  O   UNL     1     -35.906  22.570   6.393  0.00  0.00    -0.503 OA
ATOM     27  H   UNL     1     -36.002  21.798   6.916  0.00  0.00    +0.292 HD
ENDBRANCH  11  26
TORSDOF 6
ENDMDL
MODEL 5
REMARK VINA RESULT:      -6.0      4.283      7.233
REMARK  Name = 5379096
REMARK  6 active torsions:
REMARK  status: ('A' for Active; 'I' for Inactive)
REMARK    1  A    between atoms: C_5  and  C_12
REMARK    2  A    between atoms: C_6  and  O_24
REMARK    3  A    between atoms: C_10  and  O_22
REMARK    4  A    between atoms: C_11  and  O_26
REMARK    5  A    between atoms: C_15  and  O_18
REMARK    6  A    between atoms: C_17  and  O_20
REMARK                            x       y       z     vdW  Elec       q    Type
REMARK                         _______ _______ _______ _____ _____    ______ ____
ROOT
ATOM      1  O   UNL     1     -36.551  21.744   0.983  0.00  0.00    -0.453 OA
ATOM      2  O   UNL     1     -36.156  22.841   4.887  0.00  0.00    -0.286 OA
ATOM      3  C   UNL     1     -37.088  23.304   2.766  0.00  0.00    +0.110 C 
ATOM      4  C   UNL     1     -37.182  22.871   1.445  0.00  0.00    +0.154 C 
ATOM      5  C   UNL     1     -35.780  21.009   1.871  0.00  0.00    +0.149 C 
ATOM      6  C   UNL     1     -37.755  24.460   3.181  0.00  0.00    +0.177 C 
ATOM      7  C   UNL     1     -36.280  22.521   3.713  0.00  0.00    +0.205 C 
ATOM      8  C   UNL     1     -35.619  21.319   3.167  0.00  0.00    +0.080 C 
ATOM      9  C   UNL     1     -37.945  23.595   0.527  0.00  0.00    +0.078 C 
ATOM     10  C   UNL     1     -38.516  25.181   2.260  0.00  0.00    +0.206 C 
ATOM     11  C   UNL     1     -38.611  24.751   0.936  0.00  0.00    +0.174 C 
ENDROOT
BRANCH   5  12
ATOM     12  C   UNL     1     -35.152  19.814   1.273  0.00  0.00    +0.038 C 
ATOM     13  C   UNL     1     -33.891  19.394   1.703  0.00  0.00    +0.043 C 
ATOM     14  C   UNL     1     -35.817  19.098   0.274  0.00  0.00    +0.006 C 
ATOM     15  C   UNL     1     -33.298  18.265   1.138  0.00  0.00    +0.172 C 
ATOM     16  C   UNL     1     -35.224  17.969  -0.292  0.00  0.00    +0.040 C 
ATOM     17  C   UNL     1     -33.964  17.553   0.140  0.00  0.00    +0.168 C 
BRANCH  15  18
ATOM     18  O   UNL     1     -32.069  17.868   1.568  0.00  0.00    -0.468 OA
ATOM     19  C   UNL     1     -30.941  18.337   0.832  0.00  0.00    +0.253 C 
ENDBRANCH  15  18
BRANCH  17  20
ATOM     20  O   UNL     1     -33.396  16.449  -0.419  0.00  0.00    -0.503 OA
ATOM     21  H   UNL     1     -32.655  16.539  -0.986  0.00  0.00    +0.292 HD
ENDBRANCH  17  20
ENDBRANCH   5  12
BRANCH  10  22
ATOM     22  O   UNL     1     -39.170  26.313   2.652  0.00  0.00    -0.465 OA
ATOM     23  C   UNL     1     -40.534  26.167   3.041  0.00  0.00    +0.253 C 
ENDBRANCH  10  22
BRANCH   6  24
ATOM     24  O   UNL     1     -37.686  24.913   4.464  0.00  0.00    -0.503 OA
ATOM     25  H   UNL     1     -37.639  25.834   4.634  0.00  0.00    +0.292 HD
ENDBRANCH   6  24
BRANCH  11  26
ATOM     26  O   UNL     1     -39.351  25.450   0.032  0.00  0.00    -0.503 OA
ATOM     27  H   UNL     1     -38.940  26.085  -0.521  0.00  0.00    +0.292 HD
ENDBRANCH  11  26
TORSDOF 6
ENDMDL
MODEL 6
REMARK VINA RESULT:      -6.0      4.250      6.656
REMARK  Name = 5379096
REMARK  6 active torsions:
REMARK  status: ('A' for Active; 'I' for Inactive)
REMARK    1  A    between atoms: C_5  and  C_12
REMARK    2  A    between atoms: C_6  and  O_24
REMARK    3  A    between atoms: C_10  and  O_22
REMARK    4  A    between atoms: C_11  and  O_26
REMARK    5  A    between atoms: C_15  and  O_18
REMARK    6  A    between atoms: C_17  and  O_20
REMARK                            x       y       z     vdW  Elec       q    Type
REMARK                         _______ _______ _______ _____ _____    ______ ____
ROOT
ATOM      1  O   UNL     1     -35.081  21.017   2.270  0.00  0.00    -0.453 OA
ATOM      2  O   UNL     1     -38.027  19.863  -0.298  0.00  0.00    -0.286 OA
ATOM      3  C   UNL     1     -35.873  19.457   0.584  0.00  0.00    +0.110 C 
ATOM      4  C   UNL     1     -34.908  19.906   1.484  0.00  0.00    +0.154 C 
ATOM      5  C   UNL     1     -36.267  21.726   2.157  0.00  0.00    +0.149 C 
ATOM      6  C   UNL     1     -35.642  18.318  -0.191  0.00  0.00    +0.177 C 
ATOM      7  C   UNL     1     -37.136  20.202   0.469  0.00  0.00    +0.205 C 
ATOM      8  C   UNL     1     -37.273  21.391   1.334  0.00  0.00    +0.080 C 
ATOM      9  C   UNL     1     -33.702  19.216   1.614  0.00  0.00    +0.078 C 
ATOM     10  C   UNL     1     -34.434  17.631  -0.059  0.00  0.00    +0.206 C 
ATOM     11  C   UNL     1     -33.466  18.079   0.841  0.00  0.00    +0.174 C 
ENDROOT
BRANCH   5  12
ATOM     12  C   UNL     1     -36.352  22.898   3.052  0.00  0.00    +0.038 C 
ATOM     13  C   UNL     1     -37.159  23.986   2.709  0.00  0.00    +0.043 C 
ATOM     14  C   UNL     1     -35.627  22.923   4.245  0.00  0.00    +0.006 C 
ATOM     15  C   UNL     1     -37.240  25.092   3.555  0.00  0.00    +0.172 C 
ATOM     16  C   UNL     1     -35.707  24.029   5.091  0.00  0.00    +0.040 C 
ATOM     17  C   UNL     1     -36.513  25.114   4.746  0.00  0.00    +0.168 C 
BRANCH  15  18
ATOM     18  O   UNL     1     -38.030  26.145   3.207  0.00  0.00    -0.468 OA
ATOM     19  C   UNL     1     -39.188  25.857   2.427  0.00  0.00    +0.253 C 
ENDBRANCH  15  18
BRANCH  17  20
ATOM     20  O   UNL     1     -36.584  26.188   5.580  0.00  0.00    -0.503 OA
ATOM     21  H   UNL     1     -36.080  26.957   5.397  0.00  0.00    +0.292 HD
ENDBRANCH  17  20
ENDBRANCH   5  12
BRANCH  10  22
ATOM     22  O   UNL     1     -34.196  16.518  -0.811  0.00  0.00    -0.465 OA
ATOM     23  C   UNL     1     -34.753  15.291  -0.343  0.00  0.00    +0.253 C 
ENDBRANCH  10  22
BRANCH   6  24
ATOM     24  O   UNL     1     -36.562  17.851  -1.081  0.00  0.00    -0.503 OA
ATOM     25  H   UNL     1     -36.500  16.971  -1.401  0.00  0.00    +0.292 HD
ENDBRANCH   6  24
BRANCH  11  26
ATOM     26  O   UNL     1     -32.285  17.414   0.975  0.00  0.00    -0.503 OA
ATOM     27  H   UNL     1     -32.171  16.796   1.670  0.00  0.00    +0.292 HD
ENDBRANCH  11  26
TORSDOF 6
ENDMDL
MODEL 7
REMARK VINA RESULT:      -6.0      1.419      2.736
REMARK  Name = 5379096
REMARK  6 active torsions:
REMARK  status: ('A' for Active; 'I' for Inactive)
REMARK    1  A    between atoms: C_5  and  C_12
REMARK    2  A    between atoms: C_6  and  O_24
REMARK    3  A    between atoms: C_10  and  O_22
REMARK    4  A    between atoms: C_11  and  O_26
REMARK    5  A    between atoms: C_15  and  O_18
REMARK    6  A    between atoms: C_17  and  O_20
REMARK                            x       y       z     vdW  Elec       q    Type
REMARK                         _______ _______ _______ _____ _____    ______ ____
ROOT
ATOM      1  O   UNL     1     -34.874  24.380   4.092  0.00  0.00    -0.453 OA
ATOM      2  O   UNL     1     -38.112  26.109   2.325  0.00  0.00    -0.286 OA
ATOM      3  C   UNL     1     -36.922  24.126   2.812  0.00  0.00    +0.110 C 
ATOM      4  C   UNL     1     -35.794  23.600   3.439  0.00  0.00    +0.154 C 
ATOM      5  C   UNL     1     -35.073  25.751   4.122  0.00  0.00    +0.149 C 
ATOM      6  C   UNL     1     -37.828  23.284   2.162  0.00  0.00    +0.177 C 
ATOM      7  C   UNL     1     -37.142  25.581   2.850  0.00  0.00    +0.205 C 
ATOM      8  C   UNL     1     -36.122  26.375   3.563  0.00  0.00    +0.080 C 
ATOM      9  C   UNL     1     -35.564  22.224   3.419  0.00  0.00    +0.078 C 
ATOM     10  C   UNL     1     -37.594  21.908   2.144  0.00  0.00    +0.206 C 
ATOM     11  C   UNL     1     -36.464  21.379   2.770  0.00  0.00    +0.174 C 
ENDROOT
BRANCH   5  12
ATOM     12  C   UNL     1     -34.027  26.493   4.855  0.00  0.00    +0.038 C 
ATOM     13  C   UNL     1     -33.210  27.405   4.182  0.00  0.00    +0.043 C 
ATOM     14  C   UNL     1     -33.851  26.286   6.226  0.00  0.00    +0.006 C 
ATOM     15  C   UNL     1     -32.224  28.106   4.875  0.00  0.00    +0.172 C 
ATOM     16  C   UNL     1     -32.864  26.987   6.919  0.00  0.00    +0.040 C 
ATOM     17  C   UNL     1     -32.050  27.896   6.243  0.00  0.00    +0.168 C 
BRANCH  15  18
ATOM     18  O   UNL     1     -31.435  28.992   4.206  0.00  0.00    -0.468 OA
ATOM     19  C   UNL     1     -30.378  28.451   3.416  0.00  0.00    +0.253 C 
ENDBRANCH  15  18
BRANCH  17  20
ATOM     20  O   UNL     1     -31.090  28.575   6.932  0.00  0.00    -0.503 OA
ATOM     21  H   UNL     1     -30.411  28.105   7.375  0.00  0.00    +0.292 HD
ENDBRANCH  17  20
ENDBRANCH   5  12
BRANCH  10  22
ATOM     22  O   UNL     1     -38.470  21.075   1.511  0.00  0.00    -0.465 OA
ATOM     23  C   UNL     1     -38.196  20.766   0.146  0.00  0.00    +0.253 C 
ENDBRANCH  10  22
BRANCH   6  24
ATOM     24  O   UNL     1     -38.941  23.763   1.539  0.00  0.00    -0.503 OA
ATOM     25  H   UNL     1     -38.923  23.940   0.618  0.00  0.00    +0.292 HD
ENDBRANCH   6  24
BRANCH  11  26
ATOM     26  O   UNL     1     -36.229  20.037   2.756  0.00  0.00    -0.503 OA
ATOM     27  H   UNL     1     -35.836  19.638   2.004  0.00  0.00    +0.292 HD
ENDBRANCH  11  26
TORSDOF 6
ENDMDL
MODEL 8
REMARK VINA RESULT:      -5.9      2.921      8.003
REMARK  Name = 5379096
REMARK  6 active torsions:
REMARK  status: ('A' for Active; 'I' for Inactive)
REMARK    1  A    between atoms: C_5  and  C_12
REMARK    2  A    between atoms: C_6  and  O_24
REMARK    3  A    between atoms: C_10  and  O_22
REMARK    4  A    between atoms: C_11  and  O_26
REMARK    5  A    between atoms: C_15  and  O_18
REMARK    6  A    between atoms: C_17  and  O_20
REMARK                            x       y       z     vdW  Elec       q    Type
REMARK                         _______ _______ _______ _____ _____    ______ ____
ROOT
ATOM      1  O   UNL     1     -33.348  26.252   4.910  0.00  0.00    -0.453 OA
ATOM      2  O   UNL     1     -33.772  28.834   1.787  0.00  0.00    -0.286 OA
ATOM      3  C   UNL     1     -32.949  28.456   3.969  0.00  0.00    +0.110 C 
ATOM      4  C   UNL     1     -32.838  27.522   4.998  0.00  0.00    +0.154 C 
ATOM      5  C   UNL     1     -34.009  25.886   3.747  0.00  0.00    +0.149 C 
ATOM      6  C   UNL     1     -32.408  29.736   4.115  0.00  0.00    +0.177 C 
ATOM      7  C   UNL     1     -33.641  28.067   2.731  0.00  0.00    +0.205 C 
ATOM      8  C   UNL     1     -34.173  26.691   2.686  0.00  0.00    +0.080 C 
ATOM      9  C   UNL     1     -32.184  27.865   6.183  0.00  0.00    +0.078 C 
ATOM     10  C   UNL     1     -31.756  30.075   5.301  0.00  0.00    +0.206 C 
ATOM     11  C   UNL     1     -31.644  29.142   6.333  0.00  0.00    +0.174 C 
ENDROOT
BRANCH   5  12
ATOM     12  C   UNL     1     -34.512  24.497   3.755  0.00  0.00    +0.038 C 
ATOM     13  C   UNL     1     -34.764  23.835   2.551  0.00  0.00    +0.043 C 
ATOM     14  C   UNL     1     -34.736  23.840   4.967  0.00  0.00    +0.006 C 
ATOM     15  C   UNL     1     -35.238  22.523   2.559  0.00  0.00    +0.172 C 
ATOM     16  C   UNL     1     -35.210  22.528   4.976  0.00  0.00    +0.040 C 
ATOM     17  C   UNL     1     -35.462  21.870   3.771  0.00  0.00    +0.168 C 
BRANCH  15  18
ATOM     18  O   UNL     1     -35.480  21.891   1.378  0.00  0.00    -0.468 OA
ATOM     19  C   UNL     1     -34.366  21.283   0.727  0.00  0.00    +0.253 C 
ENDBRANCH  15  18
BRANCH  17  20
ATOM     20  O   UNL     1     -35.924  20.589   3.793  0.00  0.00    -0.503 OA
ATOM     21  H   UNL     1     -35.531  19.958   4.364  0.00  0.00    +0.292 HD
ENDBRANCH  17  20
ENDBRANCH   5  12
BRANCH  10  22
ATOM     22  O   UNL     1     -31.225  31.323   5.455  0.00  0.00    -0.465 OA
ATOM     23  C   UNL     1     -29.907  31.530   4.951  0.00  0.00    +0.253 C 
ENDBRANCH  10  22
BRANCH   6  24
ATOM     24  O   UNL     1     -32.498  30.674   3.130  0.00  0.00    -0.503 OA
ATOM     25  H   UNL     1     -33.279  31.185   3.039  0.00  0.00    +0.292 HD
ENDBRANCH   6  24
BRANCH  11  26
ATOM     26  O   UNL     1     -31.009  29.466   7.493  0.00  0.00    -0.503 OA
ATOM     27  H   UNL     1     -30.256  30.023   7.476  0.00  0.00    +0.292 HD
ENDBRANCH  11  26
TORSDOF 6
ENDMDL
MODEL 9
REMARK VINA RESULT:      -5.9      5.153      7.868
REMARK  Name = 5379096
REMARK  6 active torsions:
REMARK  status: ('A' for Active; 'I' for Inactive)
REMARK    1  A    between atoms: C_5  and  C_12
REMARK    2  A    between atoms: C_6  and  O_24
REMARK    3  A    between atoms: C_10  and  O_22
REMARK    4  A    between atoms: C_11  and  O_26
REMARK    5  A    between atoms: C_15  and  O_18
REMARK    6  A    between atoms: C_17  and  O_20
REMARK                            x       y       z     vdW  Elec       q    Type
REMARK                         _______ _______ _______ _____ _____    ______ ____
ROOT
ATOM      1  O   UNL     1     -34.549  20.210   1.832  0.00  0.00    -0.453 OA
ATOM      2  O   UNL     1     -36.958  18.307  -0.847  0.00  0.00    -0.286 OA
ATOM      3  C   UNL     1     -34.855  18.414   0.225  0.00  0.00    +0.110 C 
ATOM      4  C   UNL     1     -34.086  19.110   1.155  0.00  0.00    +0.154 C 
ATOM      5  C   UNL     1     -35.838  20.650   1.571  0.00  0.00    +0.149 C 
ATOM      6  C   UNL     1     -34.331  17.299  -0.433  0.00  0.00    +0.177 C 
ATOM      7  C   UNL     1     -36.227  18.872  -0.047  0.00  0.00    +0.205 C 
ATOM      8  C   UNL     1     -36.677  20.061   0.705  0.00  0.00    +0.080 C 
ATOM      9  C   UNL     1     -32.783  18.695   1.433  0.00  0.00    +0.078 C 
ATOM     10  C   UNL     1     -33.027  16.886  -0.154  0.00  0.00    +0.206 C 
ATOM     11  C   UNL     1     -32.255  17.583   0.777  0.00  0.00    +0.174 C 
ENDROOT
BRANCH   5  12
ATOM     12  C   UNL     1     -36.237  21.835   2.358  0.00  0.00    +0.038 C 
ATOM     13  C   UNL     1     -35.876  21.939   3.703  0.00  0.00    +0.043 C 
ATOM     14  C   UNL     1     -36.977  22.857   1.758  0.00  0.00    +0.006 C 
ATOM     15  C   UNL     1     -36.252  23.058   4.445  0.00  0.00    +0.172 C 
ATOM     16  C   UNL     1     -37.354  23.977   2.500  0.00  0.00    +0.040 C 
ATOM     17  C   UNL     1     -36.992  24.077   3.844  0.00  0.00    +0.168 C 
BRANCH  15  18
ATOM     18  O   UNL     1     -35.893  23.145   5.756  0.00  0.00    -0.468 OA
ATOM     19  C   UNL     1     -35.191  22.035   6.311  0.00  0.00    +0.253 C 
ENDBRANCH  15  18
BRANCH  17  20
ATOM     20  O   UNL     1     -37.366  25.175   4.558  0.00  0.00    -0.503 OA
ATOM     21  H   UNL     1     -36.940  25.374   5.368  0.00  0.00    +0.292 HD
ENDBRANCH  17  20
ENDBRANCH   5  12
BRANCH  10  22
ATOM     22  O   UNL     1     -32.504  15.800  -0.792  0.00  0.00    -0.465 OA
ATOM     23  C   UNL     1     -31.796  16.043  -2.005  0.00  0.00    +0.253 C 
ENDBRANCH  10  22
BRANCH   6  24
ATOM     24  O   UNL     1     -35.054  16.594  -1.349  0.00  0.00    -0.503 OA
ATOM     25  H   UNL     1     -34.703  15.806  -1.717  0.00  0.00    +0.292 HD
ENDBRANCH   6  24
BRANCH  11  26
ATOM     26  O   UNL     1     -30.981  17.186   1.054  0.00  0.00    -0.503 OA
ATOM     27  H   UNL     1     -30.256  17.620   0.649  0.00  0.00    +0.292 HD
ENDBRANCH  11  26
TORSDOF 6
ENDMDL
