MODEL 1
REMARK VINA RESULT:      -7.4      0.000      0.000
REMARK  Name = 54707728
REMARK  5 active torsions:
REMARK  status: ('A' for Active; 'I' for Inactive)
REMARK    1  A    between atoms: C_1  and  C_13
REMARK    2  A    between atoms: C_1  and  C_17
REMARK    3  A    between atoms: C_18  and  C_20
REMARK    4  A    between atoms: C_21  and  C_25
REMARK    5  A    between atoms: C_25  and  O_31
REMARK                            x       y       z     vdW  Elec       q    Type
REMARK                         _______ _______ _______ _____ _____    ______ ____
ROOT
ATOM      1  C   UNL     1     -45.551  26.922   3.820  0.00  0.00    +0.049 C 
ATOM      2  C   UNL     1     -46.257  25.710   4.433  0.00  0.00    +0.007 C 
ENDROOT
BRANCH   1  13
ATOM      3  O   UNL     1     -43.117  29.949   5.891  0.00  0.00    -0.343 OA
ATOM      4  O   UNL     1     -46.346  30.379   5.884  0.00  0.00    -0.327 OA
ATOM      5  O   UNL     1     -45.213  28.253   5.759  0.00  0.00    -0.334 OA
ATOM      6  O   UNL     1     -44.166  32.290   3.853  0.00  0.00    -0.291 OA
ATOM      7  C   UNL     1     -44.175  30.131   6.843  0.00  0.00    +0.171 C 
ATOM      8  C   UNL     1     -43.746  31.235   5.913  0.00  0.00    +0.204 C 
ATOM      9  C   UNL     1     -45.475  29.436   6.528  0.00  0.00    +0.213 C 
ATOM     10  C   UNL     1     -45.867  30.733   4.592  0.00  0.00    +0.179 C 
ATOM     11  C   UNL     1     -45.687  29.475   3.715  0.00  0.00    +0.062 C 
ATOM     12  C   UNL     1     -44.564  31.513   4.713  0.00  0.00    +0.207 C 
ATOM     13  C   UNL     1     -45.962  28.201   4.540  0.00  0.00    +0.124 C 
ATOM     14  C   UNL     1     -43.667  30.152   8.241  0.00  0.00    +0.038 C 
ATOM     15  C   UNL     1     -46.175  28.992   7.810  0.00  0.00    +0.064 C 
ATOM     16  C   UNL     1     -46.575  29.560   2.471  0.00  0.00    +0.005 C 
ENDBRANCH   1  13
BRANCH   1  17
ATOM     17  C   UNL     1     -44.051  26.736   3.903  0.00  0.00    -0.028 C 
ATOM     18  C   UNL     1     -43.135  26.789   2.912  0.00  0.00    -0.026 C 
ATOM     19  C   UNL     1     -43.466  27.074   1.470  0.00  0.00    +0.031 C 
BRANCH  18  20
ATOM     20  C   UNL     1     -41.726  26.561   3.251  0.00  0.00    -0.001 C 
ATOM     21  C   UNL     1     -40.901  25.660   2.689  0.00  0.00    +0.037 C 
BRANCH  21  25
ATOM     22  O   UNL     1     -40.606  22.995   1.798  0.00  0.00    -0.289 OA
ATOM     23  O   UNL     1     -36.671  24.775   3.681  0.00  0.00    -0.270 OA
ATOM     24  N   UNL     1     -37.270  22.704   2.730  0.00  0.00    -0.294 N 
ATOM     25  C   UNL     1     -39.507  25.457   3.048  0.00  0.00    +0.141 C 
ATOM     26  C   UNL     1     -38.869  24.300   2.820  0.00  0.00    +0.123 C 
ATOM     27  C   UNL     1     -39.458  23.098   2.194  0.00  0.00    +0.200 C 
ATOM     28  C   UNL     1     -37.463  24.017   3.154  0.00  0.00    +0.252 C 
ATOM     29  C   UNL     1     -38.407  22.023   2.124  0.00  0.00    +0.160 C 
ATOM     30  H   UNL     1     -36.400  22.255   2.835  0.00  0.00    +0.150 HD
BRANCH  25  31
ATOM     31  O   UNL     1     -38.875  26.531   3.642  0.00  0.00    -0.505 OA
ATOM     32  H   UNL     1     -38.558  27.238   3.115  0.00  0.00    +0.292 HD
ENDBRANCH  25  31
ENDBRANCH  21  25
ENDBRANCH  18  20
ENDBRANCH   1  17
TORSDOF 5
ENDMDL
MODEL 2
REMARK VINA RESULT:      -6.8      7.624     11.613
REMARK  Name = 54707728
REMARK  5 active torsions:
REMARK  status: ('A' for Active; 'I' for Inactive)
REMARK    1  A    between atoms: C_1  and  C_13
REMARK    2  A    between atoms: C_1  and  C_17
REMARK    3  A    between atoms: C_18  and  C_20
REMARK    4  A    between atoms: C_21  and  C_25
REMARK    5  A    between atoms: C_25  and  O_31
REMARK                            x       y       z     vdW  Elec       q    Type
REMARK                         _______ _______ _______ _____ _____    ______ ____
ROOT
ATOM      1  C   UNL     1     -34.105  26.591   2.848  0.00  0.00    +0.049 C 
ATOM      2  C   UNL     1     -33.290  25.600   2.014  0.00  0.00    +0.007 C 
ENDROOT
BRANCH   1  13
ATOM      3  O   UNL     1     -35.310  22.357   2.810  0.00  0.00    -0.343 OA
ATOM      4  O   UNL     1     -36.994  24.372   4.738  0.00  0.00    -0.327 OA
ATOM      5  O   UNL     1     -35.862  24.998   2.702  0.00  0.00    -0.334 OA
ATOM      6  O   UNL     1     -34.629  22.060   6.001  0.00  0.00    -0.291 OA
ATOM      7  C   UNL     1     -36.674  22.755   3.012  0.00  0.00    +0.171 C 
ATOM      8  C   UNL     1     -35.922  21.951   4.039  0.00  0.00    +0.204 C 
ATOM      9  C   UNL     1     -36.898  24.215   3.313  0.00  0.00    +0.213 C 
ATOM     10  C   UNL     1     -35.748  24.115   5.376  0.00  0.00    +0.179 C 
ATOM     11  C   UNL     1     -34.645  25.031   4.803  0.00  0.00    +0.062 C 
ATOM     12  C   UNL     1     -35.378  22.644   5.227  0.00  0.00    +0.207 C 
ATOM     13  C   UNL     1     -35.195  25.863   3.627  0.00  0.00    +0.124 C 
ATOM     14  C   UNL     1     -37.604  22.037   2.099  0.00  0.00    +0.038 C 
ATOM     15  C   UNL     1     -38.225  24.691   2.726  0.00  0.00    +0.064 C 
ATOM     16  C   UNL     1     -34.057  25.912   5.908  0.00  0.00    +0.005 C 
ENDBRANCH   1  13
BRANCH   1  17
ATOM     17  C   UNL     1     -33.190  27.331   3.800  0.00  0.00    -0.028 C 
ATOM     18  C   UNL     1     -32.946  28.657   3.881  0.00  0.00    -0.026 C 
ATOM     19  C   UNL     1     -33.592  29.690   2.995  0.00  0.00    +0.031 C 
BRANCH  18  20
ATOM     20  C   UNL     1     -31.998  29.132   4.895  0.00  0.00    -0.001 C 
ATOM     21  C   UNL     1     -31.414  28.394   5.855  0.00  0.00    +0.037 C 
BRANCH  21  25
ATOM     22  O   UNL     1     -29.013  27.437   4.713  0.00  0.00    -0.289 OA
ATOM     23  O   UNL     1     -28.350  29.800   8.735  0.00  0.00    -0.270 OA
ATOM     24  N   UNL     1     -26.938  28.711   7.193  0.00  0.00    -0.294 N 
ATOM     25  C   UNL     1     -30.478  28.893   6.848  0.00  0.00    +0.141 C 
ATOM     26  C   UNL     1     -29.156  28.691   6.755  0.00  0.00    +0.123 C 
ATOM     27  C   UNL     1     -28.470  27.958   5.671  0.00  0.00    +0.200 C 
ATOM     28  C   UNL     1     -28.147  29.162   7.719  0.00  0.00    +0.252 C 
ATOM     29  C   UNL     1     -26.990  27.961   5.945  0.00  0.00    +0.160 C 
ATOM     30  H   UNL     1     -26.083  28.892   7.648  0.00  0.00    +0.150 HD
BRANCH  25  31
ATOM     31  O   UNL     1     -31.034  29.592   7.902  0.00  0.00    -0.505 OA
ATOM     32  H   UNL     1     -31.811  29.273   8.318  0.00  0.00    +0.292 HD
ENDBRANCH  25  31
ENDBRANCH  21  25
ENDBRANCH  18  20
ENDBRANCH   1  17
TORSDOF 5
ENDMDL
MODEL 3
REMARK VINA RESULT:      -6.8      7.980     11.020
REMARK  Name = 54707728
REMARK  5 active torsions:
REMARK  status: ('A' for Active; 'I' for Inactive)
REMARK    1  A    between atoms: C_1  and  C_13
REMARK    2  A    between atoms: C_1  and  C_17
REMARK    3  A    between atoms: C_18  and  C_20
REMARK    4  A    between atoms: C_21  and  C_25
REMARK    5  A    between atoms: C_25  and  O_31
REMARK                            x       y       z     vdW  Elec       q    Type
REMARK                         _______ _______ _______ _____ _____    ______ ____
ROOT
ATOM      1  C   UNL     1     -34.276  24.634   0.750  0.00  0.00    +0.049 C 
ATOM      2  C   UNL     1     -33.804  23.389  -0.004  0.00  0.00    +0.007 C 
ENDROOT
BRANCH   1  13
ATOM      3  O   UNL     1     -34.268  23.802   5.073  0.00  0.00    -0.343 OA
ATOM      4  O   UNL     1     -37.125  23.611   3.521  0.00  0.00    -0.327 OA
ATOM      5  O   UNL     1     -34.962  23.217   2.530  0.00  0.00    -0.334 OA
ATOM      6  O   UNL     1     -36.283  26.323   5.635  0.00  0.00    -0.291 OA
ATOM      7  C   UNL     1     -35.319  22.845   4.879  0.00  0.00    +0.171 C 
ATOM      8  C   UNL     1     -35.526  24.097   5.689  0.00  0.00    +0.204 C 
ATOM      9  C   UNL     1     -35.934  22.809   3.503  0.00  0.00    +0.213 C 
ATOM     10  C   UNL     1     -36.822  24.992   3.685  0.00  0.00    +0.179 C 
ATOM     11  C   UNL     1     -35.861  25.473   2.576  0.00  0.00    +0.062 C 
ATOM     12  C   UNL     1     -36.235  25.237   5.070  0.00  0.00    +0.207 C 
ATOM     13  C   UNL     1     -35.420  24.285   1.695  0.00  0.00    +0.124 C 
ATOM     14  C   UNL     1     -35.054  21.573   5.604  0.00  0.00    +0.038 C 
ATOM     15  C   UNL     1     -36.364  21.389   3.140  0.00  0.00    +0.064 C 
ATOM     16  C   UNL     1     -36.509  26.591   1.756  0.00  0.00    +0.005 C 
ENDBRANCH   1  13
BRANCH   1  17
ATOM     17  C   UNL     1     -33.121  25.228   1.528  0.00  0.00    -0.028 C 
ATOM     18  C   UNL     1     -32.450  26.378   1.300  0.00  0.00    -0.026 C 
ATOM     19  C   UNL     1     -32.762  27.330   0.175  0.00  0.00    +0.031 C 
BRANCH  18  20
ATOM     20  C   UNL     1     -31.348  26.733   2.202  0.00  0.00    -0.001 C 
ATOM     21  C   UNL     1     -31.281  27.814   2.999  0.00  0.00    +0.037 C 
BRANCH  21  25
ATOM     22  O   UNL     1     -32.758  28.702   5.238  0.00  0.00    -0.289 OA
ATOM     23  O   UNL     1     -28.096  28.891   5.890  0.00  0.00    -0.270 OA
ATOM     24  N   UNL     1     -29.981  29.424   7.200  0.00  0.00    -0.294 N 
ATOM     25  C   UNL     1     -30.175  28.141   3.883  0.00  0.00    +0.141 C 
ATOM     26  C   UNL     1     -30.362  28.623   5.120  0.00  0.00    +0.123 C 
ATOM     27  C   UNL     1     -31.670  28.888   5.754  0.00  0.00    +0.200 C 
ATOM     28  C   UNL     1     -29.295  28.978   6.072  0.00  0.00    +0.252 C 
ATOM     29  C   UNL     1     -31.436  29.422   7.141  0.00  0.00    +0.160 C 
ATOM     30  H   UNL     1     -29.500  29.729   8.003  0.00  0.00    +0.150 HD
BRANCH  25  31
ATOM     31  O   UNL     1     -28.910  27.925   3.371  0.00  0.00    -0.505 OA
ATOM     32  H   UNL     1     -28.288  27.420   3.856  0.00  0.00    +0.292 HD
ENDBRANCH  25  31
ENDBRANCH  21  25
ENDBRANCH  18  20
ENDBRANCH   1  17
TORSDOF 5
ENDMDL
MODEL 4
REMARK VINA RESULT:      -6.6      7.409     11.575
REMARK  Name = 54707728
REMARK  5 active torsions:
REMARK  status: ('A' for Active; 'I' for Inactive)
REMARK    1  A    between atoms: C_1  and  C_13
REMARK    2  A    between atoms: C_1  and  C_17
REMARK    3  A    between atoms: C_18  and  C_20
REMARK    4  A    between atoms: C_21  and  C_25
REMARK    5  A    between atoms: C_25  and  O_31
REMARK                            x       y       z     vdW  Elec       q    Type
REMARK                         _______ _______ _______ _____ _____    ______ ____
ROOT
ATOM      1  C   UNL     1     -32.668  29.893   3.621  0.00  0.00    +0.049 C 
ATOM      2  C   UNL     1     -32.148  30.529   4.912  0.00  0.00    +0.007 C 
ENDROOT
BRANCH   1  13
ATOM      3  O   UNL     1     -35.908  26.941   3.207  0.00  0.00    -0.343 OA
ATOM      4  O   UNL     1     -32.937  25.808   3.915  0.00  0.00    -0.327 OA
ATOM      5  O   UNL     1     -33.784  27.989   4.503  0.00  0.00    -0.334 OA
ATOM      6  O   UNL     1     -34.375  25.503   0.694  0.00  0.00    -0.291 OA
ATOM      7  C   UNL     1     -35.283  26.131   4.213  0.00  0.00    +0.171 C 
ATOM      8  C   UNL     1     -35.429  25.658   2.790  0.00  0.00    +0.204 C 
ATOM      9  C   UNL     1     -33.909  26.567   4.652  0.00  0.00    +0.213 C 
ATOM     10  C   UNL     1     -32.942  26.155   2.535  0.00  0.00    +0.179 C 
ATOM     11  C   UNL     1     -32.698  27.669   2.355  0.00  0.00    +0.062 C 
ATOM     12  C   UNL     1     -34.256  25.727   1.893  0.00  0.00    +0.207 C 
ATOM     13  C   UNL     1     -32.644  28.372   3.727  0.00  0.00    +0.124 C 
ATOM     14  C   UNL     1     -36.262  25.643   5.221  0.00  0.00    +0.038 C 
ATOM     15  C   UNL     1     -33.688  26.250   6.130  0.00  0.00    +0.064 C 
ATOM     16  C   UNL     1     -31.429  27.910   1.533  0.00  0.00    +0.005 C 
ENDBRANCH   1  13
BRANCH   1  17
ATOM     17  C   UNL     1     -34.077  30.373   3.346  0.00  0.00    -0.028 C 
ATOM     18  C   UNL     1     -34.598  30.856   2.197  0.00  0.00    -0.026 C 
ATOM     19  C   UNL     1     -33.825  30.993   0.912  0.00  0.00    +0.031 C 
BRANCH  18  20
ATOM     20  C   UNL     1     -36.006  31.270   2.188  0.00  0.00    -0.001 C 
ATOM     21  C   UNL     1     -36.540  32.280   1.480  0.00  0.00    +0.037 C 
BRANCH  21  25
ATOM     22  O   UNL     1     -36.215  35.087   1.482  0.00  0.00    -0.289 OA
ATOM     23  O   UNL     1     -40.728  33.735   1.521  0.00  0.00    -0.270 OA
ATOM     24  N   UNL     1     -39.615  35.812   1.513  0.00  0.00    -0.294 N 
ATOM     25  C   UNL     1     -37.940  32.668   1.493  0.00  0.00    +0.141 C 
ATOM     26  C   UNL     1     -38.330  33.951   1.499  0.00  0.00    +0.123 C 
ATOM     27  C   UNL     1     -37.433  35.125   1.493  0.00  0.00    +0.200 C 
ATOM     28  C   UNL     1     -39.725  34.422   1.513  0.00  0.00    +0.252 C 
ATOM     29  C   UNL     1     -38.271  36.375   1.502  0.00  0.00    +0.160 C 
ATOM     30  H   UNL     1     -40.413  36.388   1.521  0.00  0.00    +0.150 HD
BRANCH  25  31
ATOM     31  O   UNL     1     -38.853  31.632   1.500  0.00  0.00    -0.505 OA
ATOM     32  H   UNL     1     -39.621  31.679   0.964  0.00  0.00    +0.292 HD
ENDBRANCH  25  31
ENDBRANCH  21  25
ENDBRANCH  18  20
ENDBRANCH   1  17
TORSDOF 5
ENDMDL
MODEL 5
REMARK VINA RESULT:      -6.6      6.641      9.189
REMARK  Name = 54707728
REMARK  5 active torsions:
REMARK  status: ('A' for Active; 'I' for Inactive)
REMARK    1  A    between atoms: C_1  and  C_13
REMARK    2  A    between atoms: C_1  and  C_17
REMARK    3  A    between atoms: C_18  and  C_20
REMARK    4  A    between atoms: C_21  and  C_25
REMARK    5  A    between atoms: C_25  and  O_31
REMARK                            x       y       z     vdW  Elec       q    Type
REMARK                         _______ _______ _______ _____ _____    ______ ____
ROOT
ATOM      1  C   UNL     1     -36.171  24.852   4.852  0.00  0.00    +0.049 C 
ATOM      2  C   UNL     1     -34.924  25.361   5.578  0.00  0.00    +0.007 C 
ENDROOT
BRANCH   1  13
ATOM      3  O   UNL     1     -35.006  25.426   0.646  0.00  0.00    -0.343 OA
ATOM      4  O   UNL     1     -37.187  27.503   1.888  0.00  0.00    -0.327 OA
ATOM      5  O   UNL     1     -35.479  26.347   3.140  0.00  0.00    -0.334 OA
ATOM      6  O   UNL     1     -38.084  24.913  -0.352  0.00  0.00    -0.291 OA
ATOM      7  C   UNL     1     -35.164  26.843   0.808  0.00  0.00    +0.171 C 
ATOM      8  C   UNL     1     -36.038  26.049  -0.127  0.00  0.00    +0.204 C 
ATOM      9  C   UNL     1     -35.782  27.295   2.106  0.00  0.00    +0.213 C 
ATOM     10  C   UNL     1     -37.863  26.276   1.638  0.00  0.00    +0.179 C 
ATOM     11  C   UNL     1     -37.635  25.283   2.798  0.00  0.00    +0.062 C 
ATOM     12  C   UNL     1     -37.404  25.688   0.309  0.00  0.00    +0.207 C 
ATOM     13  C   UNL     1     -36.644  25.872   3.823  0.00  0.00    +0.124 C 
ATOM     14  C   UNL     1     -34.020  27.599   0.230  0.00  0.00    +0.038 C 
ATOM     15  C   UNL     1     -35.200  28.637   2.544  0.00  0.00    +0.064 C 
ATOM     16  C   UNL     1     -38.970  24.899   3.441  0.00  0.00    +0.005 C 
ENDBRANCH   1  13
BRANCH   1  17
ATOM     17  C   UNL     1     -35.867  23.533   4.176  0.00  0.00    -0.028 C 
ATOM     18  C   UNL     1     -35.583  22.338   4.739  0.00  0.00    -0.026 C 
ATOM     19  C   UNL     1     -35.532  22.095   6.225  0.00  0.00    +0.031 C 
BRANCH  18  20
ATOM     20  C   UNL     1     -35.310  21.197   3.857  0.00  0.00    -0.001 C 
ATOM     21  C   UNL     1     -35.422  21.174   2.518  0.00  0.00    +0.037 C 
BRANCH  21  25
ATOM     22  O   UNL     1     -37.879  21.057   1.128  0.00  0.00    -0.289 OA
ATOM     23  O   UNL     1     -34.838  17.704  -0.179  0.00  0.00    -0.270 OA
ATOM     24  N   UNL     1     -37.028  18.301  -0.812  0.00  0.00    -0.294 N 
ATOM     25  C   UNL     1     -35.145  20.028   1.669  0.00  0.00    +0.141 C 
ATOM     26  C   UNL     1     -36.039  19.553   0.790  0.00  0.00    +0.123 C 
ATOM     27  C   UNL     1     -37.392  20.099   0.554  0.00  0.00    +0.200 C 
ATOM     28  C   UNL     1     -35.834  18.398  -0.101  0.00  0.00    +0.252 C 
ATOM     29  C   UNL     1     -38.066  19.277  -0.511  0.00  0.00    +0.160 C 
ATOM     30  H   UNL     1     -37.164  17.600  -1.490  0.00  0.00    +0.150 HD
BRANCH  25  31
ATOM     31  O   UNL     1     -33.900  19.450   1.823  0.00  0.00    -0.505 OA
ATOM     32  H   UNL     1     -33.130  19.984   1.798  0.00  0.00    +0.292 HD
ENDBRANCH  25  31
ENDBRANCH  21  25
ENDBRANCH  18  20
ENDBRANCH   1  17
TORSDOF 5
ENDMDL
MODEL 6
REMARK VINA RESULT:      -6.6      9.408     13.029
REMARK  Name = 54707728
REMARK  5 active torsions:
REMARK  status: ('A' for Active; 'I' for Inactive)
REMARK    1  A    between atoms: C_1  and  C_13
REMARK    2  A    between atoms: C_1  and  C_17
REMARK    3  A    between atoms: C_18  and  C_20
REMARK    4  A    between atoms: C_21  and  C_25
REMARK    5  A    between atoms: C_25  and  O_31
REMARK                            x       y       z     vdW  Elec       q    Type
REMARK                         _______ _______ _______ _____ _____    ______ ____
ROOT
ATOM      1  C   UNL     1     -31.382  29.943   3.725  0.00  0.00    +0.049 C 
ATOM      2  C   UNL     1     -31.874  31.203   4.441  0.00  0.00    +0.007 C 
ENDROOT
BRANCH   1  13
ATOM      3  O   UNL     1     -29.094  27.398   6.494  0.00  0.00    -0.343 OA
ATOM      4  O   UNL     1     -27.398  29.335   4.499  0.00  0.00    -0.327 OA
ATOM      5  O   UNL     1     -29.626  29.768   5.316  0.00  0.00    -0.334 OA
ATOM      6  O   UNL     1     -27.661  25.841   3.992  0.00  0.00    -0.291 OA
ATOM      7  C   UNL     1     -28.094  28.422   6.591  0.00  0.00    +0.171 C 
ATOM      8  C   UNL     1     -27.794  27.073   5.991  0.00  0.00    +0.204 C 
ATOM      9  C   UNL     1     -28.239  29.579   5.637  0.00  0.00    +0.213 C 
ATOM     10  C   UNL     1     -27.873  28.239   3.725  0.00  0.00    +0.179 C 
ATOM     11  C   UNL     1     -29.331  28.480   3.279  0.00  0.00    +0.062 C 
ATOM     12  C   UNL     1     -27.744  26.944   4.519  0.00  0.00    +0.207 C 
ATOM     13  C   UNL     1     -29.878  29.778   3.907  0.00  0.00    +0.124 C 
ATOM     14  C   UNL     1     -27.688  28.671   8.000  0.00  0.00    +0.038 C 
ATOM     15  C   UNL     1     -27.748  30.875   6.279  0.00  0.00    +0.064 C 
ATOM     16  C   UNL     1     -29.426  28.493   1.751  0.00  0.00    +0.005 C 
ENDBRANCH   1  13
BRANCH   1  17
ATOM     17  C   UNL     1     -32.108  28.731   4.268  0.00  0.00    -0.028 C 
ATOM     18  C   UNL     1     -32.957  27.896   3.630  0.00  0.00    -0.026 C 
ATOM     19  C   UNL     1     -33.339  28.027   2.178  0.00  0.00    +0.031 C 
BRANCH  18  20
ATOM     20  C   UNL     1     -33.546  26.786   4.388  0.00  0.00    -0.001 C 
ATOM     21  C   UNL     1     -34.236  25.748   3.884  0.00  0.00    +0.037 C 
BRANCH  21  25
ATOM     22  O   UNL     1     -34.572  23.858   1.810  0.00  0.00    -0.289 OA
ATOM     23  O   UNL     1     -36.001  22.283   6.014  0.00  0.00    -0.270 OA
ATOM     24  N   UNL     1     -35.930  21.383   3.838  0.00  0.00    -0.294 N 
ATOM     25  C   UNL     1     -34.810  24.662   4.660  0.00  0.00    +0.141 C 
ATOM     26  C   UNL     1     -35.160  23.492   4.109  0.00  0.00    +0.123 C 
ATOM     27  C   UNL     1     -35.023  23.135   2.681  0.00  0.00    +0.200 C 
ATOM     28  C   UNL     1     -35.746  22.347   4.827  0.00  0.00    +0.252 C 
ATOM     29  C   UNL     1     -35.531  21.733   2.481  0.00  0.00    +0.160 C 
ATOM     30  H   UNL     1     -36.315  20.501   4.048  0.00  0.00    +0.150 HD
BRANCH  25  31
ATOM     31  O   UNL     1     -34.976  24.908   6.009  0.00  0.00    -0.505 OA
ATOM     32  H   UNL     1     -34.994  24.195   6.617  0.00  0.00    +0.292 HD
ENDBRANCH  25  31
ENDBRANCH  21  25
ENDBRANCH  18  20
ENDBRANCH   1  17
TORSDOF 5
ENDMDL
MODEL 7
REMARK VINA RESULT:      -6.6      2.986      9.210
REMARK  Name = 54707728
REMARK  5 active torsions:
REMARK  status: ('A' for Active; 'I' for Inactive)
REMARK    1  A    between atoms: C_1  and  C_13
REMARK    2  A    between atoms: C_1  and  C_17
REMARK    3  A    between atoms: C_18  and  C_20
REMARK    4  A    between atoms: C_21  and  C_25
REMARK    5  A    between atoms: C_25  and  O_31
REMARK                            x       y       z     vdW  Elec       q    Type
REMARK                         _______ _______ _______ _____ _____    ______ ____
ROOT
ATOM      1  C   UNL     1     -38.104  25.371   0.472  0.00  0.00    +0.049 C 
ATOM      2  C   UNL     1     -37.976  26.370  -0.681  0.00  0.00    +0.007 C 
ENDROOT
BRANCH   1  13
ATOM      3  O   UNL     1     -37.053  24.196   4.582  0.00  0.00    -0.343 OA
ATOM      4  O   UNL     1     -34.600  24.695   2.498  0.00  0.00    -0.327 OA
ATOM      5  O   UNL     1     -36.764  25.754   2.397  0.00  0.00    -0.334 OA
ATOM      6  O   UNL     1     -35.613  21.456   3.507  0.00  0.00    -0.291 OA
ATOM      7  C   UNL     1     -35.868  25.000   4.496  0.00  0.00    +0.171 C 
ATOM      8  C   UNL     1     -35.802  23.503   4.650  0.00  0.00    +0.204 C 
ATOM      9  C   UNL     1     -35.548  25.564   3.136  0.00  0.00    +0.213 C 
ATOM     10  C   UNL     1     -35.179  23.434   2.179  0.00  0.00    +0.179 C 
ATOM     11  C   UNL     1     -36.427  23.619   1.289  0.00  0.00    +0.062 C 
ATOM     12  C   UNL     1     -35.518  22.677   3.457  0.00  0.00    +0.207 C 
ATOM     13  C   UNL     1     -36.745  25.119   1.114  0.00  0.00    +0.124 C 
ATOM     14  C   UNL     1     -35.677  25.840   5.709  0.00  0.00    +0.038 C 
ATOM     15  C   UNL     1     -34.880  26.931   3.260  0.00  0.00    +0.064 C 
ATOM     16  C   UNL     1     -36.236  22.909  -0.053  0.00  0.00    +0.005 C 
ENDBRANCH   1  13
BRANCH   1  17
ATOM     17  C   UNL     1     -39.077  25.902   1.503  0.00  0.00    -0.028 C 
ATOM     18  C   UNL     1     -39.913  25.215   2.311  0.00  0.00    -0.026 C 
ATOM     19  C   UNL     1     -40.017  23.712   2.337  0.00  0.00    +0.031 C 
BRANCH  18  20
ATOM     20  C   UNL     1     -40.775  25.970   3.229  0.00  0.00    -0.001 C 
ATOM     21  C   UNL     1     -41.674  26.911   2.893  0.00  0.00    +0.037 C 
BRANCH  21  25
ATOM     22  O   UNL     1     -44.140  25.645   2.345  0.00  0.00    -0.289 OA
ATOM     23  O   UNL     1     -44.456  28.993   5.646  0.00  0.00    -0.270 OA
ATOM     24  N   UNL     1     -45.980  27.507   4.633  0.00  0.00    -0.294 N 
ATOM     25  C   UNL     1     -42.513  27.644   3.825  0.00  0.00    +0.141 C 
ATOM     26  C   UNL     1     -43.826  27.403   3.950  0.00  0.00    +0.123 C 
ATOM     27  C   UNL     1     -44.596  26.396   3.190  0.00  0.00    +0.200 C 
ATOM     28  C   UNL     1     -44.742  28.102   4.868  0.00  0.00    +0.252 C 
ATOM     29  C   UNL     1     -46.033  26.450   3.632  0.00  0.00    +0.160 C 
ATOM     30  H   UNL     1     -46.785  27.791   5.124  0.00  0.00    +0.150 HD
BRANCH  25  31
ATOM     31  O   UNL     1     -41.876  28.609   4.579  0.00  0.00    -0.505 OA
ATOM     32  H   UNL     1     -42.334  29.390   4.824  0.00  0.00    +0.292 HD
ENDBRANCH  25  31
ENDBRANCH  21  25
ENDBRANCH  18  20
ENDBRANCH   1  17
TORSDOF 5
ENDMDL
MODEL 8
REMARK VINA RESULT:      -6.5      7.494     10.409
REMARK  Name = 54707728
REMARK  5 active torsions:
REMARK  status: ('A' for Active; 'I' for Inactive)
REMARK    1  A    between atoms: C_1  and  C_13
REMARK    2  A    between atoms: C_1  and  C_17
REMARK    3  A    between atoms: C_18  and  C_20
REMARK    4  A    between atoms: C_21  and  C_25
REMARK    5  A    between atoms: C_25  and  O_31
REMARK                            x       y       z     vdW  Elec       q    Type
REMARK                         _______ _______ _______ _____ _____    ______ ____
ROOT
ATOM      1  C   UNL     1     -35.876  22.498   4.330  0.00  0.00    +0.049 C 
ATOM      2  C   UNL     1     -35.231  21.869   5.567  0.00  0.00    +0.007 C 
ENDROOT
BRANCH   1  13
ATOM      3  O   UNL     1     -33.730  25.755   2.289  0.00  0.00    -0.343 OA
ATOM      4  O   UNL     1     -35.881  26.594   4.586  0.00  0.00    -0.327 OA
ATOM      5  O   UNL     1     -34.646  24.523   4.510  0.00  0.00    -0.334 OA
ATOM      6  O   UNL     1     -36.540  26.976   1.129  0.00  0.00    -0.291 OA
ATOM      7  C   UNL     1     -33.756  26.518   3.504  0.00  0.00    +0.171 C 
ATOM      8  C   UNL     1     -34.481  26.973   2.265  0.00  0.00    +0.204 C 
ATOM      9  C   UNL     1     -34.596  25.953   4.621  0.00  0.00    +0.213 C 
ATOM     10  C   UNL     1     -36.620  26.220   3.429  0.00  0.00    +0.179 C 
ATOM     11  C   UNL     1     -36.777  24.686   3.356  0.00  0.00    +0.062 C 
ATOM     12  C   UNL     1     -35.942  26.766   2.178  0.00  0.00    +0.207 C 
ATOM     13  C   UNL     1     -35.982  24.010   4.492  0.00  0.00    +0.124 C 
ATOM     14  C   UNL     1     -32.432  27.124   3.808  0.00  0.00    +0.038 C 
ATOM     15  C   UNL     1     -33.978  26.277   5.979  0.00  0.00    +0.064 C 
ATOM     16  C   UNL     1     -38.258  24.300   3.378  0.00  0.00    +0.005 C 
ENDBRANCH   1  13
BRANCH   1  17
ATOM     17  C   UNL     1     -35.058  22.162   3.101  0.00  0.00    -0.028 C 
ATOM     18  C   UNL     1     -35.341  21.291   2.108  0.00  0.00    -0.026 C 
ATOM     19  C   UNL     1     -36.599  20.466   2.041  0.00  0.00    +0.031 C 
BRANCH  18  20
ATOM     20  C   UNL     1     -34.369  21.135   1.019  0.00  0.00    -0.001 C 
ATOM     21  C   UNL     1     -33.384  20.224   0.947  0.00  0.00    +0.037 C 
BRANCH  21  25
ATOM     22  O   UNL     1     -32.088  17.853   1.774  0.00  0.00    -0.289 OA
ATOM     23  O   UNL     1     -30.390  19.594  -2.262  0.00  0.00    -0.270 OA
ATOM     24  N   UNL     1     -29.897  17.719  -0.922  0.00  0.00    -0.294 N 
ATOM     25  C   UNL     1     -32.435  20.094  -0.145  0.00  0.00    +0.141 C 
ATOM     26  C   UNL     1     -31.556  19.085  -0.217  0.00  0.00    +0.123 C 
ATOM     27  C   UNL     1     -31.419  17.988   0.764  0.00  0.00    +0.200 C 
ATOM     28  C   UNL     1     -30.565  18.886  -1.288  0.00  0.00    +0.252 C 
ATOM     29  C   UNL     1     -30.318  17.067   0.311  0.00  0.00    +0.160 C 
ATOM     30  H   UNL     1     -29.170  17.350  -1.474  0.00  0.00    +0.150 HD
BRANCH  25  31
ATOM     31  O   UNL     1     -32.491  21.079  -1.112  0.00  0.00    -0.505 OA
ATOM     32  H   UNL     1     -32.054  21.897  -0.974  0.00  0.00    +0.292 HD
ENDBRANCH  25  31
ENDBRANCH  21  25
ENDBRANCH  18  20
ENDBRANCH   1  17
TORSDOF 5
ENDMDL
MODEL 9
REMARK VINA RESULT:      -6.4      9.398     12.371
REMARK  Name = 54707728
REMARK  5 active torsions:
REMARK  status: ('A' for Active; 'I' for Inactive)
REMARK    1  A    between atoms: C_1  and  C_13
REMARK    2  A    between atoms: C_1  and  C_17
REMARK    3  A    between atoms: C_18  and  C_20
REMARK    4  A    between atoms: C_21  and  C_25
REMARK    5  A    between atoms: C_25  and  O_31
REMARK                            x       y       z     vdW  Elec       q    Type
REMARK                         _______ _______ _______ _____ _____    ______ ____
ROOT
ATOM      1  C   UNL     1     -35.769  21.492   3.008  0.00  0.00    +0.049 C 
ATOM      2  C   UNL     1     -37.190  21.683   2.473  0.00  0.00    +0.007 C 
ENDROOT
BRANCH   1  13
ATOM      3  O   UNL     1     -36.235  18.534  -0.218  0.00  0.00    -0.343 OA
ATOM      4  O   UNL     1     -33.419  20.167  -0.084  0.00  0.00    -0.327 OA
ATOM      5  O   UNL     1     -34.843  19.669   1.798  0.00  0.00    -0.334 OA
ATOM      6  O   UNL     1     -35.912  20.864  -2.499  0.00  0.00    -0.291 OA
ATOM      7  C   UNL     1     -34.832  18.244  -0.139  0.00  0.00    +0.171 C 
ATOM      8  C   UNL     1     -35.448  18.853  -1.371  0.00  0.00    +0.204 C 
ATOM      9  C   UNL     1     -34.017  19.156   0.742  0.00  0.00    +0.213 C 
ATOM     10  C   UNL     1     -34.399  21.051  -0.618  0.00  0.00    +0.179 C 
ATOM     11  C   UNL     1     -35.223  21.696   0.517  0.00  0.00    +0.062 C 
ATOM     12  C   UNL     1     -35.296  20.306  -1.599  0.00  0.00    +0.207 C 
ATOM     13  C   UNL     1     -34.822  21.098   1.881  0.00  0.00    +0.124 C 
ATOM     14  C   UNL     1     -34.566  16.780  -0.135  0.00  0.00    +0.038 C 
ATOM     15  C   UNL     1     -32.872  18.390   1.401  0.00  0.00    +0.064 C 
ATOM     16  C   UNL     1     -35.070  23.219   0.487  0.00  0.00    +0.005 C 
ENDBRANCH   1  13
BRANCH   1  17
ATOM     17  C   UNL     1     -35.294  22.771   3.664  0.00  0.00    -0.028 C 
ATOM     18  C   UNL     1     -35.172  23.053   4.979  0.00  0.00    -0.026 C 
ATOM     19  C   UNL     1     -35.493  22.082   6.085  0.00  0.00    +0.031 C 
BRANCH  18  20
ATOM     20  C   UNL     1     -34.694  24.386   5.366  0.00  0.00    -0.001 C 
ATOM     21  C   UNL     1     -33.961  25.225   4.613  0.00  0.00    +0.037 C 
BRANCH  21  25
ATOM     22  O   UNL     1     -33.333  26.281   2.069  0.00  0.00    -0.289 OA
ATOM     23  O   UNL     1     -32.505  29.296   5.594  0.00  0.00    -0.270 OA
ATOM     24  N   UNL     1     -32.267  29.372   3.250  0.00  0.00    -0.294 N 
ATOM     25  C   UNL     1     -33.500  26.540   5.024  0.00  0.00    +0.141 C 
ATOM     26  C   UNL     1     -33.073  27.458   4.145  0.00  0.00    +0.123 C 
ATOM     27  C   UNL     1     -33.007  27.285   2.679  0.00  0.00    +0.200 C 
ATOM     28  C   UNL     1     -32.591  28.808   4.483  0.00  0.00    +0.252 C 
ATOM     29  C   UNL     1     -32.473  28.550   2.065  0.00  0.00    +0.160 C 
ATOM     30  H   UNL     1     -31.914  30.289   3.184  0.00  0.00    +0.150 HD
BRANCH  25  31
ATOM     31  O   UNL     1     -33.526  26.791   6.382  0.00  0.00    -0.505 OA
ATOM     32  H   UNL     1     -32.852  26.446   6.935  0.00  0.00    +0.292 HD
ENDBRANCH  25  31
ENDBRANCH  21  25
ENDBRANCH  18  20
ENDBRANCH   1  17
TORSDOF 5
ENDMDL
