MODEL 1
REMARK VINA RESULT:      -6.1      0.000      0.000
REMARK  Name = 5487891
REMARK  11 active torsions:
REMARK  status: ('A' for Active; 'I' for Inactive)
REMARK    1  A    between atoms: N_1  and  C_4
REMARK    2  A    between atoms: N_1  and  C_18
REMARK    3  A    between atoms: C_4  and  C_13
REMARK    4  A    between atoms: C_9  and  C_15
REMARK    5  A    between atoms: C_15  and  O_16
REMARK    6  A    between atoms: C_18  and  C_20
REMARK    7  A    between atoms: C_18  and  C_24
REMARK    8  A    between atoms: C_20  and  O_21
REMARK    9  A    between atoms: O_21  and  C_22
REMARK   10  A    between atoms: C_24  and  C_25
REMARK   11  A    between atoms: C_25  and  C_26
REMARK                            x       y       z     vdW  Elec       q    Type
REMARK                         _______ _______ _______ _____ _____    ______ ____
ROOT
ATOM      1  N   UNK A   1     -34.674  27.334   3.857  0.00  0.00    +0.399 N 
ATOM      2  H   UNK A   1     -34.571  28.309   3.576  0.00  0.00    -0.083 HD
ATOM      3  H   UNK A   1     -35.064  27.271   4.798  0.00  0.00    -0.083 HD
ENDROOT
BRANCH   1   4
ATOM      4  C   UNK A   1     -33.366  26.699   3.856  0.00  0.00    +0.018 C 
ATOM      5  C   UNK A   1     -33.282  25.630   2.784  0.00  0.00    -0.014 C 
BRANCH   4  13
ATOM      6  O   UNK A   1     -32.918  27.418   6.599  0.00  0.00    -0.274 OA
ATOM      7  O   UNK A   1     -31.996  28.024   2.434  0.00  0.00    -0.277 OA
ATOM      8  N   UNK A   1     -31.872  28.458   4.721  0.00  0.00    -0.223 N 
ATOM      9  C   UNK A   1     -30.924  29.549   4.574  0.00  0.00    +0.181 C 
ATOM     10  C   UNK A   1     -31.066  30.352   5.849  0.00  0.00    +0.041 C 
ATOM     11  C   UNK A   1     -31.455  29.313   6.890  0.00  0.00    +0.088 C 
ATOM     12  C   UNK A   1     -32.202  28.270   6.093  0.00  0.00    +0.232 C 
ATOM     13  C   UNK A   1     -32.353  27.781   3.588  0.00  0.00    +0.212 C 
BRANCH   9  15
ATOM     14  O   UNK A   1     -29.305  27.752   4.565  0.00  0.00    -0.248 OA
ATOM     15  C   UNK A   1     -29.558  28.942   4.445  0.00  0.00    +0.332 C 
BRANCH  15  16
ATOM     16  O   UNK A   1     -28.632  29.897   4.181  0.00  0.00    -0.479 OA
ATOM     17  H   UNK A   1     -27.720  29.688   4.217  0.00  0.00    +0.295 HD
ENDBRANCH  15  16
ENDBRANCH   9  15
ENDBRANCH   4  13
ENDBRANCH   1   4
BRANCH   1  18
ATOM     18  C   UNK A   0     -35.582  26.666   2.933  0.00  0.00    +0.041 C 
BRANCH  18  20
ATOM     19  O   UNK A   0     -37.308  27.688   1.541  0.00  0.00    -0.252 OA
ATOM     20  C   UNK A   0     -36.190  27.732   2.037  0.00  0.00    +0.297 C 
BRANCH  20  21
ATOM     21  O   UNK A   0     -35.291  28.751   1.881  0.00  0.00    -0.450 OA
BRANCH  21  22
ATOM     22  C   UNK A   0     -35.849  30.069   1.853  0.00  0.00    +0.208 C 
ATOM     23  C   UNK A   0     -35.271  30.874   2.997  0.00  0.00    +0.051 C 
ENDBRANCH  21  22
ENDBRANCH  20  21
ENDBRANCH  18  20
BRANCH  18  24
ATOM     24  C   UNK A   0     -36.699  25.918   3.677  0.00  0.00    -0.006 C 
BRANCH  24  25
ATOM     25  C   UNK A   0     -36.302  25.335   5.041  0.00  0.00    +0.025 C 
BRANCH  25  26
ATOM     26  C   UNK A   0     -35.870  23.891   4.983  0.00  0.00    -0.022 C 
ATOM     27  C   UNK A   0     -35.989  23.192   3.792  0.00  0.00    -0.004 C 
ATOM     28  C   UNK A   0     -35.360  23.286   6.123  0.00  0.00    -0.004 C 
ATOM     29  C   UNK A   0     -35.589  21.856   3.739  0.00  0.00    -0.000 C 
ATOM     30  C   UNK A   0     -34.960  21.951   6.069  0.00  0.00    -0.000 C 
ATOM     31  C   UNK A   0     -35.075  21.236   4.877  0.00  0.00    -0.000 C 
ENDBRANCH  25  26
ENDBRANCH  24  25
ENDBRANCH  18  24
ENDBRANCH   1  18
TORSDOF 11
ENDMDL
MODEL 2
REMARK VINA RESULT:      -6.1      2.092      3.176
REMARK  Name = 5487891
REMARK  11 active torsions:
REMARK  status: ('A' for Active; 'I' for Inactive)
REMARK    1  A    between atoms: N_1  and  C_4
REMARK    2  A    between atoms: N_1  and  C_18
REMARK    3  A    between atoms: C_4  and  C_13
REMARK    4  A    between atoms: C_9  and  C_15
REMARK    5  A    between atoms: C_15  and  O_16
REMARK    6  A    between atoms: C_18  and  C_20
REMARK    7  A    between atoms: C_18  and  C_24
REMARK    8  A    between atoms: C_20  and  O_21
REMARK    9  A    between atoms: O_21  and  C_22
REMARK   10  A    between atoms: C_24  and  C_25
REMARK   11  A    between atoms: C_25  and  C_26
REMARK                            x       y       z     vdW  Elec       q    Type
REMARK                         _______ _______ _______ _____ _____    ______ ____
ROOT
ATOM      1  N   UNK A   1     -32.715  28.324   5.356  0.00  0.00    +0.399 N 
ATOM      2  H   UNK A   1     -33.331  29.060   5.010  0.00  0.00    -0.083 HD
ATOM      3  H   UNK A   1     -32.766  28.263   6.373  0.00  0.00    -0.083 HD
ENDROOT
BRANCH   1   4
ATOM      4  C   UNK A   1     -31.346  28.635   4.979  0.00  0.00    +0.018 C 
ATOM      5  C   UNK A   1     -31.297  29.820   4.035  0.00  0.00    -0.014 C 
BRANCH   4  13
ATOM      6  O   UNK A   1     -28.886  27.344   4.254  0.00  0.00    -0.274 OA
ATOM      7  O   UNK A   1     -31.143  29.621   7.134  0.00  0.00    -0.277 OA
ATOM      8  N   UNK A   1     -29.295  28.447   6.333  0.00  0.00    -0.223 N 
ATOM      9  C   UNK A   1     -28.504  28.657   7.533  0.00  0.00    +0.181 C 
ATOM     10  C   UNK A   1     -27.457  27.565   7.497  0.00  0.00    +0.041 C 
ATOM     11  C   UNK A   1     -27.233  27.327   6.010  0.00  0.00    +0.088 C 
ATOM     12  C   UNK A   1     -28.566  27.670   5.389  0.00  0.00    +0.232 C 
ATOM     13  C   UNK A   1     -30.603  28.954   6.249  0.00  0.00    +0.212 C 
BRANCH   9  15
ATOM     14  O   UNK A   1     -27.858  30.703   6.416  0.00  0.00    -0.248 OA
ATOM     15  C   UNK A   1     -27.890  30.023   7.430  0.00  0.00    +0.332 C 
BRANCH  15  16
ATOM     16  O   UNK A   1     -27.367  30.403   8.622  0.00  0.00    -0.479 OA
ATOM     17  H   UNK A   1     -27.873  30.929   9.209  0.00  0.00    +0.295 HD
ENDBRANCH  15  16
ENDBRANCH   9  15
ENDBRANCH   4  13
ENDBRANCH   1   4
BRANCH   1  18
ATOM     18  C   UNK A   0     -33.137  27.047   4.794  0.00  0.00    +0.041 C 
BRANCH  18  20
ATOM     19  O   UNK A   0     -33.949  26.685   2.519  0.00  0.00    -0.252 OA
ATOM     20  C   UNK A   0     -33.960  27.343   3.551  0.00  0.00    +0.297 C 
BRANCH  20  21
ATOM     21  O   UNK A   0     -34.721  28.458   3.773  0.00  0.00    -0.450 OA
BRANCH  21  22
ATOM     22  C   UNK A   0     -34.922  29.305   2.637  0.00  0.00    +0.208 C 
ATOM     23  C   UNK A   0     -34.845  30.751   3.079  0.00  0.00    +0.051 C 
ENDBRANCH  21  22
ENDBRANCH  20  21
ENDBRANCH  18  20
BRANCH  18  24
ATOM     24  C   UNK A   0     -33.980  26.239   5.792  0.00  0.00    -0.006 C 
BRANCH  24  25
ATOM     25  C   UNK A   0     -35.314  25.709   5.245  0.00  0.00    +0.025 C 
BRANCH  25  26
ATOM     26  C   UNK A   0     -35.330  24.217   5.021  0.00  0.00    -0.022 C 
ATOM     27  C   UNK A   0     -35.456  23.723   3.732  0.00  0.00    -0.004 C 
ATOM     28  C   UNK A   0     -35.219  23.364   6.109  0.00  0.00    -0.004 C 
ATOM     29  C   UNK A   0     -35.471  22.344   3.525  0.00  0.00    -0.000 C 
ATOM     30  C   UNK A   0     -35.233  21.985   5.902  0.00  0.00    -0.000 C 
ATOM     31  C   UNK A   0     -35.360  21.475   4.610  0.00  0.00    -0.000 C 
ENDBRANCH  25  26
ENDBRANCH  24  25
ENDBRANCH  18  24
ENDBRANCH   1  18
TORSDOF 11
ENDMDL
MODEL 3
REMARK VINA RESULT:      -6.1      3.845      6.245
REMARK  Name = 5487891
REMARK  11 active torsions:
REMARK  status: ('A' for Active; 'I' for Inactive)
REMARK    1  A    between atoms: N_1  and  C_4
REMARK    2  A    between atoms: N_1  and  C_18
REMARK    3  A    between atoms: C_4  and  C_13
REMARK    4  A    between atoms: C_9  and  C_15
REMARK    5  A    between atoms: C_15  and  O_16
REMARK    6  A    between atoms: C_18  and  C_20
REMARK    7  A    between atoms: C_18  and  C_24
REMARK    8  A    between atoms: C_20  and  O_21
REMARK    9  A    between atoms: O_21  and  C_22
REMARK   10  A    between atoms: C_24  and  C_25
REMARK   11  A    between atoms: C_25  and  C_26
REMARK                            x       y       z     vdW  Elec       q    Type
REMARK                         _______ _______ _______ _____ _____    ______ ____
ROOT
ATOM      1  N   UNK A   1     -37.983  22.471   2.969  0.00  0.00    +0.399 N 
ATOM      2  H   UNK A   1     -38.881  22.357   3.440  0.00  0.00    -0.083 HD
ATOM      3  H   UNK A   1     -37.244  21.991   3.484  0.00  0.00    -0.083 HD
ENDROOT
BRANCH   1   4
ATOM      4  C   UNK A   1     -37.657  23.887   2.907  0.00  0.00    +0.018 C 
ATOM      5  C   UNK A   1     -38.833  24.735   3.347  0.00  0.00    -0.014 C 
BRANCH   4  13
ATOM      6  O   UNK A   1     -36.221  25.686   1.191  0.00  0.00    -0.274 OA
ATOM      7  O   UNK A   1     -36.460  23.572   4.939  0.00  0.00    -0.277 OA
ATOM      8  N   UNK A   1     -35.472  24.944   3.334  0.00  0.00    -0.223 N 
ATOM      9  C   UNK A   1     -34.276  25.190   4.122  0.00  0.00    +0.181 C 
ATOM     10  C   UNK A   1     -33.237  25.628   3.113  0.00  0.00    +0.041 C 
ATOM     11  C   UNK A   1     -34.052  26.321   2.031  0.00  0.00    +0.088 C 
ATOM     12  C   UNK A   1     -35.387  25.617   2.083  0.00  0.00    +0.232 C 
ATOM     13  C   UNK A   1     -36.486  24.108   3.829  0.00  0.00    +0.212 C 
BRANCH   9  15
ATOM     14  O   UNK A   1     -33.807  26.783   5.882  0.00  0.00    -0.248 OA
ATOM     15  C   UNK A   1     -34.601  26.283   5.099  0.00  0.00    +0.332 C 
BRANCH  15  16
ATOM     16  O   UNK A   1     -35.904  26.643   4.998  0.00  0.00    -0.479 OA
ATOM     17  H   UNK A   1     -36.304  26.728   4.155  0.00  0.00    +0.295 HD
ENDBRANCH  15  16
ENDBRANCH   9  15
ENDBRANCH   4  13
ENDBRANCH   1   4
BRANCH   1  18
ATOM     18  C   UNK A   0     -38.068  21.894   1.633  0.00  0.00    +0.041 C 
BRANCH  18  20
ATOM     19  O   UNK A   0     -40.314  21.105   2.174  0.00  0.00    -0.252 OA
ATOM     20  C   UNK A   0     -39.530  21.579   1.363  0.00  0.00    +0.297 C 
BRANCH  20  21
ATOM     21  O   UNK A   0     -39.829  21.916   0.072  0.00  0.00    -0.450 OA
BRANCH  21  22
ATOM     22  C   UNK A   0     -39.766  23.314  -0.231  0.00  0.00    +0.208 C 
ATOM     23  C   UNK A   0     -40.985  24.000   0.348  0.00  0.00    +0.051 C 
ENDBRANCH  21  22
ENDBRANCH  20  21
ENDBRANCH  18  20
BRANCH  18  24
ATOM     24  C   UNK A   0     -37.231  20.611   1.515  0.00  0.00    -0.006 C 
BRANCH  24  25
ATOM     25  C   UNK A   0     -35.952  20.582   2.364  0.00  0.00    +0.025 C 
BRANCH  25  26
ATOM     26  C   UNK A   0     -34.683  20.538   1.550  0.00  0.00    -0.022 C 
ATOM     27  C   UNK A   0     -33.901  19.392   1.569  0.00  0.00    -0.004 C 
ATOM     28  C   UNK A   0     -34.318  21.644   0.796  0.00  0.00    -0.004 C 
ATOM     29  C   UNK A   0     -32.728  19.352   0.816  0.00  0.00    -0.000 C 
ATOM     30  C   UNK A   0     -33.145  21.602   0.044  0.00  0.00    -0.000 C 
ATOM     31  C   UNK A   0     -32.349  20.456   0.054  0.00  0.00    -0.000 C 
ENDBRANCH  25  26
ENDBRANCH  24  25
ENDBRANCH  18  24
ENDBRANCH   1  18
TORSDOF 11
ENDMDL
MODEL 4
REMARK VINA RESULT:      -6.1      2.916      5.821
REMARK  Name = 5487891
REMARK  11 active torsions:
REMARK  status: ('A' for Active; 'I' for Inactive)
REMARK    1  A    between atoms: N_1  and  C_4
REMARK    2  A    between atoms: N_1  and  C_18
REMARK    3  A    between atoms: C_4  and  C_13
REMARK    4  A    between atoms: C_9  and  C_15
REMARK    5  A    between atoms: C_15  and  O_16
REMARK    6  A    between atoms: C_18  and  C_20
REMARK    7  A    between atoms: C_18  and  C_24
REMARK    8  A    between atoms: C_20  and  O_21
REMARK    9  A    between atoms: O_21  and  C_22
REMARK   10  A    between atoms: C_24  and  C_25
REMARK   11  A    between atoms: C_25  and  C_26
REMARK                            x       y       z     vdW  Elec       q    Type
REMARK                         _______ _______ _______ _____ _____    ______ ____
ROOT
ATOM      1  N   UNK A   1     -35.321  27.277   3.955  0.00  0.00    +0.399 N 
ATOM      2  H   UNK A   1     -35.048  28.098   4.496  0.00  0.00    -0.083 HD
ATOM      3  H   UNK A   1     -36.303  27.052   4.115  0.00  0.00    -0.083 HD
ENDROOT
BRANCH   1   4
ATOM      4  C   UNK A   1     -34.513  26.143   4.373  0.00  0.00    +0.018 C 
ATOM      5  C   UNK A   1     -33.697  26.481   5.605  0.00  0.00    -0.014 C 
BRANCH   4  13
ATOM      6  O   UNK A   1     -33.856  24.535   2.086  0.00  0.00    -0.274 OA
ATOM      7  O   UNK A   1     -36.155  25.042   5.696  0.00  0.00    -0.277 OA
ATOM      8  N   UNK A   1     -35.492  23.973   3.734  0.00  0.00    -0.223 N 
ATOM      9  C   UNK A   1     -36.405  22.856   3.904  0.00  0.00    +0.181 C 
ATOM     10  C   UNK A   1     -36.557  22.272   2.516  0.00  0.00    +0.041 C 
ATOM     11  C   UNK A   1     -35.218  22.559   1.853  0.00  0.00    +0.088 C 
ATOM     12  C   UNK A   1     -34.749  23.826   2.528  0.00  0.00    +0.232 C 
ATOM     13  C   UNK A   1     -35.464  25.015   4.675  0.00  0.00    +0.212 C 
BRANCH   9  15
ATOM     14  O   UNK A   1     -35.036  20.957   4.515  0.00  0.00    -0.248 OA
ATOM     15  C   UNK A   1     -35.756  21.887   4.849  0.00  0.00    +0.332 C 
BRANCH  15  16
ATOM     16  O   UNK A   1     -36.080  22.179   6.132  0.00  0.00    -0.479 OA
ATOM     17  H   UNK A   1     -35.420  22.482   6.725  0.00  0.00    +0.295 HD
ENDBRANCH  15  16
ENDBRANCH   9  15
ENDBRANCH   4  13
ENDBRANCH   1   4
BRANCH   1  18
ATOM     18  C   UNK A   0     -35.136  27.558   2.537  0.00  0.00    +0.041 C 
BRANCH  18  20
ATOM     19  O   UNK A   0     -33.525  29.131   1.593  0.00  0.00    -0.252 OA
ATOM     20  C   UNK A   0     -34.385  28.874   2.425  0.00  0.00    +0.297 C 
BRANCH  20  21
ATOM     21  O   UNK A   0     -34.830  29.727   3.397  0.00  0.00    -0.450 OA
BRANCH  21  22
ATOM     22  C   UNK A   0     -34.891  31.108   3.026  0.00  0.00    +0.208 C 
ATOM     23  C   UNK A   0     -36.170  31.355   2.255  0.00  0.00    +0.051 C 
ENDBRANCH  21  22
ENDBRANCH  20  21
ENDBRANCH  18  20
BRANCH  18  24
ATOM     24  C   UNK A   0     -36.479  27.665   1.799  0.00  0.00    -0.006 C 
BRANCH  24  25
ATOM     25  C   UNK A   0     -36.812  26.489   0.869  0.00  0.00    +0.025 C 
BRANCH  25  26
ATOM     26  C   UNK A   0     -37.935  25.615   1.370  0.00  0.00    -0.022 C 
ATOM     27  C   UNK A   0     -38.478  24.656   0.529  0.00  0.00    -0.004 C 
ATOM     28  C   UNK A   0     -38.404  25.785   2.664  0.00  0.00    -0.004 C 
ATOM     29  C   UNK A   0     -39.516  23.848   0.993  0.00  0.00    -0.000 C 
ATOM     30  C   UNK A   0     -39.442  24.976   3.127  0.00  0.00    -0.000 C 
ATOM     31  C   UNK A   0     -39.998  24.008   2.291  0.00  0.00    -0.000 C 
ENDBRANCH  25  26
ENDBRANCH  24  25
ENDBRANCH  18  24
ENDBRANCH   1  18
TORSDOF 11
ENDMDL
MODEL 5
REMARK VINA RESULT:      -6.0      4.921      8.447
REMARK  Name = 5487891
REMARK  11 active torsions:
REMARK  status: ('A' for Active; 'I' for Inactive)
REMARK    1  A    between atoms: N_1  and  C_4
REMARK    2  A    between atoms: N_1  and  C_18
REMARK    3  A    between atoms: C_4  and  C_13
REMARK    4  A    between atoms: C_9  and  C_15
REMARK    5  A    between atoms: C_15  and  O_16
REMARK    6  A    between atoms: C_18  and  C_20
REMARK    7  A    between atoms: C_18  and  C_24
REMARK    8  A    between atoms: C_20  and  O_21
REMARK    9  A    between atoms: O_21  and  C_22
REMARK   10  A    between atoms: C_24  and  C_25
REMARK   11  A    between atoms: C_25  and  C_26
REMARK                            x       y       z     vdW  Elec       q    Type
REMARK                         _______ _______ _______ _____ _____    ______ ____
ROOT
ATOM      1  N   UNK A   1     -37.395  20.647   1.962  0.00  0.00    +0.399 N 
ATOM      2  H   UNK A   1     -37.539  19.650   1.801  0.00  0.00    -0.083 HD
ATOM      3  H   UNK A   1     -37.688  20.904   2.905  0.00  0.00    -0.083 HD
ENDROOT
BRANCH   1   4
ATOM      4  C   UNK A   1     -38.192  21.402   1.009  0.00  0.00    +0.018 C 
ATOM      5  C   UNK A   1     -38.934  20.476   0.066  0.00  0.00    -0.014 C 
BRANCH   4  13
ATOM      6  O   UNK A   1     -36.893  23.934   0.630  0.00  0.00    -0.274 OA
ATOM      7  O   UNK A   1     -40.158  21.685   2.317  0.00  0.00    -0.277 OA
ATOM      8  N   UNK A   1     -38.875  23.589   1.917  0.00  0.00    -0.223 N 
ATOM      9  C   UNK A   1     -39.730  24.463   2.702  0.00  0.00    +0.181 C 
ATOM     10  C   UNK A   1     -38.853  25.649   3.042  0.00  0.00    +0.041 C 
ATOM     11  C   UNK A   1     -37.901  25.747   1.859  0.00  0.00    +0.088 C 
ATOM     12  C   UNK A   1     -37.778  24.321   1.379  0.00  0.00    +0.232 C 
ATOM     13  C   UNK A   1     -39.171  22.220   1.808  0.00  0.00    +0.212 C 
BRANCH   9  15
ATOM     14  O   UNK A   1     -41.181  24.325   0.771  0.00  0.00    -0.248 OA
ATOM     15  C   UNK A   1     -40.888  24.857   1.831  0.00  0.00    +0.332 C 
BRANCH  15  16
ATOM     16  O   UNK A   1     -41.568  25.893   2.380  0.00  0.00    -0.479 OA
ATOM     17  H   UNK A   1     -42.148  26.405   1.852  0.00  0.00    +0.295 HD
ENDBRANCH  15  16
ENDBRANCH   9  15
ENDBRANCH   4  13
ENDBRANCH   1   4
BRANCH   1  18
ATOM     18  C   UNK A   0     -35.977  20.952   1.818  0.00  0.00    +0.041 C 
BRANCH  18  20
ATOM     19  O   UNK A   0     -35.702  18.996   0.384  0.00  0.00    -0.252 OA
ATOM     20  C   UNK A   0     -35.290  19.702   1.294  0.00  0.00    +0.297 C 
BRANCH  20  21
ATOM     21  O   UNK A   0     -34.134  19.499   1.997  0.00  0.00    -0.450 OA
BRANCH  21  22
ATOM     22  C   UNK A   0     -33.116  18.763   1.310  0.00  0.00    +0.208 C 
ATOM     23  C   UNK A   0     -32.256  19.729   0.523  0.00  0.00    +0.051 C 
ENDBRANCH  21  22
ENDBRANCH  20  21
ENDBRANCH  18  20
BRANCH  18  24
ATOM     24  C   UNK A   0     -35.346  21.365   3.157  0.00  0.00    -0.006 C 
BRANCH  24  25
ATOM     25  C   UNK A   0     -36.186  22.331   4.007  0.00  0.00    +0.025 C 
BRANCH  25  26
ATOM     26  C   UNK A   0     -35.526  23.667   4.241  0.00  0.00    -0.022 C 
ATOM     27  C   UNK A   0     -34.607  24.143   3.318  0.00  0.00    -0.004 C 
ATOM     28  C   UNK A   0     -35.851  24.397   5.375  0.00  0.00    -0.004 C 
ATOM     29  C   UNK A   0     -33.998  25.379   3.535  0.00  0.00    -0.000 C 
ATOM     30  C   UNK A   0     -35.241  25.633   5.590  0.00  0.00    -0.000 C 
ATOM     31  C   UNK A   0     -34.314  26.124   4.670  0.00  0.00    -0.000 C 
ENDBRANCH  25  26
ENDBRANCH  24  25
ENDBRANCH  18  24
ENDBRANCH   1  18
TORSDOF 11
ENDMDL
MODEL 6
REMARK VINA RESULT:      -6.0      3.622      6.252
REMARK  Name = 5487891
REMARK  11 active torsions:
REMARK  status: ('A' for Active; 'I' for Inactive)
REMARK    1  A    between atoms: N_1  and  C_4
REMARK    2  A    between atoms: N_1  and  C_18
REMARK    3  A    between atoms: C_4  and  C_13
REMARK    4  A    between atoms: C_9  and  C_15
REMARK    5  A    between atoms: C_15  and  O_16
REMARK    6  A    between atoms: C_18  and  C_20
REMARK    7  A    between atoms: C_18  and  C_24
REMARK    8  A    between atoms: C_20  and  O_21
REMARK    9  A    between atoms: O_21  and  C_22
REMARK   10  A    between atoms: C_24  and  C_25
REMARK   11  A    between atoms: C_25  and  C_26
REMARK                            x       y       z     vdW  Elec       q    Type
REMARK                         _______ _______ _______ _____ _____    ______ ____
ROOT
ATOM      1  N   UNK A   1     -36.553  22.212   4.053  0.00  0.00    +0.399 N 
ATOM      2  H   UNK A   1     -37.376  22.686   3.682  0.00  0.00    -0.083 HD
ATOM      3  H   UNK A   1     -36.811  21.317   4.469  0.00  0.00    -0.083 HD
ENDROOT
BRANCH   1   4
ATOM      4  C   UNK A   1     -35.950  23.043   5.083  0.00  0.00    +0.018 C 
ATOM      5  C   UNK A   1     -35.026  22.229   5.967  0.00  0.00    -0.014 C 
BRANCH   4  13
ATOM      6  O   UNK A   1     -38.221  24.481   4.073  0.00  0.00    -0.274 OA
ATOM      7  O   UNK A   1     -33.941  24.137   4.432  0.00  0.00    -0.277 OA
ATOM      8  N   UNK A   1     -35.940  25.070   3.680  0.00  0.00    -0.223 N 
ATOM      9  C   UNK A   1     -35.290  26.128   2.926  0.00  0.00    +0.181 C 
ATOM     10  C   UNK A   1     -36.328  26.571   1.918  0.00  0.00    +0.041 C 
ATOM     11  C   UNK A   1     -37.652  26.324   2.627  0.00  0.00    +0.088 C 
ATOM     12  C   UNK A   1     -37.355  25.161   3.543  0.00  0.00    +0.232 C 
ATOM     13  C   UNK A   1     -35.172  24.122   4.376  0.00  0.00    +0.212 C 
BRANCH   9  15
ATOM     14  O   UNK A   1     -34.532  27.051   5.030  0.00  0.00    -0.248 OA
ATOM     15  C   UNK A   1     -34.950  27.223   3.895  0.00  0.00    +0.332 C 
BRANCH  15  16
ATOM     16  O   UNK A   1     -35.174  28.439   3.340  0.00  0.00    -0.479 OA
ATOM     17  H   UNK A   1     -35.618  29.103   3.829  0.00  0.00    +0.295 HD
ENDBRANCH  15  16
ENDBRANCH   9  15
ENDBRANCH   4  13
ENDBRANCH   1   4
BRANCH   1  18
ATOM     18  C   UNK A   0     -35.615  21.965   2.965  0.00  0.00    +0.041 C 
BRANCH  18  20
ATOM     19  O   UNK A   0     -35.793  22.915   0.723  0.00  0.00    -0.252 OA
ATOM     20  C   UNK A   0     -36.313  22.335   1.666  0.00  0.00    +0.297 C 
BRANCH  20  21
ATOM     21  O   UNK A   0     -37.612  21.910   1.719  0.00  0.00    -0.450 OA
BRANCH  21  22
ATOM     22  C   UNK A   0     -38.429  22.281   0.604  0.00  0.00    +0.208 C 
ATOM     23  C   UNK A   0     -39.510  23.229   1.079  0.00  0.00    +0.051 C 
ENDBRANCH  21  22
ENDBRANCH  20  21
ENDBRANCH  18  20
BRANCH  18  24
ATOM     24  C   UNK A   0     -35.179  20.492   2.915  0.00  0.00    -0.006 C 
BRANCH  24  25
ATOM     25  C   UNK A   0     -35.064  19.889   1.508  0.00  0.00    +0.025 C 
BRANCH  25  26
ATOM     26  C   UNK A   0     -33.645  19.614   1.078  0.00  0.00    -0.022 C 
ATOM     27  C   UNK A   0     -32.970  20.555   0.316  0.00  0.00    -0.004 C 
ATOM     28  C   UNK A   0     -33.039  18.424   1.453  0.00  0.00    -0.004 C 
ATOM     29  C   UNK A   0     -31.657  20.299  -0.082  0.00  0.00    -0.000 C 
ATOM     30  C   UNK A   0     -31.726  18.169   1.055  0.00  0.00    -0.000 C 
ATOM     31  C   UNK A   0     -31.036  19.107   0.288  0.00  0.00    -0.000 C 
ENDBRANCH  25  26
ENDBRANCH  24  25
ENDBRANCH  18  24
ENDBRANCH   1  18
TORSDOF 11
ENDMDL
MODEL 7
REMARK VINA RESULT:      -6.0      2.246      4.153
REMARK  Name = 5487891
REMARK  11 active torsions:
REMARK  status: ('A' for Active; 'I' for Inactive)
REMARK    1  A    between atoms: N_1  and  C_4
REMARK    2  A    between atoms: N_1  and  C_18
REMARK    3  A    between atoms: C_4  and  C_13
REMARK    4  A    between atoms: C_9  and  C_15
REMARK    5  A    between atoms: C_15  and  O_16
REMARK    6  A    between atoms: C_18  and  C_20
REMARK    7  A    between atoms: C_18  and  C_24
REMARK    8  A    between atoms: C_20  and  O_21
REMARK    9  A    between atoms: O_21  and  C_22
REMARK   10  A    between atoms: C_24  and  C_25
REMARK   11  A    between atoms: C_25  and  C_26
REMARK                            x       y       z     vdW  Elec       q    Type
REMARK                         _______ _______ _______ _____ _____    ______ ____
ROOT
ATOM      1  N   UNK A   1     -34.113  25.491   3.665  0.00  0.00    +0.399 N 
ATOM      2  H   UNK A   1     -33.804  25.145   4.573  0.00  0.00    -0.083 HD
ATOM      3  H   UNK A   1     -33.721  24.926   2.912  0.00  0.00    -0.083 HD
ENDROOT
BRANCH   1   4
ATOM      4  C   UNK A   1     -33.658  26.862   3.499  0.00  0.00    +0.018 C 
ATOM      5  C   UNK A   1     -34.827  27.799   3.272  0.00  0.00    -0.014 C 
BRANCH   4  13
ATOM      6  O   UNK A   1     -31.729  28.595   2.267  0.00  0.00    -0.274 OA
ATOM      7  O   UNK A   1     -33.312  26.804   5.852  0.00  0.00    -0.277 OA
ATOM      8  N   UNK A   1     -31.829  28.093   4.600  0.00  0.00    -0.223 N 
ATOM      9  C   UNK A   1     -31.029  28.484   5.748  0.00  0.00    +0.181 C 
ATOM     10  C   UNK A   1     -29.697  28.900   5.161  0.00  0.00    +0.041 C 
ATOM     11  C   UNK A   1     -30.060  29.442   3.786  0.00  0.00    +0.088 C 
ATOM     12  C   UNK A   1     -31.294  28.659   3.408  0.00  0.00    +0.232 C 
ATOM     13  C   UNK A   1     -32.931  27.239   4.763  0.00  0.00    +0.212 C 
BRANCH   9  15
ATOM     14  O   UNK A   1     -32.410  30.469   5.832  0.00  0.00    -0.248 OA
ATOM     15  C   UNK A   1     -31.729  29.635   6.411  0.00  0.00    +0.332 C 
BRANCH  15  16
ATOM     16  O   UNK A   1     -31.502  29.627   7.747  0.00  0.00    -0.479 OA
ATOM     17  H   UNK A   1     -32.004  29.066   8.305  0.00  0.00    +0.295 HD
ENDBRANCH  15  16
ENDBRANCH   9  15
ENDBRANCH   4  13
ENDBRANCH   1   4
BRANCH   1  18
ATOM     18  C   UNK A   0     -35.567  25.410   3.596  0.00  0.00    +0.041 C 
BRANCH  18  20
ATOM     19  O   UNK A   0     -36.365  25.874   5.856  0.00  0.00    -0.252 OA
ATOM     20  C   UNK A   0     -36.074  25.065   4.986  0.00  0.00    +0.297 C 
BRANCH  20  21
ATOM     21  O   UNK A   0     -36.160  23.705   5.106  0.00  0.00    -0.450 OA
BRANCH  21  22
ATOM     22  C   UNK A   0     -35.200  23.100   5.979  0.00  0.00    +0.208 C 
ATOM     23  C   UNK A   0     -35.418  21.602   5.989  0.00  0.00    +0.051 C 
ENDBRANCH  21  22
ENDBRANCH  20  21
ENDBRANCH  18  20
BRANCH  18  24
ATOM     24  C   UNK A   0     -36.029  24.338   2.596  0.00  0.00    -0.006 C 
BRANCH  24  25
ATOM     25  C   UNK A   0     -34.999  23.957   1.522  0.00  0.00    +0.025 C 
BRANCH  25  26
ATOM     26  C   UNK A   0     -34.710  22.478   1.454  0.00  0.00    -0.022 C 
ATOM     27  C   UNK A   0     -33.810  22.003   0.511  0.00  0.00    -0.004 C 
ATOM     28  C   UNK A   0     -35.348  21.618   2.335  0.00  0.00    -0.004 C 
ATOM     29  C   UNK A   0     -33.543  20.636   0.448  0.00  0.00    -0.000 C 
ATOM     30  C   UNK A   0     -35.080  20.251   2.271  0.00  0.00    -0.000 C 
ATOM     31  C   UNK A   0     -34.178  19.760   1.328  0.00  0.00    -0.000 C 
ENDBRANCH  25  26
ENDBRANCH  24  25
ENDBRANCH  18  24
ENDBRANCH   1  18
TORSDOF 11
ENDMDL
MODEL 8
REMARK VINA RESULT:      -5.9      5.595      8.772
REMARK  Name = 5487891
REMARK  11 active torsions:
REMARK  status: ('A' for Active; 'I' for Inactive)
REMARK    1  A    between atoms: N_1  and  C_4
REMARK    2  A    between atoms: N_1  and  C_18
REMARK    3  A    between atoms: C_4  and  C_13
REMARK    4  A    between atoms: C_9  and  C_15
REMARK    5  A    between atoms: C_15  and  O_16
REMARK    6  A    between atoms: C_18  and  C_20
REMARK    7  A    between atoms: C_18  and  C_24
REMARK    8  A    between atoms: C_20  and  O_21
REMARK    9  A    between atoms: O_21  and  C_22
REMARK   10  A    between atoms: C_24  and  C_25
REMARK   11  A    between atoms: C_25  and  C_26
REMARK                            x       y       z     vdW  Elec       q    Type
REMARK                         _______ _______ _______ _____ _____    ______ ____
ROOT
ATOM      1  N   UNK A   1     -37.215  20.799   2.577  0.00  0.00    +0.399 N 
ATOM      2  H   UNK A   1     -37.344  19.791   2.484  0.00  0.00    -0.083 HD
ATOM      3  H   UNK A   1     -37.758  21.160   3.361  0.00  0.00    -0.083 HD
ENDROOT
BRANCH   1   4
ATOM      4  C   UNK A   1     -37.671  21.450   1.360  0.00  0.00    +0.018 C 
ATOM      5  C   UNK A   1     -37.897  20.439   0.254  0.00  0.00    -0.014 C 
BRANCH   4  13
ATOM      6  O   UNK A   1     -36.980  23.989   0.210  0.00  0.00    -0.274 OA
ATOM      7  O   UNK A   1     -39.871  21.537   2.260  0.00  0.00    -0.277 OA
ATOM      8  N   UNK A   1     -39.038  23.501   1.320  0.00  0.00    -0.223 N 
ATOM      9  C   UNK A   1     -40.221  24.283   1.635  0.00  0.00    +0.181 C 
ATOM     10  C   UNK A   1     -39.748  25.720   1.602  0.00  0.00    +0.041 C 
ATOM     11  C   UNK A   1     -38.628  25.711   0.572  0.00  0.00    +0.088 C 
ATOM     12  C   UNK A   1     -38.067  24.312   0.668  0.00  0.00    +0.232 C 
ATOM     13  C   UNK A   1     -38.962  22.149   1.694  0.00  0.00    +0.212 C 
BRANCH   9  15
ATOM     14  O   UNK A   1     -40.988  23.535  -0.534  0.00  0.00    -0.248 OA
ATOM     15  C   UNK A   1     -41.238  24.006   0.565  0.00  0.00    +0.332 C 
BRANCH  15  16
ATOM     16  O   UNK A   1     -42.479  24.354   0.984  0.00  0.00    -0.479 OA
ATOM     17  H   UNK A   1     -42.595  24.761   1.820  0.00  0.00    +0.295 HD
ENDBRANCH  15  16
ENDBRANCH   9  15
ENDBRANCH   4  13
ENDBRANCH   1   4
BRANCH   1  18
ATOM     18  C   UNK A   0     -35.805  21.077   2.823  0.00  0.00    +0.041 C 
BRANCH  18  20
ATOM     19  O   UNK A   0     -35.018  23.382   2.653  0.00  0.00    -0.252 OA
ATOM     20  C   UNK A   0     -35.690  22.537   3.229  0.00  0.00    +0.297 C 
BRANCH  20  21
ATOM     21  O   UNK A   0     -36.463  22.755   4.336  0.00  0.00    -0.450 OA
BRANCH  21  22
ATOM     22  C   UNK A   0     -35.771  23.261   5.483  0.00  0.00    +0.208 C 
ATOM     23  C   UNK A   0     -35.198  22.098   6.265  0.00  0.00    +0.051 C 
ENDBRANCH  21  22
ENDBRANCH  20  21
ENDBRANCH  18  20
BRANCH  18  24
ATOM     24  C   UNK A   0     -34.949  20.819   1.573  0.00  0.00    -0.006 C 
BRANCH  24  25
ATOM     25  C   UNK A   0     -34.483  19.368   1.386  0.00  0.00    +0.025 C 
BRANCH  25  26
ATOM     26  C   UNK A   0     -33.047  19.243   0.939  0.00  0.00    -0.022 C 
ATOM     27  C   UNK A   0     -32.476  20.260   0.191  0.00  0.00    -0.004 C 
ATOM     28  C   UNK A   0     -32.323  18.112   1.285  0.00  0.00    -0.004 C 
ATOM     29  C   UNK A   0     -31.149  20.144  -0.222  0.00  0.00    -0.000 C 
ATOM     30  C   UNK A   0     -30.996  17.997   0.872  0.00  0.00    -0.000 C 
ATOM     31  C   UNK A   0     -30.409  19.013   0.118  0.00  0.00    -0.000 C 
ENDBRANCH  25  26
ENDBRANCH  24  25
ENDBRANCH  18  24
ENDBRANCH   1  18
TORSDOF 11
ENDMDL
MODEL 9
REMARK VINA RESULT:      -5.9      4.013      6.740
REMARK  Name = 5487891
REMARK  11 active torsions:
REMARK  status: ('A' for Active; 'I' for Inactive)
REMARK    1  A    between atoms: N_1  and  C_4
REMARK    2  A    between atoms: N_1  and  C_18
REMARK    3  A    between atoms: C_4  and  C_13
REMARK    4  A    between atoms: C_9  and  C_15
REMARK    5  A    between atoms: C_15  and  O_16
REMARK    6  A    between atoms: C_18  and  C_20
REMARK    7  A    between atoms: C_18  and  C_24
REMARK    8  A    between atoms: C_20  and  O_21
REMARK    9  A    between atoms: O_21  and  C_22
REMARK   10  A    between atoms: C_24  and  C_25
REMARK   11  A    between atoms: C_25  and  C_26
REMARK                            x       y       z     vdW  Elec       q    Type
REMARK                         _______ _______ _______ _____ _____    ______ ____
ROOT
ATOM      1  N   UNK A   1     -38.219  22.626   2.811  0.00  0.00    +0.399 N 
ATOM      2  H   UNK A   1     -39.228  22.501   2.892  0.00  0.00    -0.083 HD
ATOM      3  H   UNK A   1     -37.734  22.133   3.561  0.00  0.00    -0.083 HD
ENDROOT
BRANCH   1   4
ATOM      4  C   UNK A   1     -37.907  24.042   2.912  0.00  0.00    +0.018 C 
ATOM      5  C   UNK A   1     -39.077  24.817   3.486  0.00  0.00    -0.014 C 
BRANCH   4  13
ATOM      6  O   UNK A   1     -36.445  25.900   1.283  0.00  0.00    -0.274 OA
ATOM      7  O   UNK A   1     -36.680  23.556   4.891  0.00  0.00    -0.277 OA
ATOM      8  N   UNK A   1     -35.679  24.997   3.357  0.00  0.00    -0.223 N 
ATOM      9  C   UNK A   1     -34.459  25.151   4.131  0.00  0.00    +0.181 C 
ATOM     10  C   UNK A   1     -33.427  25.619   3.129  0.00  0.00    +0.041 C 
ATOM     11  C   UNK A   1     -34.239  26.408   2.113  0.00  0.00    +0.088 C 
ATOM     12  C   UNK A   1     -35.596  25.747   2.149  0.00  0.00    +0.232 C 
ATOM     13  C   UNK A   1     -36.711  24.164   3.819  0.00  0.00    +0.212 C 
BRANCH   9  15
ATOM     14  O   UNK A   1     -33.896  26.619   5.970  0.00  0.00    -0.248 OA
ATOM     15  C   UNK A   1     -34.726  26.188   5.183  0.00  0.00    +0.332 C 
BRANCH  15  16
ATOM     16  O   UNK A   1     -36.022  26.585   5.147  0.00  0.00    -0.479 OA
ATOM     17  H   UNK A   1     -36.484  26.603   4.332  0.00  0.00    +0.295 HD
ENDBRANCH  15  16
ENDBRANCH   9  15
ENDBRANCH   4  13
ENDBRANCH   1   4
BRANCH   1  18
ATOM     18  C   UNK A   0     -37.773  22.081   1.534  0.00  0.00    +0.041 C 
BRANCH  18  20
ATOM     19  O   UNK A   0     -40.015  21.117   1.480  0.00  0.00    -0.252 OA
ATOM     20  C   UNK A   0     -38.932  21.299   0.940  0.00  0.00    +0.297 C 
BRANCH  20  21
ATOM     21  O   UNK A   0     -38.574  20.839  -0.298  0.00  0.00    -0.450 OA
BRANCH  21  22
ATOM     22  C   UNK A   0     -39.111  19.563  -0.661  0.00  0.00    +0.208 C 
ATOM     23  C   UNK A   0     -38.008  18.528  -0.596  0.00  0.00    +0.051 C 
ENDBRANCH  21  22
ENDBRANCH  20  21
ENDBRANCH  18  20
BRANCH  18  24
ATOM     24  C   UNK A   0     -36.559  21.155   1.706  0.00  0.00    -0.006 C 
BRANCH  24  25
ATOM     25  C   UNK A   0     -35.194  21.807   1.439  0.00  0.00    +0.025 C 
BRANCH  25  26
ATOM     26  C   UNK A   0     -34.101  20.820   1.117  0.00  0.00    -0.022 C 
ATOM     27  C   UNK A   0     -34.127  19.561   1.697  0.00  0.00    -0.004 C 
ATOM     28  C   UNK A   0     -33.087  21.188   0.245  0.00  0.00    -0.004 C 
ATOM     29  C   UNK A   0     -33.116  18.648   1.398  0.00  0.00    -0.000 C 
ATOM     30  C   UNK A   0     -32.076  20.274  -0.054  0.00  0.00    -0.000 C 
ATOM     31  C   UNK A   0     -32.090  19.004   0.524  0.00  0.00    -0.000 C 
ENDBRANCH  25  26
ENDBRANCH  24  25
ENDBRANCH  18  24
ENDBRANCH   1  18
TORSDOF 11
ENDMDL
