MODEL 1
REMARK VINA RESULT:      -6.5      0.000      0.000
REMARK  Name = 5026
REMARK  5 active torsions:
REMARK  status: ('A' for Active; 'I' for Inactive)
REMARK    1  A    between atoms: C_2  and  C_13
REMARK    2  A    between atoms: C_3  and  C_23
REMARK    3  A    between atoms: C_4  and  N_21
REMARK    4  A    between atoms: C_23  and  O_24
REMARK    5  A    between atoms: O_24  and  C_25
REMARK                            x       y       z     vdW  Elec       q    Type
REMARK                         _______ _______ _______ _____ _____    ______ ____
ROOT
ATOM      1  N   UNL     1     -35.522  21.329   4.084  0.00  0.00    -0.332 N 
ATOM      2  C   UNL     1     -35.578  23.936   2.935  0.00  0.00    +0.029 C 
ATOM      3  C   UNL     1     -35.505  23.678   4.448  0.00  0.00    +0.073 C 
ATOM      4  C   UNL     1     -35.488  22.644   2.149  0.00  0.00    +0.152 C 
ATOM      5  C   UNL     1     -35.493  22.418   4.948  0.00  0.00    +0.098 C 
ATOM      6  C   UNL     1     -35.478  21.416   2.700  0.00  0.00    +0.045 C 
ATOM      7  C   UNL     1     -35.458  22.065   6.411  0.00  0.00    +0.026 C 
ATOM      8  C   UNL     1     -35.416  20.097   1.980  0.00  0.00    +0.049 C 
ATOM      9  H   UNL     1     -35.578  20.431   4.484  0.00  0.00    +0.147 HD
ENDROOT
BRANCH   2  13
ATOM     10  O   UNL     1     -36.504  27.836   1.027  0.00  0.00    -0.242 OA
ATOM     11  N   UNL     1     -35.898  26.716   1.568  0.00  0.00    -0.048 NA
ATOM     12  N   UNL     1     -37.885  27.757   1.094  0.00  0.00    -0.048 NA
ATOM     13  C   UNL     1     -36.845  24.668   2.600  0.00  0.00    +0.024 C 
ATOM     14  C   UNL     1     -36.894  25.923   1.981  0.00  0.00    +0.143 A 
ATOM     15  C   UNL     1     -38.090  24.104   2.906  0.00  0.00    +0.002 C 
ATOM     16  C   UNL     1     -38.158  26.585   1.680  0.00  0.00    +0.143 A 
ATOM     17  C   UNL     1     -39.320  24.748   2.612  0.00  0.00    +0.002 C 
ATOM     18  C   UNL     1     -39.403  26.008   1.991  0.00  0.00    +0.024 C 
ENDBRANCH   2  13
BRANCH   4  21
ATOM     19  O   UNL     1     -36.354  22.635   0.046  0.00  0.00    -0.126 OA
ATOM     20  O   UNL     1     -34.205  23.039   0.314  0.00  0.00    -0.126 OA
ATOM     21  N   UNL     1     -35.339  22.782   0.740  0.00  0.00    +0.059 N 
ENDBRANCH   4  21
BRANCH   3  23
ATOM     22  O   UNL     1     -36.325  25.403   5.851  0.00  0.00    -0.245 OA
ATOM     23  C   UNL     1     -35.378  24.863   5.312  0.00  0.00    +0.339 C 
BRANCH  23  24
ATOM     24  O   UNL     1     -34.068  25.203   5.379  0.00  0.00    -0.449 OA
BRANCH  24  25
ATOM     25  C   UNL     1     -33.807  26.611   5.415  0.00  0.00    +0.169 C 
ATOM     26  C   UNL     1     -32.939  26.928   6.622  0.00  0.00    +0.047 C 
ATOM     27  C   UNL     1     -33.145  27.032   4.113  0.00  0.00    +0.047 C 
ENDBRANCH  24  25
ENDBRANCH  23  24
ENDBRANCH   3  23
TORSDOF 5
ENDMDL
MODEL 2
REMARK VINA RESULT:      -6.3      1.602      2.001
REMARK  Name = 5026
REMARK  5 active torsions:
REMARK  status: ('A' for Active; 'I' for Inactive)
REMARK    1  A    between atoms: C_2  and  C_13
REMARK    2  A    between atoms: C_3  and  C_23
REMARK    3  A    between atoms: C_4  and  N_21
REMARK    4  A    between atoms: C_23  and  O_24
REMARK    5  A    between atoms: O_24  and  C_25
REMARK                            x       y       z     vdW  Elec       q    Type
REMARK                         _______ _______ _______ _____ _____    ______ ____
ROOT
ATOM      1  N   UNL     1     -35.468  21.413   4.063  0.00  0.00    -0.332 N 
ATOM      2  C   UNL     1     -35.163  23.977   2.858  0.00  0.00    +0.029 C 
ATOM      3  C   UNL     1     -35.241  23.758   4.377  0.00  0.00    +0.073 C 
ATOM      4  C   UNL     1     -35.142  22.660   2.110  0.00  0.00    +0.152 C 
ATOM      5  C   UNL     1     -35.399  22.518   4.903  0.00  0.00    +0.098 C 
ATOM      6  C   UNL     1     -35.302  21.454   2.686  0.00  0.00    +0.045 C 
ATOM      7  C   UNL     1     -35.519  22.207   6.371  0.00  0.00    +0.026 C 
ATOM      8  C   UNL     1     -35.317  20.115   2.001  0.00  0.00    +0.049 C 
ATOM      9  H   UNL     1     -35.648  20.537   4.476  0.00  0.00    +0.147 HD
ENDROOT
BRANCH   2  13
ATOM     10  O   UNL     1     -39.579  23.561   3.029  0.00  0.00    -0.242 OA
ATOM     11  N   UNL     1     -38.209  23.392   3.131  0.00  0.00    -0.048 NA
ATOM     12  N   UNL     1     -39.907  24.751   2.402  0.00  0.00    -0.048 NA
ATOM     13  C   UNL     1     -36.317  24.822   2.402  0.00  0.00    +0.024 C 
ATOM     14  C   UNL     1     -37.664  24.478   2.568  0.00  0.00    +0.143 A 
ATOM     15  C   UNL     1     -36.089  26.047   1.761  0.00  0.00    +0.002 C 
ATOM     16  C   UNL     1     -38.743  25.341   2.104  0.00  0.00    +0.143 A 
ATOM     17  C   UNL     1     -37.139  26.887   1.310  0.00  0.00    +0.002 C 
ATOM     18  C   UNL     1     -38.501  26.570   1.463  0.00  0.00    +0.024 C 
ENDBRANCH   2  13
BRANCH   4  21
ATOM     19  O   UNL     1     -33.686  22.917   0.383  0.00  0.00    -0.126 OA
ATOM     20  O   UNL     1     -35.825  22.629  -0.059  0.00  0.00    -0.126 OA
ATOM     21  N   UNL     1     -34.865  22.741   0.716  0.00  0.00    +0.059 N 
ENDBRANCH   4  21
BRANCH   3  23
ATOM     22  O   UNL     1     -35.966  25.455   5.865  0.00  0.00    -0.245 OA
ATOM     23  C   UNL     1     -35.064  24.949   5.224  0.00  0.00    +0.339 C 
BRANCH  23  24
ATOM     24  O   UNL     1     -33.769  25.340   5.145  0.00  0.00    -0.449 OA
BRANCH  24  25
ATOM     25  C   UNL     1     -33.557  26.755   5.202  0.00  0.00    +0.169 C 
ATOM     26  C   UNL     1     -32.760  27.092   6.453  0.00  0.00    +0.047 C 
ATOM     27  C   UNL     1     -32.845  27.207   3.937  0.00  0.00    +0.047 C 
ENDBRANCH  24  25
ENDBRANCH  23  24
ENDBRANCH   3  23
TORSDOF 5
ENDMDL
MODEL 3
REMARK VINA RESULT:      -5.9      8.908     12.337
REMARK  Name = 5026
REMARK  5 active torsions:
REMARK  status: ('A' for Active; 'I' for Inactive)
REMARK    1  A    between atoms: C_2  and  C_13
REMARK    2  A    between atoms: C_3  and  C_23
REMARK    3  A    between atoms: C_4  and  N_21
REMARK    4  A    between atoms: C_23  and  O_24
REMARK    5  A    between atoms: O_24  and  C_25
REMARK                            x       y       z     vdW  Elec       q    Type
REMARK                         _______ _______ _______ _____ _____    ______ ____
ROOT
ATOM      1  N   UNL     1     -46.933  32.452   7.145  0.00  0.00    -0.332 N 
ATOM      2  C   UNL     1     -44.587  31.308   6.000  0.00  0.00    +0.029 C 
ATOM      3  C   UNL     1     -45.237  32.601   5.485  0.00  0.00    +0.073 C 
ATOM      4  C   UNL     1     -45.274  30.804   7.253  0.00  0.00    +0.152 C 
ATOM      5  C   UNL     1     -46.361  33.100   6.056  0.00  0.00    +0.098 C 
ATOM      6  C   UNL     1     -46.390  31.342   7.778  0.00  0.00    +0.045 C 
ATOM      7  C   UNL     1     -47.089  34.337   5.603  0.00  0.00    +0.026 C 
ATOM      8  C   UNL     1     -47.135  30.878   9.000  0.00  0.00    +0.049 C 
ATOM      9  H   UNL     1     -47.783  32.806   7.492  0.00  0.00    +0.147 HD
ENDROOT
BRANCH   2  13
ATOM     10  O   UNL     1     -41.644  28.367   4.451  0.00  0.00    -0.242 OA
ATOM     11  N   UNL     1     -42.308  29.367   5.140  0.00  0.00    -0.048 NA
ATOM     12  N   UNL     1     -42.445  27.788   3.482  0.00  0.00    -0.048 NA
ATOM     13  C   UNL     1     -44.614  30.257   4.928  0.00  0.00    +0.024 C 
ATOM     14  C   UNL     1     -43.535  29.425   4.608  0.00  0.00    +0.143 A 
ATOM     15  C   UNL     1     -45.772  30.055   4.166  0.00  0.00    +0.002 C 
ATOM     16  C   UNL     1     -43.622  28.421   3.553  0.00  0.00    +0.143 A 
ATOM     17  C   UNL     1     -45.857  29.077   3.140  0.00  0.00    +0.002 C 
ATOM     18  C   UNL     1     -44.791  28.226   2.795  0.00  0.00    +0.024 C 
ENDBRANCH   2  13
BRANCH   4  21
ATOM     19  O   UNL     1     -45.205  28.636   7.936  0.00  0.00    -0.126 OA
ATOM     20  O   UNL     1     -43.535  29.973   8.459  0.00  0.00    -0.126 OA
ATOM     21  N   UNL     1     -44.627  29.731   7.929  0.00  0.00    +0.059 N 
ENDBRANCH   4  21
BRANCH   3  23
ATOM     22  O   UNL     1     -43.474  33.873   4.541  0.00  0.00    -0.245 OA
ATOM     23  C   UNL     1     -44.538  33.300   4.395  0.00  0.00    +0.339 C 
BRANCH  23  24
ATOM     24  O   UNL     1     -45.278  33.181   3.266  0.00  0.00    -0.449 OA
BRANCH  24  25
ATOM     25  C   UNL     1     -44.564  33.400   2.045  0.00  0.00    +0.169 C 
ATOM     26  C   UNL     1     -44.216  32.058   1.420  0.00  0.00    +0.047 C 
ATOM     27  C   UNL     1     -45.411  34.256   1.116  0.00  0.00    +0.047 C 
ENDBRANCH  24  25
ENDBRANCH  23  24
ENDBRANCH   3  23
TORSDOF 5
ENDMDL
MODEL 4
REMARK VINA RESULT:      -5.9      2.191      5.057
REMARK  Name = 5026
REMARK  5 active torsions:
REMARK  status: ('A' for Active; 'I' for Inactive)
REMARK    1  A    between atoms: C_2  and  C_13
REMARK    2  A    between atoms: C_3  and  C_23
REMARK    3  A    between atoms: C_4  and  N_21
REMARK    4  A    between atoms: C_23  and  O_24
REMARK    5  A    between atoms: O_24  and  C_25
REMARK                            x       y       z     vdW  Elec       q    Type
REMARK                         _______ _______ _______ _____ _____    ______ ____
ROOT
ATOM      1  N   UNL     1     -36.029  27.305   0.998  0.00  0.00    -0.332 N 
ATOM      2  C   UNL     1     -36.163  25.585   3.267  0.00  0.00    +0.029 C 
ATOM      3  C   UNL     1     -34.905  26.375   2.875  0.00  0.00    +0.073 C 
ATOM      4  C   UNL     1     -37.337  25.938   2.375  0.00  0.00    +0.152 C 
ATOM      5  C   UNL     1     -34.887  27.172   1.778  0.00  0.00    +0.098 C 
ATOM      6  C   UNL     1     -37.261  26.739   1.297  0.00  0.00    +0.045 C 
ATOM      7  C   UNL     1     -33.696  27.956   1.295  0.00  0.00    +0.026 C 
ATOM      8  C   UNL     1     -38.377  27.108   0.359  0.00  0.00    +0.049 C 
ATOM      9  H   UNL     1     -35.960  27.840   0.175  0.00  0.00    +0.147 HD
ENDROOT
BRANCH   2  13
ATOM     10  O   UNL     1     -35.820  22.363   6.301  0.00  0.00    -0.242 OA
ATOM     11  N   UNL     1     -35.985  23.559   5.625  0.00  0.00    -0.048 NA
ATOM     12  N   UNL     1     -35.551  21.315   5.436  0.00  0.00    -0.048 NA
ATOM     13  C   UNL     1     -35.883  24.112   3.208  0.00  0.00    +0.024 C 
ATOM     14  C   UNL     1     -35.821  23.273   4.328  0.00  0.00    +0.143 A 
ATOM     15  C   UNL     1     -35.659  23.482   1.977  0.00  0.00    +0.002 C 
ATOM     16  C   UNL     1     -35.544  21.846   4.207  0.00  0.00    +0.143 A 
ATOM     17  C   UNL     1     -35.390  22.094   1.860  0.00  0.00    +0.002 C 
ATOM     18  C   UNL     1     -35.323  21.225   2.965  0.00  0.00    +0.024 C 
ENDBRANCH   2  13
BRANCH   4  21
ATOM     19  O   UNL     1     -39.347  26.179   3.410  0.00  0.00    -0.126 OA
ATOM     20  O   UNL     1     -38.857  24.249   2.466  0.00  0.00    -0.126 OA
ATOM     21  N   UNL     1     -38.600  25.420   2.778  0.00  0.00    +0.059 N 
ENDBRANCH   4  21
BRANCH   3  23
ATOM     22  O   UNL     1     -32.936  25.376   3.739  0.00  0.00    -0.245 OA
ATOM     23  C   UNL     1     -33.754  26.276   3.788  0.00  0.00    +0.339 C 
BRANCH  23  24
ATOM     24  O   UNL     1     -33.794  27.328   4.641  0.00  0.00    -0.449 OA
BRANCH  24  25
ATOM     25  C   UNL     1     -32.535  27.688   5.221  0.00  0.00    +0.169 C 
ATOM     26  C   UNL     1     -32.244  29.149   4.918  0.00  0.00    +0.047 C 
ATOM     27  C   UNL     1     -32.575  27.416   6.716  0.00  0.00    +0.047 C 
ENDBRANCH  24  25
ENDBRANCH  23  24
ENDBRANCH   3  23
TORSDOF 5
ENDMDL
MODEL 5
REMARK VINA RESULT:      -5.7      2.154      4.902
REMARK  Name = 5026
REMARK  5 active torsions:
REMARK  status: ('A' for Active; 'I' for Inactive)
REMARK    1  A    between atoms: C_2  and  C_13
REMARK    2  A    between atoms: C_3  and  C_23
REMARK    3  A    between atoms: C_4  and  N_21
REMARK    4  A    between atoms: C_23  and  O_24
REMARK    5  A    between atoms: O_24  and  C_25
REMARK                            x       y       z     vdW  Elec       q    Type
REMARK                         _______ _______ _______ _____ _____    ______ ____
ROOT
ATOM      1  N   UNL     1     -35.946  25.698   0.490  0.00  0.00    -0.332 N 
ATOM      2  C   UNL     1     -36.032  25.487   3.331  0.00  0.00    +0.029 C 
ATOM      3  C   UNL     1     -34.776  25.904   2.549  0.00  0.00    +0.073 C 
ATOM      4  C   UNL     1     -37.228  25.331   2.413  0.00  0.00    +0.152 C 
ATOM      5  C   UNL     1     -34.782  25.978   1.195  0.00  0.00    +0.098 C 
ATOM      6  C   UNL     1     -37.175  25.417   1.072  0.00  0.00    +0.045 C 
ATOM      7  C   UNL     1     -33.597  26.343   0.342  0.00  0.00    +0.026 C 
ATOM      8  C   UNL     1     -38.314  25.249   0.104  0.00  0.00    +0.049 C 
ATOM      9  H   UNL     1     -35.895  25.699  -0.493  0.00  0.00    +0.147 HD
ENDROOT
BRANCH   2  13
ATOM     10  O   UNL     1     -35.432  21.255   2.132  0.00  0.00    -0.242 OA
ATOM     11  N   UNL     1     -35.651  22.621   2.174  0.00  0.00    -0.048 NA
ATOM     12  N   UNL     1     -35.254  20.722   3.398  0.00  0.00    -0.048 NA
ATOM     13  C   UNL     1     -35.771  24.210   4.076  0.00  0.00    +0.024 C 
ATOM     14  C   UNL     1     -35.612  22.958   3.469  0.00  0.00    +0.143 A 
ATOM     15  C   UNL     1     -35.671  24.213   5.473  0.00  0.00    +0.002 C 
ATOM     16  C   UNL     1     -35.360  21.751   4.247  0.00  0.00    +0.143 A 
ATOM     17  C   UNL     1     -35.425  23.038   6.230  0.00  0.00    +0.002 C 
ATOM     18  C   UNL     1     -35.260  21.767   5.650  0.00  0.00    +0.024 C 
ENDBRANCH   2  13
BRANCH   4  21
ATOM     19  O   UNL     1     -39.143  26.165   3.310  0.00  0.00    -0.126 OA
ATOM     20  O   UNL     1     -38.824  23.985   3.314  0.00  0.00    -0.126 OA
ATOM     21  N   UNL     1     -38.484  25.148   3.056  0.00  0.00    +0.059 N 
ENDBRANCH   4  21
BRANCH   3  23
ATOM     22  O   UNL     1     -32.592  25.606   3.421  0.00  0.00    -0.245 OA
ATOM     23  C   UNL     1     -33.600  26.285   3.348  0.00  0.00    +0.339 C 
BRANCH  23  24
ATOM     24  O   UNL     1     -33.857  27.472   3.947  0.00  0.00    -0.449 OA
BRANCH  24  25
ATOM     25  C   UNL     1     -32.968  28.538   3.591  0.00  0.00    +0.169 C 
ATOM     26  C   UNL     1     -33.767  29.666   2.958  0.00  0.00    +0.047 C 
ATOM     27  C   UNL     1     -32.217  29.000   4.829  0.00  0.00    +0.047 C 
ENDBRANCH  24  25
ENDBRANCH  23  24
ENDBRANCH   3  23
TORSDOF 5
ENDMDL
MODEL 6
REMARK VINA RESULT:      -5.7      2.915      5.149
REMARK  Name = 5026
REMARK  5 active torsions:
REMARK  status: ('A' for Active; 'I' for Inactive)
REMARK    1  A    between atoms: C_2  and  C_13
REMARK    2  A    between atoms: C_3  and  C_23
REMARK    3  A    between atoms: C_4  and  N_21
REMARK    4  A    between atoms: C_23  and  O_24
REMARK    5  A    between atoms: O_24  and  C_25
REMARK                            x       y       z     vdW  Elec       q    Type
REMARK                         _______ _______ _______ _____ _____    ______ ____
ROOT
ATOM      1  N   UNL     1     -35.662  26.444   1.530  0.00  0.00    -0.332 N 
ATOM      2  C   UNL     1     -37.737  24.541   1.968  0.00  0.00    +0.029 C 
ATOM      3  C   UNL     1     -36.259  24.273   2.291  0.00  0.00    +0.073 C 
ATOM      4  C   UNL     1     -37.953  25.970   1.515  0.00  0.00    +0.152 C 
ATOM      5  C   UNL     1     -35.305  25.207   2.053  0.00  0.00    +0.098 C 
ATOM      6  C   UNL     1     -36.966  26.858   1.296  0.00  0.00    +0.045 C 
ATOM      7  C   UNL     1     -33.832  25.026   2.303  0.00  0.00    +0.026 C 
ATOM      8  C   UNL     1     -37.109  28.279   0.823  0.00  0.00    +0.049 C 
ATOM      9  H   UNL     1     -34.936  27.073   1.310  0.00  0.00    +0.147 HD
ENDROOT
BRANCH   2  13
ATOM     10  O   UNL     1     -40.541  21.099   1.953  0.00  0.00    -0.242 OA
ATOM     11  N   UNL     1     -39.750  22.186   2.284  0.00  0.00    -0.048 NA
ATOM     12  N   UNL     1     -40.424  20.764   0.615  0.00  0.00    -0.048 NA
ATOM     13  C   UNL     1     -38.216  23.579   0.920  0.00  0.00    +0.024 C 
ATOM     14  C   UNL     1     -39.129  22.544   1.153  0.00  0.00    +0.143 A 
ATOM     15  C   UNL     1     -37.749  23.678  -0.397  0.00  0.00    +0.002 C 
ATOM     16  C   UNL     1     -39.556  21.639   0.092  0.00  0.00    +0.143 A 
ATOM     17  C   UNL     1     -38.166  22.798  -1.430  0.00  0.00    +0.002 C 
ATOM     18  C   UNL     1     -39.082  21.750  -1.227  0.00  0.00    +0.024 C 
ENDBRANCH   2  13
BRANCH   4  21
ATOM     19  O   UNL     1     -39.779  26.440   0.243  0.00  0.00    -0.126 OA
ATOM     20  O   UNL     1     -39.918  26.657   2.431  0.00  0.00    -0.126 OA
ATOM     21  N   UNL     1     -39.309  26.384   1.388  0.00  0.00    +0.059 N 
ENDBRANCH   4  21
BRANCH   3  23
ATOM     22  O   UNL     1     -35.434  22.051   2.348  0.00  0.00    -0.245 OA
ATOM     23  C   UNL     1     -35.948  22.985   2.934  0.00  0.00    +0.339 C 
BRANCH  23  24
ATOM     24  O   UNL     1     -36.331  23.053   4.232  0.00  0.00    -0.449 OA
BRANCH  24  25
ATOM     25  C   UNL     1     -35.258  23.110   5.179  0.00  0.00    +0.169 C 
ATOM     26  C   UNL     1     -35.143  24.527   5.719  0.00  0.00    +0.047 C 
ATOM     27  C   UNL     1     -35.513  22.100   6.287  0.00  0.00    +0.047 C 
ENDBRANCH  24  25
ENDBRANCH  23  24
ENDBRANCH   3  23
TORSDOF 5
ENDMDL
MODEL 7
REMARK VINA RESULT:      -5.6      2.351      5.950
REMARK  Name = 5026
REMARK  5 active torsions:
REMARK  status: ('A' for Active; 'I' for Inactive)
REMARK    1  A    between atoms: C_2  and  C_13
REMARK    2  A    between atoms: C_3  and  C_23
REMARK    3  A    between atoms: C_4  and  N_21
REMARK    4  A    between atoms: C_23  and  O_24
REMARK    5  A    between atoms: O_24  and  C_25
REMARK                            x       y       z     vdW  Elec       q    Type
REMARK                         _______ _______ _______ _____ _____    ______ ____
ROOT
ATOM      1  N   UNL     1     -37.695  25.182   4.332  0.00  0.00    -0.332 N 
ATOM      2  C   UNL     1     -36.045  24.308   2.178  0.00  0.00    +0.029 C 
ATOM      3  C   UNL     1     -37.581  24.311   2.123  0.00  0.00    +0.073 C 
ATOM      4  C   UNL     1     -35.537  24.940   3.458  0.00  0.00    +0.152 C 
ATOM      5  C   UNL     1     -38.323  24.725   3.180  0.00  0.00    +0.098 C 
ATOM      6  C   UNL     1     -36.323  25.336   4.476  0.00  0.00    +0.045 C 
ATOM      7  C   UNL     1     -39.828  24.733   3.233  0.00  0.00    +0.026 C 
ATOM      8  C   UNL     1     -35.883  25.944   5.780  0.00  0.00    +0.049 C 
ATOM      9  H   UNL     1     -38.264  25.413   5.101  0.00  0.00    +0.147 HD
ENDROOT
BRANCH   2  13
ATOM     10  O   UNL     1     -33.483  22.206  -0.775  0.00  0.00    -0.242 OA
ATOM     11  N   UNL     1     -34.230  23.124  -0.058  0.00  0.00    -0.048 NA
ATOM     12  N   UNL     1     -33.490  20.957  -0.178  0.00  0.00    -0.048 NA
ATOM     13  C   UNL     1     -35.530  22.905   2.044  0.00  0.00    +0.024 C 
ATOM     14  C   UNL     1     -34.714  22.458   0.998  0.00  0.00    +0.143 A 
ATOM     15  C   UNL     1     -35.858  21.936   3.001  0.00  0.00    +0.002 C 
ATOM     16  C   UNL     1     -34.244  21.080   0.922  0.00  0.00    +0.143 A 
ATOM     17  C   UNL     1     -35.400  20.595   2.927  0.00  0.00    +0.002 C 
ATOM     18  C   UNL     1     -34.579  20.116   1.890  0.00  0.00    +0.024 C 
ENDBRANCH   2  13
BRANCH   4  21
ATOM     19  O   UNL     1     -33.503  24.595   4.415  0.00  0.00    -0.126 OA
ATOM     20  O   UNL     1     -33.651  25.942   2.677  0.00  0.00    -0.126 OA
ATOM     21  N   UNL     1     -34.135  25.175   3.521  0.00  0.00    +0.059 N 
ENDBRANCH   4  21
BRANCH   3  23
ATOM     22  O   UNL     1     -38.172  24.606  -0.153  0.00  0.00    -0.245 OA
ATOM     23  C   UNL     1     -38.195  23.912   0.846  0.00  0.00    +0.339 C 
BRANCH  23  24
ATOM     24  O   UNL     1     -38.753  22.688   1.004  0.00  0.00    -0.449 OA
BRANCH  24  25
ATOM     25  C   UNL     1     -38.730  21.854  -0.160  0.00  0.00    +0.169 C 
ATOM     26  C   UNL     1     -37.910  20.608   0.134  0.00  0.00    +0.047 C 
ATOM     27  C   UNL     1     -40.157  21.512  -0.560  0.00  0.00    +0.047 C 
ENDBRANCH  24  25
ENDBRANCH  23  24
ENDBRANCH   3  23
TORSDOF 5
ENDMDL
MODEL 8
REMARK VINA RESULT:      -5.5      2.366      3.392
REMARK  Name = 5026
REMARK  5 active torsions:
REMARK  status: ('A' for Active; 'I' for Inactive)
REMARK    1  A    between atoms: C_2  and  C_13
REMARK    2  A    between atoms: C_3  and  C_23
REMARK    3  A    between atoms: C_4  and  N_21
REMARK    4  A    between atoms: C_23  and  O_24
REMARK    5  A    between atoms: O_24  and  C_25
REMARK                            x       y       z     vdW  Elec       q    Type
REMARK                         _______ _______ _______ _____ _____    ______ ____
ROOT
ATOM      1  N   UNL     1     -35.012  23.732   5.488  0.00  0.00    -0.332 N 
ATOM      2  C   UNL     1     -35.223  23.735   2.646  0.00  0.00    +0.029 C 
ATOM      3  C   UNL     1     -34.777  24.957   3.465  0.00  0.00    +0.073 C 
ATOM      4  C   UNL     1     -35.408  22.516   3.528  0.00  0.00    +0.152 C 
ATOM      5  C   UNL     1     -34.704  24.909   4.818  0.00  0.00    +0.098 C 
ATOM      6  C   UNL     1     -35.320  22.528   4.870  0.00  0.00    +0.045 C 
ATOM      7  C   UNL     1     -34.312  26.060   5.706  0.00  0.00    +0.026 C 
ATOM      8  C   UNL     1     -35.516  21.364   5.804  0.00  0.00    +0.049 C 
ATOM      9  H   UNL     1     -35.010  23.753   6.473  0.00  0.00    +0.147 HD
ENDROOT
BRANCH   2  13
ATOM     10  O   UNL     1     -39.370  24.728   3.881  0.00  0.00    -0.242 OA
ATOM     11  N   UNL     1     -38.026  24.403   3.828  0.00  0.00    -0.048 NA
ATOM     12  N   UNL     1     -39.916  24.870   2.617  0.00  0.00    -0.048 NA
ATOM     13  C   UNL     1     -36.494  24.047   1.909  0.00  0.00    +0.024 C 
ATOM     14  C   UNL     1     -37.716  24.338   2.527  0.00  0.00    +0.143 A 
ATOM     15  C   UNL     1     -36.514  24.062   0.509  0.00  0.00    +0.002 C 
ATOM     16  C   UNL     1     -38.918  24.634   1.757  0.00  0.00    +0.143 A 
ATOM     17  C   UNL     1     -37.684  24.351  -0.241  0.00  0.00    +0.002 C 
ATOM     18  C   UNL     1     -38.926  24.647   0.350  0.00  0.00    +0.024 C 
ENDBRANCH   2  13
BRANCH   4  21
ATOM     19  O   UNL     1     -36.791  20.965   2.606  0.00  0.00    -0.126 OA
ATOM     20  O   UNL     1     -34.615  20.622   2.551  0.00  0.00    -0.126 OA
ATOM     21  N   UNL     1     -35.619  21.284   2.848  0.00  0.00    +0.059 N 
ENDBRANCH   4  21
BRANCH   3  23
ATOM     22  O   UNL     1     -33.348  26.201   2.041  0.00  0.00    -0.245 OA
ATOM     23  C   UNL     1     -34.369  26.147   2.701  0.00  0.00    +0.339 C 
BRANCH  23  24
ATOM     24  O   UNL     1     -35.307  27.108   2.874  0.00  0.00    -0.449 OA
BRANCH  24  25
ATOM     25  C   UNL     1     -35.490  27.987   1.758  0.00  0.00    +0.169 C 
ATOM     26  C   UNL     1     -36.868  27.753   1.158  0.00  0.00    +0.047 C 
ATOM     27  C   UNL     1     -35.308  29.426   2.217  0.00  0.00    +0.047 C 
ENDBRANCH  24  25
ENDBRANCH  23  24
ENDBRANCH   3  23
TORSDOF 5
ENDMDL
MODEL 9
REMARK VINA RESULT:      -5.5      2.178      4.967
REMARK  Name = 5026
REMARK  5 active torsions:
REMARK  status: ('A' for Active; 'I' for Inactive)
REMARK    1  A    between atoms: C_2  and  C_13
REMARK    2  A    between atoms: C_3  and  C_23
REMARK    3  A    between atoms: C_4  and  N_21
REMARK    4  A    between atoms: C_23  and  O_24
REMARK    5  A    between atoms: O_24  and  C_25
REMARK                            x       y       z     vdW  Elec       q    Type
REMARK                         _______ _______ _______ _____ _____    ______ ____
ROOT
ATOM      1  N   UNL     1     -36.687  22.503   4.001  0.00  0.00    -0.332 N 
ATOM      2  C   UNL     1     -36.272  25.208   3.208  0.00  0.00    +0.029 C 
ATOM      3  C   UNL     1     -37.244  24.255   2.494  0.00  0.00    +0.073 C 
ATOM      4  C   UNL     1     -35.673  24.565   4.442  0.00  0.00    +0.152 C 
ATOM      5  C   UNL     1     -37.398  22.971   2.903  0.00  0.00    +0.098 C 
ATOM      6  C   UNL     1     -35.863  23.282   4.801  0.00  0.00    +0.045 C 
ATOM      7  C   UNL     1     -38.298  21.956   2.250  0.00  0.00    +0.026 C 
ATOM      8  C   UNL     1     -35.281  22.577   5.995  0.00  0.00    +0.049 C 
ATOM      9  H   UNL     1     -36.776  21.549   4.229  0.00  0.00    +0.147 HD
ENDROOT
BRANCH   2  13
ATOM     10  O   UNL     1     -34.918  29.119   1.603  0.00  0.00    -0.242 OA
ATOM     11  N   UNL     1     -35.565  28.091   2.264  0.00  0.00    -0.048 NA
ATOM     12  N   UNL     1     -33.883  28.652   0.809  0.00  0.00    -0.048 NA
ATOM     13  C   UNL     1     -35.189  25.638   2.261  0.00  0.00    +0.024 C 
ATOM     14  C   UNL     1     -34.942  26.966   1.892  0.00  0.00    +0.143 A 
ATOM     15  C   UNL     1     -34.340  24.688   1.679  0.00  0.00    +0.002 C 
ATOM     16  C   UNL     1     -33.873  27.322   0.966  0.00  0.00    +0.143 A 
ATOM     17  C   UNL     1     -33.299  25.035   0.779  0.00  0.00    +0.002 C 
ATOM     18  C   UNL     1     -33.026  26.359   0.389  0.00  0.00    +0.024 C 
ENDBRANCH   2  13
BRANCH   4  21
ATOM     19  O   UNL     1     -33.687  25.321   5.251  0.00  0.00    -0.126 OA
ATOM     20  O   UNL     1     -35.556  26.217   6.000  0.00  0.00    -0.126 OA
ATOM     21  N   UNL     1     -34.921  25.427   5.289  0.00  0.00    +0.059 N 
ENDBRANCH   4  21
BRANCH   3  23
ATOM     22  O   UNL     1     -37.906  24.513   0.233  0.00  0.00    -0.245 OA
ATOM     23  C   UNL     1     -38.044  24.829   1.400  0.00  0.00    +0.339 C 
BRANCH  23  24
ATOM     24  O   UNL     1     -38.912  25.725   1.929  0.00  0.00    -0.449 OA
BRANCH  24  25
ATOM     25  C   UNL     1     -40.122  25.164   2.450  0.00  0.00    +0.169 C 
ATOM     26  C   UNL     1     -40.801  26.187   3.348  0.00  0.00    +0.047 C 
ATOM     27  C   UNL     1     -41.016  24.740   1.296  0.00  0.00    +0.047 C 
ENDBRANCH  24  25
ENDBRANCH  23  24
ENDBRANCH   3  23
TORSDOF 5
ENDMDL
