MODEL 1
REMARK VINA RESULT:      -5.3      0.000      0.000
REMARK  Name = 54480934
REMARK  5 active torsions:
REMARK  status: ('A' for Active; 'I' for Inactive)
REMARK    1  A    between atoms: N_3  and  C1*_11
REMARK    2  A    between atoms: N_4  and  N_19
REMARK    3  A    between atoms: C3*_10  and  O3*_14
REMARK    4  A    between atoms: C4*_13  and  C5*_16
REMARK    5  A    between atoms: C5*_16  and  O5*_17
REMARK                            x       y       z     vdW  Elec       q    Type
REMARK                         _______ _______ _______ _____ _____    ______ ____
ROOT
ATOM      1  O   UNL     1     -34.886  23.416   6.188  0.00  0.00    -0.250 OA
ATOM      2  O   UNL     1     -35.781  20.249   2.874  0.00  0.00    -0.268 OA
ATOM      3  N   UNL     1     -34.800  24.059   3.949  0.00  0.00    -0.217 N 
ATOM      4  N   UNL     1     -35.337  21.818   4.554  0.00  0.00    -0.155 N 
ATOM      5  C   UNL     1     -34.999  23.120   4.994  0.00  0.00    +0.332 C 
ATOM      6  C   UNL     1     -34.939  23.675   2.622  0.00  0.00    +0.076 C 
ATOM      7  C   UNL     1     -35.258  22.442   2.228  0.00  0.00    +0.076 C 
ATOM      8  C   UNL     1     -35.488  21.385   3.237  0.00  0.00    +0.271 C 
ENDROOT
BRANCH   3  11
ATOM      9  O4* UNL     1     -35.623  26.238   4.170  0.00  0.00    -0.335 OA
ATOM     10  C3* UNL     1     -33.801  27.451   3.261  0.00  0.00    +0.144 C 
ATOM     11  C1* UNL     1     -34.454  25.414   4.266  0.00  0.00    +0.202 C 
ATOM     12  C2* UNL     1     -33.414  25.992   3.320  0.00  0.00    +0.083 C 
ATOM     13  C4* UNL     1     -35.317  27.411   3.392  0.00  0.00    +0.173 C 
BRANCH  10  14
ATOM     14  O3* UNL     1     -33.237  28.144   4.372  0.00  0.00    -0.382 OA
ATOM     15  H3* UNL     1     -32.550  27.594   4.781  0.00  0.00    +0.210 HD
ENDBRANCH  10  14
BRANCH  13  16
ATOM     16  C5* UNL     1     -36.025  27.280   2.049  0.00  0.00    +0.169 C 
BRANCH  16  17
ATOM     17  O5* UNL     1     -37.412  27.096   2.279  0.00  0.00    -0.379 OA
ATOM     18  H5* UNL     1     -37.691  26.244   1.909  0.00  0.00    +0.211 HD
ENDBRANCH  16  17
ENDBRANCH  13  16
ENDBRANCH   3  11
BRANCH   4  19
ATOM     19  N   UNL     1     -35.542  20.859   5.550  0.00  0.00    -0.243 NA
ATOM     20  H   UNL     1     -36.280  20.212   5.467  0.00  0.00    +0.141 HD
ATOM     21  H   UNL     1     -34.949  20.830   6.335  0.00  0.00    +0.141 HD
ENDBRANCH   4  19
TORSDOF 5
ENDMDL
MODEL 2
REMARK VINA RESULT:      -5.3      2.463      3.345
REMARK  Name = 54480934
REMARK  5 active torsions:
REMARK  status: ('A' for Active; 'I' for Inactive)
REMARK    1  A    between atoms: N_3  and  C1*_11
REMARK    2  A    between atoms: N_4  and  N_19
REMARK    3  A    between atoms: C3*_10  and  O3*_14
REMARK    4  A    between atoms: C4*_13  and  C5*_16
REMARK    5  A    between atoms: C5*_16  and  O5*_17
REMARK                            x       y       z     vdW  Elec       q    Type
REMARK                         _______ _______ _______ _____ _____    ______ ____
ROOT
ATOM      1  O   UNL     1     -39.047  23.137   2.462  0.00  0.00    -0.250 OA
ATOM      2  O   UNL     1     -36.518  19.395   1.274  0.00  0.00    -0.268 OA
ATOM      3  N   UNL     1     -36.807  23.031   3.098  0.00  0.00    -0.217 N 
ATOM      4  N   UNL     1     -37.807  21.260   1.858  0.00  0.00    -0.155 N 
ATOM      5  C   UNL     1     -37.975  22.524   2.470  0.00  0.00    +0.332 C 
ATOM      6  C   UNL     1     -35.625  22.303   3.079  0.00  0.00    +0.076 C 
ATOM      7  C   UNL     1     -35.488  21.112   2.495  0.00  0.00    +0.076 C 
ATOM      8  C   UNL     1     -36.644  20.492   1.812  0.00  0.00    +0.271 C 
ENDROOT
BRANCH   3  11
ATOM      9  O4* UNL     1     -36.290  25.304   2.890  0.00  0.00    -0.335 OA
ATOM     10  C3* UNL     1     -35.543  25.750   5.094  0.00  0.00    +0.144 C 
ATOM     11  C1* UNL     1     -36.847  24.305   3.755  0.00  0.00    +0.202 C 
ATOM     12  C2* UNL     1     -36.047  24.327   5.047  0.00  0.00    +0.083 C 
ATOM     13  C4* UNL     1     -35.335  26.092   3.626  0.00  0.00    +0.173 C 
BRANCH  10  14
ATOM     14  O3* UNL     1     -36.545  26.597   5.652  0.00  0.00    -0.382 OA
ATOM     15  H3* UNL     1     -37.362  26.090   5.781  0.00  0.00    +0.210 HD
ENDBRANCH  10  14
BRANCH  13  16
ATOM     16  C5* UNL     1     -33.943  25.730   3.124  0.00  0.00    +0.169 C 
BRANCH  16  17
ATOM     17  O5* UNL     1     -33.017  25.890   4.186  0.00  0.00    -0.379 OA
ATOM     18  H5* UNL     1     -33.403  25.547   5.006  0.00  0.00    +0.211 HD
ENDBRANCH  16  17
ENDBRANCH  13  16
ENDBRANCH   3  11
BRANCH   4  19
ATOM     19  N   UNL     1     -38.932  20.721   1.227  0.00  0.00    -0.243 NA
ATOM     20  H   UNL     1     -39.704  20.427   1.764  0.00  0.00    +0.141 HD
ATOM     21  H   UNL     1     -38.953  20.635   0.247  0.00  0.00    +0.141 HD
ENDBRANCH   4  19
TORSDOF 5
ENDMDL
MODEL 3
REMARK VINA RESULT:      -5.3      2.785      3.604
REMARK  Name = 54480934
REMARK  5 active torsions:
REMARK  status: ('A' for Active; 'I' for Inactive)
REMARK    1  A    between atoms: N_3  and  C1*_11
REMARK    2  A    between atoms: N_4  and  N_19
REMARK    3  A    between atoms: C3*_10  and  O3*_14
REMARK    4  A    between atoms: C4*_13  and  C5*_16
REMARK    5  A    between atoms: C5*_16  and  O5*_17
REMARK                            x       y       z     vdW  Elec       q    Type
REMARK                         _______ _______ _______ _____ _____    ______ ____
ROOT
ATOM      1  O   UNL     1     -35.128  20.107   2.602  0.00  0.00    -0.250 OA
ATOM      2  O   UNL     1     -39.025  20.020   0.029  0.00  0.00    -0.268 OA
ATOM      3  N   UNL     1     -36.554  21.950   2.638  0.00  0.00    -0.217 N 
ATOM      4  N   UNL     1     -37.065  20.039   1.310  0.00  0.00    -0.155 N 
ATOM      5  C   UNL     1     -36.166  20.653   2.214  0.00  0.00    +0.332 C 
ATOM      6  C   UNL     1     -37.731  22.520   2.172  0.00  0.00    +0.076 C 
ATOM      7  C   UNL     1     -38.566  21.925   1.320  0.00  0.00    +0.076 C 
ATOM      8  C   UNL     1     -38.256  20.569   0.815  0.00  0.00    +0.271 C 
ENDROOT
BRANCH   3  11
ATOM      9  O4* UNL     1     -36.555  23.375   4.494  0.00  0.00    -0.335 OA
ATOM     10  C3* UNL     1     -34.760  24.807   3.904  0.00  0.00    +0.144 C 
ATOM     11  C1* UNL     1     -35.725  22.678   3.555  0.00  0.00    +0.202 C 
ATOM     12  C2* UNL     1     -34.853  23.714   2.865  0.00  0.00    +0.083 C 
ATOM     13  C4* UNL     1     -36.117  24.744   4.593  0.00  0.00    +0.173 C 
BRANCH  10  14
ATOM     14  O3* UNL     1     -33.728  24.497   4.837  0.00  0.00    -0.382 OA
ATOM     15  H3* UNL     1     -33.559  23.542   4.828  0.00  0.00    +0.210 HD
ENDBRANCH  10  14
BRANCH  13  16
ATOM     16  C5* UNL     1     -37.165  25.620   3.919  0.00  0.00    +0.169 C 
BRANCH  16  17
ATOM     17  O5* UNL     1     -38.452  25.110   4.223  0.00  0.00    -0.379 OA
ATOM     18  H5* UNL     1     -38.556  24.233   3.822  0.00  0.00    +0.211 HD
ENDBRANCH  16  17
ENDBRANCH  13  16
ENDBRANCH   3  11
BRANCH   4  19
ATOM     19  N   UNL     1     -36.723  18.760   0.865  0.00  0.00    -0.243 NA
ATOM     20  H   UNL     1     -35.796  18.564   0.594  0.00  0.00    +0.141 HD
ATOM     21  H   UNL     1     -37.407  18.053   0.822  0.00  0.00    +0.141 HD
ENDBRANCH   4  19
TORSDOF 5
ENDMDL
MODEL 4
REMARK VINA RESULT:      -5.3      3.030      4.519
REMARK  Name = 54480934
REMARK  5 active torsions:
REMARK  status: ('A' for Active; 'I' for Inactive)
REMARK    1  A    between atoms: N_3  and  C1*_11
REMARK    2  A    between atoms: N_4  and  N_19
REMARK    3  A    between atoms: C3*_10  and  O3*_14
REMARK    4  A    between atoms: C4*_13  and  C5*_16
REMARK    5  A    between atoms: C5*_16  and  O5*_17
REMARK                            x       y       z     vdW  Elec       q    Type
REMARK                         _______ _______ _______ _____ _____    ______ ____
ROOT
ATOM      1  O   UNL     1     -35.810  21.217   1.924  0.00  0.00    -0.250 OA
ATOM      2  O   UNL     1     -40.399  21.082   1.071  0.00  0.00    -0.268 OA
ATOM      3  N   UNL     1     -37.167  22.926   2.741  0.00  0.00    -0.217 N 
ATOM      4  N   UNL     1     -38.095  21.127   1.486  0.00  0.00    -0.155 N 
ATOM      5  C   UNL     1     -36.934  21.715   2.040  0.00  0.00    +0.332 C 
ATOM      6  C   UNL     1     -38.451  23.445   2.843  0.00  0.00    +0.076 C 
ATOM      7  C   UNL     1     -39.534  22.875   2.312  0.00  0.00    +0.076 C 
ATOM      8  C   UNL     1     -39.402  21.608   1.561  0.00  0.00    +0.271 C 
ENDROOT
BRANCH   3  11
ATOM      9  O4* UNL     1     -35.189  22.669   3.964  0.00  0.00    -0.335 OA
ATOM     10  C3* UNL     1     -35.361  24.541   5.407  0.00  0.00    +0.144 C 
ATOM     11  C1* UNL     1     -36.069  23.620   3.350  0.00  0.00    +0.202 C 
ATOM     12  C2* UNL     1     -36.513  24.591   4.432  0.00  0.00    +0.083 C 
ATOM     13  C4* UNL     1     -34.883  23.100   5.304  0.00  0.00    +0.173 C 
BRANCH  10  14
ATOM     14  O3* UNL     1     -34.329  25.426   4.978  0.00  0.00    -0.382 OA
ATOM     15  H3* UNL     1     -34.516  26.322   5.299  0.00  0.00    +0.210 HD
ENDBRANCH  10  14
BRANCH  13  16
ATOM     16  C5* UNL     1     -35.602  22.167   6.270  0.00  0.00    +0.169 C 
BRANCH  16  17
ATOM     17  O5* UNL     1     -35.414  20.829   5.839  0.00  0.00    -0.379 OA
ATOM     18  H5* UNL     1     -35.353  20.806   4.872  0.00  0.00    +0.211 HD
ENDBRANCH  16  17
ENDBRANCH  13  16
ENDBRANCH   3  11
BRANCH   4  19
ATOM     19  N   UNL     1     -37.913  19.932   0.785  0.00  0.00    -0.243 NA
ATOM     20  H   UNL     1     -38.239  19.083   1.165  0.00  0.00    +0.141 HD
ATOM     21  H   UNL     1     -37.458  19.936  -0.088  0.00  0.00    +0.141 HD
ENDBRANCH   4  19
TORSDOF 5
ENDMDL
MODEL 5
REMARK VINA RESULT:      -5.0      2.798      5.639
REMARK  Name = 54480934
REMARK  5 active torsions:
REMARK  status: ('A' for Active; 'I' for Inactive)
REMARK    1  A    between atoms: N_3  and  C1*_11
REMARK    2  A    between atoms: N_4  and  N_19
REMARK    3  A    between atoms: C3*_10  and  O3*_14
REMARK    4  A    between atoms: C4*_13  and  C5*_16
REMARK    5  A    between atoms: C5*_16  and  O5*_17
REMARK                            x       y       z     vdW  Elec       q    Type
REMARK                         _______ _______ _______ _____ _____    ______ ____
ROOT
ATOM      1  O   UNL     1     -38.253  25.740   3.348  0.00  0.00    -0.250 OA
ATOM      2  O   UNL     1     -34.516  24.837   6.000  0.00  0.00    -0.268 OA
ATOM      3  N   UNL     1     -37.217  23.659   3.180  0.00  0.00    -0.217 N 
ATOM      4  N   UNL     1     -36.391  25.314   4.681  0.00  0.00    -0.155 N 
ATOM      5  C   UNL     1     -37.359  24.968   3.709  0.00  0.00    +0.332 C 
ATOM      6  C   UNL     1     -36.193  22.830   3.619  0.00  0.00    +0.076 C 
ATOM      7  C   UNL     1     -35.290  23.175   4.537  0.00  0.00    +0.076 C 
ATOM      8  C   UNL     1     -35.348  24.518   5.153  0.00  0.00    +0.271 C 
ENDROOT
BRANCH   3  11
ATOM      9  O4* UNL     1     -38.367  21.786   2.377  0.00  0.00    -0.335 OA
ATOM     10  C3* UNL     1     -38.214  22.188   0.046  0.00  0.00    +0.144 C 
ATOM     11  C1* UNL     1     -38.137  23.189   2.185  0.00  0.00    +0.202 C 
ATOM     12  C2* UNL     1     -37.618  23.373   0.769  0.00  0.00    +0.083 C 
ATOM     13  C4* UNL     1     -38.231  21.105   1.115  0.00  0.00    +0.173 C 
BRANCH  10  14
ATOM     14  O3* UNL     1     -39.547  22.491  -0.358  0.00  0.00    -0.382 OA
ATOM     15  H3* UNL     1     -39.814  21.890  -1.071  0.00  0.00    +0.210 HD
ENDBRANCH  10  14
BRANCH  13  16
ATOM     16  C5* UNL     1     -36.941  20.295   1.159  0.00  0.00    +0.169 C 
BRANCH  16  17
ATOM     17  O5* UNL     1     -36.865  19.622   2.405  0.00  0.00    -0.379 OA
ATOM     18  H5* UNL     1     -36.087  19.933   2.893  0.00  0.00    +0.211 HD
ENDBRANCH  16  17
ENDBRANCH  13  16
ENDBRANCH   3  11
BRANCH   4  19
ATOM     19  N   UNL     1     -36.492  26.595   5.230  0.00  0.00    -0.243 NA
ATOM     20  H   UNL     1     -36.866  27.333   4.694  0.00  0.00    +0.141 HD
ATOM     21  H   UNL     1     -36.189  26.762   6.151  0.00  0.00    +0.141 HD
ENDBRANCH   4  19
TORSDOF 5
ENDMDL
MODEL 6
REMARK VINA RESULT:      -5.0      2.725      5.887
REMARK  Name = 54480934
REMARK  5 active torsions:
REMARK  status: ('A' for Active; 'I' for Inactive)
REMARK    1  A    between atoms: N_3  and  C1*_11
REMARK    2  A    between atoms: N_4  and  N_19
REMARK    3  A    between atoms: C3*_10  and  O3*_14
REMARK    4  A    between atoms: C4*_13  and  C5*_16
REMARK    5  A    between atoms: C5*_16  and  O5*_17
REMARK                            x       y       z     vdW  Elec       q    Type
REMARK                         _______ _______ _______ _____ _____    ______ ____
ROOT
ATOM      1  O   UNL     1     -33.629  27.633   2.734  0.00  0.00    -0.250 OA
ATOM      2  O   UNL     1     -31.323  28.712   6.649  0.00  0.00    -0.268 OA
ATOM      3  N   UNL     1     -34.092  26.449   4.688  0.00  0.00    -0.217 N 
ATOM      4  N   UNL     1     -32.466  28.190   4.673  0.00  0.00    -0.155 N 
ATOM      5  C   UNL     1     -33.412  27.442   3.934  0.00  0.00    +0.332 C 
ATOM      6  C   UNL     1     -33.810  26.273   6.036  0.00  0.00    +0.076 C 
ATOM      7  C   UNL     1     -32.914  26.990   6.714  0.00  0.00    +0.076 C 
ATOM      8  C   UNL     1     -32.149  28.051   6.024  0.00  0.00    +0.271 C 
ENDROOT
BRANCH   3  11
ATOM      9  O4* UNL     1     -35.926  25.043   5.051  0.00  0.00    -0.335 OA
ATOM     10  C3* UNL     1     -35.495  23.387   3.411  0.00  0.00    +0.144 C 
ATOM     11  C1* UNL     1     -35.076  25.622   4.052  0.00  0.00    +0.202 C 
ATOM     12  C2* UNL     1     -34.463  24.479   3.261  0.00  0.00    +0.083 C 
ATOM     13  C4* UNL     1     -36.053  23.629   4.806  0.00  0.00    +0.173 C 
BRANCH  10  14
ATOM     14  O3* UNL     1     -36.525  23.561   2.441  0.00  0.00    -0.382 OA
ATOM     15  H3* UNL     1     -36.447  24.442   2.041  0.00  0.00    +0.210 HD
ENDBRANCH  10  14
BRANCH  13  16
ATOM     16  C5* UNL     1     -35.275  22.895   5.891  0.00  0.00    +0.169 C 
BRANCH  16  17
ATOM     17  O5* UNL     1     -36.073  21.833   6.388  0.00  0.00    -0.379 OA
ATOM     18  H5* UNL     1     -36.221  21.958   7.339  0.00  0.00    +0.211 HD
ENDBRANCH  16  17
ENDBRANCH  13  16
ENDBRANCH   3  11
BRANCH   4  19
ATOM     19  N   UNL     1     -31.772  29.180   3.972  0.00  0.00    -0.243 NA
ATOM     20  H   UNL     1     -32.252  29.763   3.339  0.00  0.00    +0.141 HD
ATOM     21  H   UNL     1     -30.804  29.294   4.109  0.00  0.00    +0.141 HD
ENDBRANCH   4  19
TORSDOF 5
ENDMDL
MODEL 7
REMARK VINA RESULT:      -5.0      2.202      5.459
REMARK  Name = 54480934
REMARK  5 active torsions:
REMARK  status: ('A' for Active; 'I' for Inactive)
REMARK    1  A    between atoms: N_3  and  C1*_11
REMARK    2  A    between atoms: N_4  and  N_19
REMARK    3  A    between atoms: C3*_10  and  O3*_14
REMARK    4  A    between atoms: C4*_13  and  C5*_16
REMARK    5  A    between atoms: C5*_16  and  O5*_17
REMARK                            x       y       z     vdW  Elec       q    Type
REMARK                         _______ _______ _______ _____ _____    ______ ____
ROOT
ATOM      1  O   UNL     1     -36.007  23.938   5.647  0.00  0.00    -0.250 OA
ATOM      2  O   UNL     1     -32.723  26.640   3.716  0.00  0.00    -0.268 OA
ATOM      3  N   UNL     1     -35.498  23.669   3.388  0.00  0.00    -0.217 N 
ATOM      4  N   UNL     1     -34.365  25.297   4.707  0.00  0.00    -0.155 N 
ATOM      5  C   UNL     1     -35.343  24.275   4.662  0.00  0.00    +0.332 C 
ATOM      6  C   UNL     1     -34.727  24.086   2.311  0.00  0.00    +0.076 C 
ATOM      7  C   UNL     1     -33.810  25.052   2.375  0.00  0.00    +0.076 C 
ATOM      8  C   UNL     1     -33.568  25.749   3.657  0.00  0.00    +0.271 C 
ENDROOT
BRANCH   3  11
ATOM      9  O4* UNL     1     -35.810  21.350   3.372  0.00  0.00    -0.335 OA
ATOM     10  C3* UNL     1     -37.344  21.162   1.575  0.00  0.00    +0.144 C 
ATOM     11  C1* UNL     1     -36.459  22.619   3.211  0.00  0.00    +0.202 C 
ATOM     12  C2* UNL     1     -37.097  22.630   1.832  0.00  0.00    +0.083 C 
ATOM     13  C4* UNL     1     -36.175  20.487   2.278  0.00  0.00    +0.173 C 
BRANCH  10  14
ATOM     14  O3* UNL     1     -38.570  20.767   2.185  0.00  0.00    -0.382 OA
ATOM     15  H3* UNL     1     -39.300  20.898   1.559  0.00  0.00    +0.210 HD
ENDBRANCH  10  14
BRANCH  13  16
ATOM     16  C5* UNL     1     -34.954  20.329   1.381  0.00  0.00    +0.169 C 
BRANCH  16  17
ATOM     17  O5* UNL     1     -34.124  19.310   1.912  0.00  0.00    -0.379 OA
ATOM     18  H5* UNL     1     -34.271  18.485   1.423  0.00  0.00    +0.211 HD
ENDBRANCH  16  17
ENDBRANCH  13  16
ENDBRANCH   3  11
BRANCH   4  19
ATOM     19  N   UNL     1     -34.177  25.923   5.943  0.00  0.00    -0.243 NA
ATOM     20  H   UNL     1     -33.267  26.134   6.255  0.00  0.00    +0.141 HD
ATOM     21  H   UNL     1     -34.954  26.152   6.502  0.00  0.00    +0.141 HD
ENDBRANCH   4  19
TORSDOF 5
ENDMDL
MODEL 8
REMARK VINA RESULT:      -5.0      2.530      5.622
REMARK  Name = 54480934
REMARK  5 active torsions:
REMARK  status: ('A' for Active; 'I' for Inactive)
REMARK    1  A    between atoms: N_3  and  C1*_11
REMARK    2  A    between atoms: N_4  and  N_19
REMARK    3  A    between atoms: C3*_10  and  O3*_14
REMARK    4  A    between atoms: C4*_13  and  C5*_16
REMARK    5  A    between atoms: C5*_16  and  O5*_17
REMARK                            x       y       z     vdW  Elec       q    Type
REMARK                         _______ _______ _______ _____ _____    ______ ____
ROOT
ATOM      1  O   UNL     1     -36.808  26.771   2.231  0.00  0.00    -0.250 OA
ATOM      2  O   UNL     1     -33.952  26.563   5.920  0.00  0.00    -0.268 OA
ATOM      3  N   UNL     1     -36.655  24.783   3.437  0.00  0.00    -0.217 N 
ATOM      4  N   UNL     1     -35.377  26.693   4.066  0.00  0.00    -0.155 N 
ATOM      5  C   UNL     1     -36.319  26.136   3.169  0.00  0.00    +0.332 C 
ATOM      6  C   UNL     1     -36.075  24.112   4.506  0.00  0.00    +0.076 C 
ATOM      7  C   UNL     1     -35.189  24.656   5.340  0.00  0.00    +0.076 C 
ATOM      8  C   UNL     1     -34.769  26.062   5.151  0.00  0.00    +0.271 C 
ENDROOT
BRANCH   3  11
ATOM      9  O4* UNL     1     -37.847  22.794   3.126  0.00  0.00    -0.335 OA
ATOM     10  C3* UNL     1     -37.728  22.618   0.765  0.00  0.00    +0.144 C 
ATOM     11  C1* UNL     1     -37.599  24.104   2.598  0.00  0.00    +0.202 C 
ATOM     12  C2* UNL     1     -37.102  23.931   1.172  0.00  0.00    +0.083 C 
ATOM     13  C4* UNL     1     -37.743  21.825   2.065  0.00  0.00    +0.173 C 
BRANCH  10  14
ATOM     14  O3* UNL     1     -39.063  22.839   0.318  0.00  0.00    -0.382 OA
ATOM     15  H3* UNL     1     -39.467  23.549   0.843  0.00  0.00    +0.210 HD
ENDBRANCH  10  14
BRANCH  13  16
ATOM     16  C5* UNL     1     -36.466  21.025   2.286  0.00  0.00    +0.169 C 
BRANCH  16  17
ATOM     17  O5* UNL     1     -36.813  19.702   2.657  0.00  0.00    -0.379 OA
ATOM     18  H5* UNL     1     -37.777  19.628   2.727  0.00  0.00    +0.211 HD
ENDBRANCH  16  17
ENDBRANCH  13  16
ENDBRANCH   3  11
BRANCH   4  19
ATOM     19  N   UNL     1     -35.017  28.024   3.841  0.00  0.00    -0.243 NA
ATOM     20  H   UNL     1     -34.068  28.289   3.871  0.00  0.00    +0.141 HD
ATOM     21  H   UNL     1     -35.709  28.697   3.652  0.00  0.00    +0.141 HD
ENDBRANCH   4  19
TORSDOF 5
ENDMDL
MODEL 9
REMARK VINA RESULT:      -4.9      2.018      5.791
REMARK  Name = 54480934
REMARK  5 active torsions:
REMARK  status: ('A' for Active; 'I' for Inactive)
REMARK    1  A    between atoms: N_3  and  C1*_11
REMARK    2  A    between atoms: N_4  and  N_19
REMARK    3  A    between atoms: C3*_10  and  O3*_14
REMARK    4  A    between atoms: C4*_13  and  C5*_16
REMARK    5  A    between atoms: C5*_16  and  O5*_17
REMARK                            x       y       z     vdW  Elec       q    Type
REMARK                         _______ _______ _______ _____ _____    ______ ____
ROOT
ATOM      1  O   UNL     1     -37.014  26.633   2.131  0.00  0.00    -0.250 OA
ATOM      2  O   UNL     1     -33.310  28.913   3.832  0.00  0.00    -0.268 OA
ATOM      3  N   UNL     1     -35.400  25.448   3.325  0.00  0.00    -0.217 N 
ATOM      4  N   UNL     1     -35.176  27.793   2.969  0.00  0.00    -0.155 N 
ATOM      5  C   UNL     1     -35.950  26.628   2.758  0.00  0.00    +0.332 C 
ATOM      6  C   UNL     1     -34.200  25.495   4.021  0.00  0.00    +0.076 C 
ATOM      7  C   UNL     1     -33.485  26.605   4.209  0.00  0.00    +0.076 C 
ATOM      8  C   UNL     1     -33.968  27.890   3.659  0.00  0.00    +0.271 C 
ENDROOT
BRANCH   3  11
ATOM      9  O4* UNL     1     -36.531  23.748   4.467  0.00  0.00    -0.335 OA
ATOM     10  C3* UNL     1     -35.747  21.863   3.262  0.00  0.00    +0.144 C 
ATOM     11  C1* UNL     1     -36.091  24.200   3.180  0.00  0.00    +0.202 C 
ATOM     12  C2* UNL     1     -35.213  23.107   2.592  0.00  0.00    +0.083 C 
ATOM     13  C4* UNL     1     -36.165  22.365   4.637  0.00  0.00    +0.173 C 
BRANCH  10  14
ATOM     14  O3* UNL     1     -36.888  21.387   2.553  0.00  0.00    -0.382 OA
ATOM     15  H3* UNL     1     -36.899  20.417   2.570  0.00  0.00    +0.210 HD
ENDBRANCH  10  14
BRANCH  13  16
ATOM     16  C5* UNL     1     -35.037  22.302   5.659  0.00  0.00    +0.169 C 
BRANCH  16  17
ATOM     17  O5* UNL     1     -34.789  20.944   5.985  0.00  0.00    -0.379 OA
ATOM     18  H5* UNL     1     -34.258  20.535   5.284  0.00  0.00    +0.211 HD
ENDBRANCH  16  17
ENDBRANCH  13  16
ENDBRANCH   3  11
BRANCH   4  19
ATOM     19  N   UNL     1     -35.679  28.979   2.427  0.00  0.00    -0.243 NA
ATOM     20  H   UNL     1     -36.031  29.682   3.021  0.00  0.00    +0.141 HD
ATOM     21  H   UNL     1     -35.681  29.113   1.452  0.00  0.00    +0.141 HD
ENDBRANCH   4  19
TORSDOF 5
ENDMDL
