MODEL 1
REMARK VINA RESULT:      -6.2      0.000      0.000
REMARK  Name = 191626
REMARK  4 active torsions:
REMARK  status: ('A' for Active; 'I' for Inactive)
REMARK    1  A    between atoms: P_2  and  O_20
REMARK    2  A    between atoms: C_8  and  C_22
REMARK    3  A    between atoms: C_9  and  N_11
REMARK    4  A    between atoms: C_22  and  O_23
REMARK                            x       y       z     vdW  Elec       q    Type
REMARK                         _______ _______ _______ _____ _____    ______ ____
ROOT
ATOM      1  S   UNL     1     -33.560  25.485   2.980  0.00  0.00    -0.025 S 
ATOM      2  P   UNL     1     -33.793  26.752   4.613  0.00  0.00    +0.390 P 
ATOM      3  O   UNL     1     -36.975  24.133   4.415  0.00  0.00    -0.333 OA
ATOM      4  O   UNL     1     -35.409  26.683   4.807  0.00  0.00    -0.286 OA
ATOM      5  O   UNL     1     -33.269  28.138   4.372  0.00  0.00    -0.246 OA
ATOM      6  C   UNL     1     -36.110  26.199   3.641  0.00  0.00    +0.169 C 
ATOM      7  C   UNL     1     -35.335  25.064   2.963  0.00  0.00    +0.136 C 
ATOM      8  C   UNL     1     -37.368  25.487   4.117  0.00  0.00    +0.175 C 
ATOM      9  C   UNL     1     -35.680  23.872   3.845  0.00  0.00    +0.219 C 
ENDROOT
BRANCH   9  11
ATOM     10  O   UNL     1     -35.172  21.317   4.909  0.00  0.00    -0.193 OA
ATOM     11  N   UNL     1     -35.736  22.643   3.107  0.00  0.00    -0.179 N 
ATOM     12  N   UNL     1     -35.542  20.248   2.941  0.00  0.00    -0.306 NA
ATOM     13  N   UNL     1     -35.919  19.160   0.920  0.00  0.00    -0.332 N 
ATOM     14  C   UNL     1     -36.063  22.694   1.763  0.00  0.00    +0.083 C 
ATOM     15  C   UNL     1     -35.467  21.394   3.714  0.00  0.00    +0.275 C 
ATOM     16  C   UNL     1     -36.138  21.604   1.001  0.00  0.00    +0.065 C 
ATOM     17  C   UNL     1     -35.851  20.310   1.672  0.00  0.00    +0.193 C 
ATOM     18  H   UNL     1     -35.734  18.288   1.338  0.00  0.00    +0.145 HD
ATOM     19  H   UNL     1     -36.152  19.209  -0.035  0.00  0.00    +0.145 HD
ENDBRANCH   9  11
BRANCH   2  20
ATOM     20  O   UNL     1     -33.253  26.065   5.975  0.00  0.00    -0.316 OA
ATOM     21  H   UNL     1     -33.307  26.703   6.703  0.00  0.00    +0.221 HD
ENDBRANCH   2  20
BRANCH   8  22
ATOM     22  C   UNL     1     -38.462  25.439   3.059  0.00  0.00    +0.169 C 
BRANCH  22  23
ATOM     23  O   UNL     1     -39.429  26.433   3.355  0.00  0.00    -0.379 OA
ATOM     24  H   UNL     1     -38.981  27.252   3.619  0.00  0.00    +0.211 HD
ENDBRANCH  22  23
ENDBRANCH   8  22
TORSDOF 4
ENDMDL
MODEL 2
REMARK VINA RESULT:      -5.8      3.486      5.519
REMARK  Name = 191626
REMARK  4 active torsions:
REMARK  status: ('A' for Active; 'I' for Inactive)
REMARK    1  A    between atoms: P_2  and  O_20
REMARK    2  A    between atoms: C_8  and  C_22
REMARK    3  A    between atoms: C_9  and  N_11
REMARK    4  A    between atoms: C_22  and  O_23
REMARK                            x       y       z     vdW  Elec       q    Type
REMARK                         _______ _______ _______ _____ _____    ______ ____
ROOT
ATOM      1  S   UNL     1     -36.166  22.086   0.837  0.00  0.00    -0.025 S 
ATOM      2  P   UNL     1     -35.648  20.701   2.300  0.00  0.00    +0.390 P 
ATOM      3  O   UNL     1     -37.572  23.910   4.037  0.00  0.00    -0.333 OA
ATOM      4  O   UNL     1     -35.599  21.666   3.612  0.00  0.00    -0.286 OA
ATOM      5  O   UNL     1     -34.354  19.993   2.020  0.00  0.00    -0.246 OA
ATOM      6  C   UNL     1     -35.486  23.070   3.291  0.00  0.00    +0.169 C 
ATOM      7  C   UNL     1     -36.333  23.426   2.064  0.00  0.00    +0.136 C 
ATOM      8  C   UNL     1     -36.177  23.856   4.396  0.00  0.00    +0.175 C 
ATOM      9  C   UNL     1     -37.730  23.525   2.661  0.00  0.00    +0.219 C 
ENDROOT
BRANCH   9  11
ATOM     10  O   UNL     1     -40.429  23.180   1.946  0.00  0.00    -0.193 OA
ATOM     11  N   UNL     1     -38.541  24.504   1.994  0.00  0.00    -0.179 N 
ATOM     12  N   UNL     1     -40.618  25.246   1.026  0.00  0.00    -0.306 NA
ATOM     13  N   UNL     1     -40.802  27.364   0.083  0.00  0.00    -0.332 N 
ATOM     14  C   UNL     1     -37.971  25.722   1.667  0.00  0.00    +0.083 C 
ATOM     15  C   UNL     1     -39.895  24.255   1.668  0.00  0.00    +0.275 C 
ATOM     16  C   UNL     1     -38.648  26.688   1.048  0.00  0.00    +0.065 C 
ATOM     17  C   UNL     1     -40.068  26.392   0.722  0.00  0.00    +0.193 C 
ATOM     18  H   UNL     1     -41.745  27.197  -0.146  0.00  0.00    +0.145 HD
ATOM     19  H   UNL     1     -40.386  28.226  -0.145  0.00  0.00    +0.145 HD
ENDBRANCH   9  11
BRANCH   2  20
ATOM     20  O   UNL     1     -36.884  19.715   2.644  0.00  0.00    -0.316 OA
ATOM     21  H   UNL     1     -37.249  19.945   3.512  0.00  0.00    +0.221 HD
ENDBRANCH   2  20
BRANCH   8  22
ATOM     22  C   UNL     1     -35.666  25.286   4.519  0.00  0.00    +0.169 C 
BRANCH  22  23
ATOM     23  O   UNL     1     -36.719  26.109   4.991  0.00  0.00    -0.379 OA
ATOM     24  H   UNL     1     -36.403  26.642   5.737  0.00  0.00    +0.211 HD
ENDBRANCH  22  23
ENDBRANCH   8  22
TORSDOF 4
ENDMDL
MODEL 3
REMARK VINA RESULT:      -5.6      3.789      6.118
REMARK  Name = 191626
REMARK  4 active torsions:
REMARK  status: ('A' for Active; 'I' for Inactive)
REMARK    1  A    between atoms: P_2  and  O_20
REMARK    2  A    between atoms: C_8  and  C_22
REMARK    3  A    between atoms: C_9  and  N_11
REMARK    4  A    between atoms: C_22  and  O_23
REMARK                            x       y       z     vdW  Elec       q    Type
REMARK                         _______ _______ _______ _____ _____    ______ ____
ROOT
ATOM      1  S   UNL     1     -38.639  23.499   1.542  0.00  0.00    -0.025 S 
ATOM      2  P   UNL     1     -39.364  21.585   1.174  0.00  0.00    +0.390 P 
ATOM      3  O   UNL     1     -35.635  21.350   2.922  0.00  0.00    -0.333 OA
ATOM      4  O   UNL     1     -37.966  20.752   1.101  0.00  0.00    -0.286 OA
ATOM      5  O   UNL     1     -40.192  21.490  -0.075  0.00  0.00    -0.246 OA
ATOM      6  C   UNL     1     -36.809  21.586   0.878  0.00  0.00    +0.169 C 
ATOM      7  C   UNL     1     -36.919  22.903   1.656  0.00  0.00    +0.136 C 
ATOM      8  C   UNL     1     -35.617  20.918   1.548  0.00  0.00    +0.175 C 
ATOM      9  C   UNL     1     -36.521  22.476   3.061  0.00  0.00    +0.219 C 
ENDROOT
BRANCH   9  11
ATOM     10  O   UNL     1     -36.131  22.540   5.847  0.00  0.00    -0.193 OA
ATOM     11  N   UNL     1     -35.841  23.517   3.777  0.00  0.00    -0.179 N 
ATOM     12  N   UNL     1     -35.016  24.516   5.807  0.00  0.00    -0.306 NA
ATOM     13  N   UNL     1     -33.876  26.543   5.759  0.00  0.00    -0.332 N 
ATOM     14  C   UNL     1     -35.328  24.585   3.061  0.00  0.00    +0.083 C 
ATOM     15  C   UNL     1     -35.685  23.477   5.183  0.00  0.00    +0.275 C 
ATOM     16  C   UNL     1     -34.683  25.595   3.642  0.00  0.00    +0.065 C 
ATOM     17  C   UNL     1     -34.536  25.520   5.120  0.00  0.00    +0.193 C 
ATOM     18  H   UNL     1     -33.763  26.521   6.737  0.00  0.00    +0.145 HD
ATOM     19  H   UNL     1     -33.516  27.297   5.239  0.00  0.00    +0.145 HD
ENDBRANCH   9  11
BRANCH   2  20
ATOM     20  O   UNL     1     -40.070  20.958   2.488  0.00  0.00    -0.316 OA
ATOM     21  H   UNL     1     -39.465  20.330   2.912  0.00  0.00    +0.221 HD
ENDBRANCH   2  20
BRANCH   8  22
ATOM     22  C   UNL     1     -34.283  21.330   0.941  0.00  0.00    +0.169 C 
BRANCH  22  23
ATOM     23  O   UNL     1     -33.429  20.199   0.902  0.00  0.00    -0.379 OA
ATOM     24  H   UNL     1     -33.578  19.709   0.078  0.00  0.00    +0.211 HD
ENDBRANCH  22  23
ENDBRANCH   8  22
TORSDOF 4
ENDMDL
MODEL 4
REMARK VINA RESULT:      -5.5      2.624      3.436
REMARK  Name = 191626
REMARK  4 active torsions:
REMARK  status: ('A' for Active; 'I' for Inactive)
REMARK    1  A    between atoms: P_2  and  O_20
REMARK    2  A    between atoms: C_8  and  C_22
REMARK    3  A    between atoms: C_9  and  N_11
REMARK    4  A    between atoms: C_22  and  O_23
REMARK                            x       y       z     vdW  Elec       q    Type
REMARK                         _______ _______ _______ _____ _____    ______ ____
ROOT
ATOM      1  S   UNL     1     -34.553  26.931   1.794  0.00  0.00    -0.025 S 
ATOM      2  P   UNL     1     -35.558  28.735   1.548  0.00  0.00    +0.390 P 
ATOM      3  O   UNL     1     -38.096  25.941   3.212  0.00  0.00    -0.333 OA
ATOM      4  O   UNL     1     -37.097  28.206   1.485  0.00  0.00    -0.286 OA
ATOM      5  O   UNL     1     -35.128  29.496   0.327  0.00  0.00    -0.246 OA
ATOM      6  C   UNL     1     -37.211  26.797   1.188  0.00  0.00    +0.169 C 
ATOM      7  C   UNL     1     -36.114  25.993   1.896  0.00  0.00    +0.136 C 
ATOM      8  C   UNL     1     -38.473  26.280   1.864  0.00  0.00    +0.175 C 
ATOM      9  C   UNL     1     -36.662  25.888   3.312  0.00  0.00    +0.219 C 
ENDROOT
BRANCH   9  11
ATOM     10  O   UNL     1     -36.022  25.613   6.038  0.00  0.00    -0.193 OA
ATOM     11  N   UNL     1     -36.286  24.660   3.954  0.00  0.00    -0.179 N 
ATOM     12  N   UNL     1     -35.625  23.383   5.886  0.00  0.00    -0.306 NA
ATOM     13  N   UNL     1     -35.218  21.099   5.721  0.00  0.00    -0.332 N 
ATOM     14  C   UNL     1     -36.227  23.507   3.190  0.00  0.00    +0.083 C 
ATOM     15  C   UNL     1     -35.979  24.603   5.333  0.00  0.00    +0.275 C 
ATOM     16  C   UNL     1     -35.888  22.325   3.701  0.00  0.00    +0.065 C 
ATOM     17  C   UNL     1     -35.573  22.301   5.154  0.00  0.00    +0.193 C 
ATOM     18  H   UNL     1     -35.004  21.052   6.681  0.00  0.00    +0.145 HD
ATOM     19  H   UNL     1     -35.179  20.286   5.168  0.00  0.00    +0.145 HD
ENDBRANCH   9  11
BRANCH   2  20
ATOM     20  O   UNL     1     -35.549  29.606   2.911  0.00  0.00    -0.316 OA
ATOM     21  H   UNL     1     -34.702  29.484   3.368  0.00  0.00    +0.221 HD
ENDBRANCH   2  20
BRANCH   8  22
ATOM     22  C   UNL     1     -39.033  25.028   1.201  0.00  0.00    +0.169 C 
BRANCH  22  23
ATOM     23  O   UNL     1     -39.563  24.178   2.205  0.00  0.00    -0.379 OA
ATOM     24  H   UNL     1     -39.341  24.533   3.080  0.00  0.00    +0.211 HD
ENDBRANCH  22  23
ENDBRANCH   8  22
TORSDOF 4
ENDMDL
MODEL 5
REMARK VINA RESULT:      -5.5      3.479      6.092
REMARK  Name = 191626
REMARK  4 active torsions:
REMARK  status: ('A' for Active; 'I' for Inactive)
REMARK    1  A    between atoms: P_2  and  O_20
REMARK    2  A    between atoms: C_8  and  C_22
REMARK    3  A    between atoms: C_9  and  N_11
REMARK    4  A    between atoms: C_22  and  O_23
REMARK                            x       y       z     vdW  Elec       q    Type
REMARK                         _______ _______ _______ _____ _____    ______ ____
ROOT
ATOM      1  S   UNL     1     -35.344  24.035   1.340  0.00  0.00    -0.025 S 
ATOM      2  P   UNL     1     -37.145  22.999   1.272  0.00  0.00    +0.390 P 
ATOM      3  O   UNL     1     -36.358  24.175   5.147  0.00  0.00    -0.333 OA
ATOM      4  O   UNL     1     -37.240  22.478   2.813  0.00  0.00    -0.286 OA
ATOM      5  O   UNL     1     -37.159  21.893   0.256  0.00  0.00    -0.246 OA
ATOM      6  C   UNL     1     -35.976  22.506   3.510  0.00  0.00    +0.169 C 
ATOM      7  C   UNL     1     -35.165  23.751   3.133  0.00  0.00    +0.136 C 
ATOM      8  C   UNL     1     -36.264  22.746   4.985  0.00  0.00    +0.175 C 
ATOM      9  C   UNL     1     -35.823  24.828   3.983  0.00  0.00    +0.219 C 
ENDROOT
BRANCH   9  11
ATOM     10  O   UNL     1     -35.229  27.178   2.554  0.00  0.00    -0.193 OA
ATOM     11  N   UNL     1     -34.894  25.838   4.402  0.00  0.00    -0.179 N 
ATOM     12  N   UNL     1     -33.740  27.930   4.094  0.00  0.00    -0.306 NA
ATOM     13  N   UNL     1     -32.213  28.692   5.674  0.00  0.00    -0.332 N 
ATOM     14  C   UNL     1     -34.224  25.663   5.601  0.00  0.00    +0.083 C 
ATOM     15  C   UNL     1     -34.649  26.996   3.626  0.00  0.00    +0.275 C 
ATOM     16  C   UNL     1     -33.345  26.548   6.067  0.00  0.00    +0.065 C 
ATOM     17  C   UNL     1     -33.114  27.753   5.227  0.00  0.00    +0.193 C 
ATOM     18  H   UNL     1     -32.040  29.500   5.139  0.00  0.00    +0.145 HD
ATOM     19  H   UNL     1     -31.743  28.556   6.528  0.00  0.00    +0.145 HD
ENDBRANCH   9  11
BRANCH   2  20
ATOM     20  O   UNL     1     -38.404  24.009   1.172  0.00  0.00    -0.316 OA
ATOM     21  H   UNL     1     -39.148  23.652   1.683  0.00  0.00    +0.221 HD
ENDBRANCH   2  20
BRANCH   8  22
ATOM     22  C   UNL     1     -35.155  22.240   5.899  0.00  0.00    +0.169 C 
BRANCH  22  23
ATOM     23  O   UNL     1     -35.126  20.824   5.842  0.00  0.00    -0.379 OA
ATOM     24  H   UNL     1     -35.987  20.471   6.116  0.00  0.00    +0.211 HD
ENDBRANCH  22  23
ENDBRANCH   8  22
TORSDOF 4
ENDMDL
MODEL 6
REMARK VINA RESULT:      -5.3      3.112      5.415
REMARK  Name = 191626
REMARK  4 active torsions:
REMARK  status: ('A' for Active; 'I' for Inactive)
REMARK    1  A    between atoms: P_2  and  O_20
REMARK    2  A    between atoms: C_8  and  C_22
REMARK    3  A    between atoms: C_9  and  N_11
REMARK    4  A    between atoms: C_22  and  O_23
REMARK                            x       y       z     vdW  Elec       q    Type
REMARK                         _______ _______ _______ _____ _____    ______ ____
ROOT
ATOM      1  S   UNL     1     -37.583  25.821   1.294  0.00  0.00    -0.025 S 
ATOM      2  P   UNL     1     -39.210  25.345   2.498  0.00  0.00    +0.390 P 
ATOM      3  O   UNL     1     -35.713  24.197   4.362  0.00  0.00    -0.333 OA
ATOM      4  O   UNL     1     -38.570  24.141   3.391  0.00  0.00    -0.286 OA
ATOM      5  O   UNL     1     -40.429  24.940   1.721  0.00  0.00    -0.246 OA
ATOM      6  C   UNL     1     -37.384  23.559   2.809  0.00  0.00    +0.169 C 
ATOM      7  C   UNL     1     -36.503  24.633   2.160  0.00  0.00    +0.136 C 
ATOM      8  C   UNL     1     -36.502  23.065   3.945  0.00  0.00    +0.175 C 
ATOM      9  C   UNL     1     -35.793  25.231   3.366  0.00  0.00    +0.219 C 
ENDROOT
BRANCH   9  11
ATOM     10  O   UNL     1     -34.251  26.969   4.953  0.00  0.00    -0.193 OA
ATOM     11  N   UNL     1     -34.466  25.679   3.052  0.00  0.00    -0.179 N 
ATOM     12  N   UNL     1     -32.475  26.944   3.539  0.00  0.00    -0.306 NA
ATOM     13  N   UNL     1     -30.661  26.916   2.084  0.00  0.00    -0.332 N 
ATOM     14  C   UNL     1     -33.879  25.234   1.881  0.00  0.00    +0.083 C 
ATOM     15  C   UNL     1     -33.753  26.555   3.904  0.00  0.00    +0.275 C 
ATOM     16  C   UNL     1     -32.652  25.598   1.510  0.00  0.00    +0.065 C 
ATOM     17  C   UNL     1     -31.931  26.517   2.430  0.00  0.00    +0.193 C 
ATOM     18  H   UNL     1     -30.159  27.525   2.673  0.00  0.00    +0.145 HD
ATOM     19  H   UNL     1     -30.254  26.593   1.248  0.00  0.00    +0.145 HD
ENDBRANCH   9  11
BRANCH   2  20
ATOM     20  O   UNL     1     -39.479  26.491   3.608  0.00  0.00    -0.316 OA
ATOM     21  H   UNL     1     -39.374  26.113   4.495  0.00  0.00    +0.221 HD
ENDBRANCH   2  20
BRANCH   8  22
ATOM     22  C   UNL     1     -35.548  21.955   3.522  0.00  0.00    +0.169 C 
BRANCH  22  23
ATOM     23  O   UNL     1     -35.638  20.893   4.456  0.00  0.00    -0.379 OA
ATOM     24  H   UNL     1     -36.433  20.369   4.275  0.00  0.00    +0.211 HD
ENDBRANCH  22  23
ENDBRANCH   8  22
TORSDOF 4
ENDMDL
MODEL 7
REMARK VINA RESULT:      -5.3      3.056      3.692
REMARK  Name = 191626
REMARK  4 active torsions:
REMARK  status: ('A' for Active; 'I' for Inactive)
REMARK    1  A    between atoms: P_2  and  O_20
REMARK    2  A    between atoms: C_8  and  C_22
REMARK    3  A    between atoms: C_9  and  N_11
REMARK    4  A    between atoms: C_22  and  O_23
REMARK                            x       y       z     vdW  Elec       q    Type
REMARK                         _______ _______ _______ _____ _____    ______ ____
ROOT
ATOM      1  S   UNL     1     -35.486  22.736   2.847  0.00  0.00    -0.025 S 
ATOM      2  P   UNL     1     -35.583  23.368   4.826  0.00  0.00    +0.390 P 
ATOM      3  O   UNL     1     -39.251  23.895   3.013  0.00  0.00    -0.333 OA
ATOM      4  O   UNL     1     -36.829  24.413   4.738  0.00  0.00    -0.286 OA
ATOM      5  O   UNL     1     -34.307  23.986   5.318  0.00  0.00    -0.246 OA
ATOM      6  C   UNL     1     -37.119  24.854   3.394  0.00  0.00    +0.169 C 
ATOM      7  C   UNL     1     -36.962  23.706   2.390  0.00  0.00    +0.136 C 
ATOM      8  C   UNL     1     -38.609  25.149   3.312  0.00  0.00    +0.175 C 
ATOM      9  C   UNL     1     -38.266  22.942   2.576  0.00  0.00    +0.219 C 
ENDROOT
BRANCH   9  11
ATOM     10  O   UNL     1     -40.339  21.050   2.387  0.00  0.00    -0.193 OA
ATOM     11  N   UNL     1     -38.718  22.330   1.359  0.00  0.00    -0.179 N 
ATOM     12  N   UNL     1     -40.156  20.835   0.135  0.00  0.00    -0.306 NA
ATOM     13  N   UNL     1     -39.961  20.619  -2.172  0.00  0.00    -0.332 N 
ATOM     14  C   UNL     1     -38.099  22.683   0.173  0.00  0.00    +0.083 C 
ATOM     15  C   UNL     1     -39.771  21.384   1.346  0.00  0.00    +0.275 C 
ATOM     16  C   UNL     1     -38.454  22.165  -1.003  0.00  0.00    +0.065 C 
ATOM     17  C   UNL     1     -39.564  21.177  -0.979  0.00  0.00    +0.193 C 
ATOM     18  H   UNL     1     -40.693  19.961  -2.188  0.00  0.00    +0.145 HD
ATOM     19  H   UNL     1     -39.514  20.877  -3.010  0.00  0.00    +0.145 HD
ENDBRANCH   9  11
BRANCH   2  20
ATOM     20  O   UNL     1     -36.173  22.208   5.787  0.00  0.00    -0.316 OA
ATOM     21  H   UNL     1     -35.669  22.186   6.616  0.00  0.00    +0.221 HD
ENDBRANCH   2  20
BRANCH   8  22
ATOM     22  C   UNL     1     -38.962  26.135   2.206  0.00  0.00    +0.169 C 
BRANCH  22  23
ATOM     23  O   UNL     1     -40.167  25.718   1.588  0.00  0.00    -0.379 OA
ATOM     24  H   UNL     1     -40.908  25.855   2.199  0.00  0.00    +0.211 HD
ENDBRANCH  22  23
ENDBRANCH   8  22
TORSDOF 4
ENDMDL
MODEL 8
REMARK VINA RESULT:      -5.3      3.191      5.679
REMARK  Name = 191626
REMARK  4 active torsions:
REMARK  status: ('A' for Active; 'I' for Inactive)
REMARK    1  A    between atoms: P_2  and  O_20
REMARK    2  A    between atoms: C_8  and  C_22
REMARK    3  A    between atoms: C_9  and  N_11
REMARK    4  A    between atoms: C_22  and  O_23
REMARK                            x       y       z     vdW  Elec       q    Type
REMARK                         _______ _______ _______ _____ _____    ______ ____
ROOT
ATOM      1  S   UNL     1     -38.282  25.688   1.758  0.00  0.00    -0.025 S 
ATOM      2  P   UNL     1     -39.827  24.569   2.585  0.00  0.00    +0.390 P 
ATOM      3  O   UNL     1     -36.255  23.554   4.381  0.00  0.00    -0.333 OA
ATOM      4  O   UNL     1     -38.993  23.285   3.141  0.00  0.00    -0.286 OA
ATOM      5  O   UNL     1     -40.901  24.213   1.599  0.00  0.00    -0.246 OA
ATOM      6  C   UNL     1     -37.688  23.141   2.541  0.00  0.00    +0.169 C 
ATOM      7  C   UNL     1     -37.019  24.506   2.339  0.00  0.00    +0.136 C 
ATOM      8  C   UNL     1     -36.774  22.486   3.565  0.00  0.00    +0.175 C 
ATOM      9  C   UNL     1     -36.502  24.816   3.736  0.00  0.00    +0.219 C 
ENDROOT
BRANCH   9  11
ATOM     10  O   UNL     1     -35.505  26.349   5.874  0.00  0.00    -0.193 OA
ATOM     11  N   UNL     1     -35.284  25.573   3.713  0.00  0.00    -0.179 N 
ATOM     12  N   UNL     1     -33.660  27.027   4.739  0.00  0.00    -0.306 NA
ATOM     13  N   UNL     1     -31.774  27.719   3.568  0.00  0.00    -0.332 N 
ATOM     14  C   UNL     1     -34.522  25.564   2.557  0.00  0.00    +0.083 C 
ATOM     15  C   UNL     1     -34.848  26.321   4.832  0.00  0.00    +0.275 C 
ATOM     16  C   UNL     1     -33.378  26.237   2.446  0.00  0.00    +0.065 C 
ATOM     17  C   UNL     1     -32.950  27.010   3.642  0.00  0.00    +0.193 C 
ATOM     18  H   UNL     1     -31.465  28.241   4.344  0.00  0.00    +0.145 HD
ATOM     19  H   UNL     1     -31.241  27.705   2.741  0.00  0.00    +0.145 HD
ENDBRANCH   9  11
BRANCH   2  20
ATOM     20  O   UNL     1     -40.376  25.241   3.952  0.00  0.00    -0.316 OA
ATOM     21  H   UNL     1     -40.883  24.584   4.454  0.00  0.00    +0.221 HD
ENDBRANCH   2  20
BRANCH   8  22
ATOM     22  C   UNL     1     -35.594  21.759   2.933  0.00  0.00    +0.169 C 
BRANCH  22  23
ATOM     23  O   UNL     1     -35.794  20.361   3.066  0.00  0.00    -0.379 OA
ATOM     24  H   UNL     1     -35.215  20.017   3.764  0.00  0.00    +0.211 HD
ENDBRANCH  22  23
ENDBRANCH   8  22
TORSDOF 4
ENDMDL
MODEL 9
REMARK VINA RESULT:      -5.2      3.876      5.318
REMARK  Name = 191626
REMARK  4 active torsions:
REMARK  status: ('A' for Active; 'I' for Inactive)
REMARK    1  A    between atoms: P_2  and  O_20
REMARK    2  A    between atoms: C_8  and  C_22
REMARK    3  A    between atoms: C_9  and  N_11
REMARK    4  A    between atoms: C_22  and  O_23
REMARK                            x       y       z     vdW  Elec       q    Type
REMARK                         _______ _______ _______ _____ _____    ______ ____
ROOT
ATOM      1  S   UNL     1     -31.359  26.573   2.071  0.00  0.00    -0.025 S 
ATOM      2  P   UNL     1     -29.793  27.774   2.727  0.00  0.00    +0.390 P 
ATOM      3  O   UNL     1     -33.323  29.013   4.467  0.00  0.00    -0.333 OA
ATOM      4  O   UNL     1     -30.611  29.119   3.145  0.00  0.00    -0.286 OA
ATOM      5  O   UNL     1     -28.740  28.005   1.682  0.00  0.00    -0.246 OA
ATOM      6  C   UNL     1     -31.929  29.198   2.560  0.00  0.00    +0.169 C 
ATOM      7  C   UNL     1     -32.605  27.822   2.536  0.00  0.00    +0.136 C 
ATOM      8  C   UNL     1     -32.819  29.974   3.519  0.00  0.00    +0.175 C 
ATOM      9  C   UNL     1     -33.092  27.682   3.971  0.00  0.00    +0.219 C 
ENDROOT
BRANCH   9  11
ATOM     10  O   UNL     1     -33.916  26.195   6.213  0.00  0.00    -0.193 OA
ATOM     11  N   UNL     1     -34.313  26.934   4.064  0.00  0.00    -0.179 N 
ATOM     12  N   UNL     1     -35.853  25.511   5.249  0.00  0.00    -0.306 NA
ATOM     13  N   UNL     1     -37.835  24.811   4.253  0.00  0.00    -0.332 N 
ATOM     14  C   UNL     1     -35.168  26.927   2.975  0.00  0.00    +0.083 C 
ATOM     15  C   UNL     1     -34.658  26.209   5.229  0.00  0.00    +0.275 C 
ATOM     16  C   UNL     1     -36.322  26.261   2.973  0.00  0.00    +0.065 C 
ATOM     17  C   UNL     1     -36.653  25.513   4.215  0.00  0.00    +0.193 C 
ATOM     18  H   UNL     1     -38.082  24.306   5.062  0.00  0.00    +0.145 HD
ATOM     19  H   UNL     1     -38.436  24.814   3.473  0.00  0.00    +0.145 HD
ENDBRANCH   9  11
BRANCH   2  20
ATOM     20  O   UNL     1     -29.216  27.266   4.151  0.00  0.00    -0.316 OA
ATOM     21  H   UNL     1     -29.937  26.881   4.674  0.00  0.00    +0.221 HD
ENDBRANCH   2  20
BRANCH   8  22
ATOM     22  C   UNL     1     -34.010  30.627   2.831  0.00  0.00    +0.169 C 
BRANCH  22  23
ATOM     23  O   UNL     1     -35.170  30.404   3.615  0.00  0.00    -0.379 OA
ATOM     24  H   UNL     1     -35.708  31.211   3.634  0.00  0.00    +0.211 HD
ENDBRANCH  22  23
ENDBRANCH   8  22
TORSDOF 4
ENDMDL
