MODEL 1
REMARK VINA RESULT:      -6.0      0.000      0.000
REMARK  Name = 194193
REMARK  6 active torsions:
REMARK  status: ('A' for Active; 'I' for Inactive)
REMARK    1  A    between atoms: C_5  and  O_21
REMARK    2  A    between atoms: C_8  and  O_23
REMARK    3  A    between atoms: C_9  and  O_25
REMARK    4  A    between atoms: C_10  and  O_29
REMARK    5  A    between atoms: C_15  and  C_27
REMARK    6  A    between atoms: O_29  and  C_31
REMARK                            x       y       z     vdW  Elec       q    Type
REMARK                         _______ _______ _______ _____ _____    ______ ____
ROOT
ATOM      1  O   UNL     1     -35.138  22.869   3.562  0.00  0.00    -0.357 OA
ATOM      2  O   UNL     1     -37.675  25.948   3.412  0.00  0.00    -0.293 OA
ATOM      3  C   UNL     1     -38.015  24.009   1.199  0.00  0.00    +0.058 C 
ATOM      4  C   UNL     1     -37.957  22.680   0.318  0.00  0.00    +0.036 C 
ATOM      5  C   UNL     1     -37.161  23.743   2.510  0.00  0.00    +0.167 C 
ATOM      6  C   UNL     1     -35.689  23.297   2.288  0.00  0.00    +0.160 C 
ATOM      7  C   UNL     1     -38.863  22.684  -0.986  0.00  0.00    +0.003 C 
ATOM      8  C   UNL     1     -36.513  22.124   0.107  0.00  0.00    +0.153 C 
ATOM      9  C   UNL     1     -39.540  24.343   1.530  0.00  0.00    +0.113 C 
ATOM     10  C   UNL     1     -35.710  22.006   1.419  0.00  0.00    +0.222 C 
ATOM     11  C   UNL     1     -40.129  23.558  -0.798  0.00  0.00    +0.003 C 
ATOM     12  C   UNL     1     -40.566  23.626   0.650  0.00  0.00    +0.029 C 
ATOM     13  C   UNL     1     -37.482  25.224   0.393  0.00  0.00    +0.005 C 
ATOM     14  C   UNL     1     -37.151  24.848   3.568  0.00  0.00    +0.179 C 
ATOM     15  C   UNL     1     -35.162  23.754   4.696  0.00  0.00    +0.100 C 
ATOM     16  C   UNL     1     -34.736  24.351   1.697  0.00  0.00    +0.036 C 
ATOM     17  C   UNL     1     -39.328  21.226  -1.253  0.00  0.00    +0.000 C 
ATOM     18  C   UNL     1     -38.168  23.154  -2.280  0.00  0.00    +0.000 C 
ATOM     19  C   UNL     1     -36.501  24.487   4.885  0.00  0.00    +0.094 C 
ATOM     20  C   UNL     1     -34.945  22.821   5.904  0.00  0.00    +0.030 C 
ENDROOT
BRANCH   5  21
ATOM     21  O   UNL     1     -37.832  22.655   3.197  0.00  0.00    -0.377 OA
ATOM     22  H   UNL     1     -38.793  22.767   3.118  0.00  0.00    +0.211 HD
ENDBRANCH   5  21
BRANCH   8  23
ATOM     23  O   UNL     1     -35.782  22.898  -0.833  0.00  0.00    -0.381 OA
ATOM     24  H   UNL     1     -35.639  22.377  -1.640  0.00  0.00    +0.210 HD
ENDBRANCH   8  23
BRANCH   9  25
ATOM     25  O   UNL     1     -39.924  24.090   2.881  0.00  0.00    -0.384 OA
ATOM     26  H   UNL     1     -39.766  24.882   3.416  0.00  0.00    +0.210 HD
ENDBRANCH   9  25
BRANCH  15  27
ATOM     27  C   UNL     1     -33.986  24.740   4.678  0.00  0.00    +0.028 C 
ATOM     28  C   UNL     1     -34.208  25.869   5.659  0.00  0.00    +0.003 C 
ENDBRANCH  15  27
BRANCH  10  29
ATOM     29  O   UNL     1     -34.373  21.594   1.129  0.00  0.00    -0.447 OA
BRANCH  29  31
ATOM     30  O   UNL     1     -34.589  19.654   2.367  0.00  0.00    -0.250 OA
ATOM     31  C   UNL     1     -34.067  20.310   1.474  0.00  0.00    +0.318 C 
ATOM     32  C   UNL     1     -32.975  19.798   0.585  0.00  0.00    +0.121 C 
ENDBRANCH  29  31
ENDBRANCH  10  29
TORSDOF 6
ENDMDL
MODEL 2
REMARK VINA RESULT:      -6.0      1.765      6.342
REMARK  Name = 194193
REMARK  6 active torsions:
REMARK  status: ('A' for Active; 'I' for Inactive)
REMARK    1  A    between atoms: C_5  and  O_21
REMARK    2  A    between atoms: C_8  and  O_23
REMARK    3  A    between atoms: C_9  and  O_25
REMARK    4  A    between atoms: C_10  and  O_29
REMARK    5  A    between atoms: C_15  and  C_27
REMARK    6  A    between atoms: O_29  and  C_31
REMARK                            x       y       z     vdW  Elec       q    Type
REMARK                         _______ _______ _______ _____ _____    ______ ____
ROOT
ATOM      1  O   UNL     1     -38.901  22.907   0.522  0.00  0.00    -0.357 OA
ATOM      2  O   UNL     1     -35.564  20.825   1.208  0.00  0.00    -0.293 OA
ATOM      3  C   UNL     1     -35.766  23.318   2.796  0.00  0.00    +0.058 C 
ATOM      4  C   UNL     1     -36.345  24.608   3.535  0.00  0.00    +0.036 C 
ATOM      5  C   UNL     1     -36.965  22.659   1.990  0.00  0.00    +0.167 C 
ATOM      6  C   UNL     1     -37.701  23.585   0.982  0.00  0.00    +0.160 C 
ATOM      7  C   UNL     1     -35.333  25.346   4.512  0.00  0.00    +0.003 C 
ATOM      8  C   UNL     1     -37.161  25.557   2.603  0.00  0.00    +0.153 C 
ATOM      9  C   UNL     1     -35.157  22.326   3.887  0.00  0.00    +0.113 C 
ATOM     10  C   UNL     1     -38.228  24.819   1.769  0.00  0.00    +0.222 C 
ATOM     11  C   UNL     1     -34.321  24.354   5.140  0.00  0.00    +0.003 C 
ATOM     12  C   UNL     1     -34.887  22.956   5.256  0.00  0.00    +0.029 C 
ATOM     13  C   UNL     1     -34.584  23.702   1.868  0.00  0.00    +0.005 C 
ATOM     14  C   UNL     1     -36.679  21.338   1.275  0.00  0.00    +0.179 C 
ATOM     15  C   UNL     1     -38.812  21.598  -0.068  0.00  0.00    +0.100 C 
ATOM     16  C   UNL     1     -36.902  24.016  -0.260  0.00  0.00    +0.036 C 
ATOM     17  C   UNL     1     -36.158  25.977   5.669  0.00  0.00    +0.000 C 
ATOM     18  C   UNL     1     -34.523  26.499   3.887  0.00  0.00    +0.000 C 
ATOM     19  C   UNL     1     -37.883  20.635   0.690  0.00  0.00    +0.094 C 
ATOM     20  C   UNL     1     -40.251  21.051   0.016  0.00  0.00    +0.030 C 
ENDROOT
BRANCH   5  21
ATOM     21  O   UNL     1     -37.939  22.269   2.993  0.00  0.00    -0.377 OA
ATOM     22  H   UNL     1     -38.263  23.060   3.454  0.00  0.00    +0.211 HD
ENDBRANCH   5  21
BRANCH   8  23
ATOM     23  O   UNL     1     -36.316  26.308   1.743  0.00  0.00    -0.381 OA
ATOM     24  H   UNL     1     -36.762  27.131   1.487  0.00  0.00    +0.210 HD
ENDBRANCH   8  23
BRANCH   9  25
ATOM     25  O   UNL     1     -35.938  21.157   4.132  0.00  0.00    -0.384 OA
ATOM     26  H   UNL     1     -36.335  20.854   3.301  0.00  0.00    +0.210 HD
ENDBRANCH   9  25
BRANCH  15  27
ATOM     27  C   UNL     1     -38.447  21.664  -1.558  0.00  0.00    +0.028 C 
ATOM     28  C   UNL     1     -37.998  20.314  -2.068  0.00  0.00    +0.003 C 
ENDBRANCH  15  27
BRANCH  10  29
ATOM     29  O   UNL     1     -38.856  25.737   0.870  0.00  0.00    -0.447 OA
BRANCH  29  31
ATOM     30  O   UNL     1     -40.330  27.496   1.133  0.00  0.00    -0.250 OA
ATOM     31  C   UNL     1     -39.985  26.340   1.340  0.00  0.00    +0.318 C 
ATOM     32  C   UNL     1     -40.767  25.366   2.168  0.00  0.00    +0.121 C 
ENDBRANCH  29  31
ENDBRANCH  10  29
TORSDOF 6
ENDMDL
MODEL 3
REMARK VINA RESULT:      -5.8      3.648      6.472
REMARK  Name = 194193
REMARK  6 active torsions:
REMARK  status: ('A' for Active; 'I' for Inactive)
REMARK    1  A    between atoms: C_5  and  O_21
REMARK    2  A    between atoms: C_8  and  O_23
REMARK    3  A    between atoms: C_9  and  O_25
REMARK    4  A    between atoms: C_10  and  O_29
REMARK    5  A    between atoms: C_15  and  C_27
REMARK    6  A    between atoms: O_29  and  C_31
REMARK                            x       y       z     vdW  Elec       q    Type
REMARK                         _______ _______ _______ _____ _____    ______ ____
ROOT
ATOM      1  O   UNL     1     -36.229  25.019   3.086  0.00  0.00    -0.357 OA
ATOM      2  O   UNL     1     -32.382  26.067   3.295  0.00  0.00    -0.293 OA
ATOM      3  C   UNL     1     -34.167  28.246   2.377  0.00  0.00    +0.058 C 
ATOM      4  C   UNL     1     -35.462  29.134   2.093  0.00  0.00    +0.036 C 
ATOM      5  C   UNL     1     -34.662  26.891   3.041  0.00  0.00    +0.167 C 
ATOM      6  C   UNL     1     -35.717  26.081   2.237  0.00  0.00    +0.160 C 
ATOM      7  C   UNL     1     -35.180  30.599   1.548  0.00  0.00    +0.003 C 
ATOM      8  C   UNL     1     -36.602  28.370   1.349  0.00  0.00    +0.153 C 
ATOM      9  C   UNL     1     -33.181  29.060   3.331  0.00  0.00    +0.113 C 
ATOM     10  C   UNL     1     -36.941  27.009   1.992  0.00  0.00    +0.222 C 
ATOM     11  C   UNL     1     -33.832  31.154   2.077  0.00  0.00    +0.003 C 
ATOM     12  C   UNL     1     -33.458  30.563   3.419  0.00  0.00    +0.029 C 
ATOM     13  C   UNL     1     -33.376  27.996   1.066  0.00  0.00    +0.005 C 
ATOM     14  C   UNL     1     -33.583  25.909   3.502  0.00  0.00    +0.179 C 
ATOM     15  C   UNL     1     -35.325  24.080   3.696  0.00  0.00    +0.100 C 
ATOM     16  C   UNL     1     -35.232  25.439   0.925  0.00  0.00    +0.036 C 
ATOM     17  C   UNL     1     -36.312  31.530   2.064  0.00  0.00    +0.000 C 
ATOM     18  C   UNL     1     -35.169  30.749   0.014  0.00  0.00    +0.000 C 
ATOM     19  C   UNL     1     -34.074  24.729   4.309  0.00  0.00    +0.094 C 
ATOM     20  C   UNL     1     -36.153  23.450   4.834  0.00  0.00    +0.030 C 
ENDROOT
BRANCH   5  21
ATOM     21  O   UNL     1     -35.290  27.278   4.291  0.00  0.00    -0.377 OA
ATOM     22  H   UNL     1     -34.605  27.521   4.935  0.00  0.00    +0.211 HD
ENDBRANCH   5  21
BRANCH   8  23
ATOM     23  O   UNL     1     -36.304  28.187  -0.028  0.00  0.00    -0.381 OA
ATOM     24  H   UNL     1     -36.815  27.439  -0.373  0.00  0.00    +0.210 HD
ENDBRANCH   8  23
BRANCH   9  25
ATOM     25  O   UNL     1     -33.126  28.584   4.675  0.00  0.00    -0.384 OA
ATOM     26  H   UNL     1     -33.992  28.702   5.096  0.00  0.00    +0.210 HD
ENDBRANCH   9  25
BRANCH  15  27
ATOM     27  C   UNL     1     -34.949  22.942   2.737  0.00  0.00    +0.028 C 
ATOM     28  C   UNL     1     -35.640  21.654   3.124  0.00  0.00    +0.003 C 
ENDBRANCH  15  27
BRANCH  10  29
ATOM     29  O   UNL     1     -37.913  26.329   1.195  0.00  0.00    -0.447 OA
BRANCH  29  31
ATOM     30  O   UNL     1     -39.721  26.670   2.593  0.00  0.00    -0.250 OA
ATOM     31  C   UNL     1     -39.055  25.965   1.846  0.00  0.00    +0.318 C 
ATOM     32  C   UNL     1     -39.392  24.543   1.513  0.00  0.00    +0.121 C 
ENDBRANCH  29  31
ENDBRANCH  10  29
TORSDOF 6
ENDMDL
MODEL 4
REMARK VINA RESULT:      -5.8      1.815      4.741
REMARK  Name = 194193
REMARK  6 active torsions:
REMARK  status: ('A' for Active; 'I' for Inactive)
REMARK    1  A    between atoms: C_5  and  O_21
REMARK    2  A    between atoms: C_8  and  O_23
REMARK    3  A    between atoms: C_9  and  O_25
REMARK    4  A    between atoms: C_10  and  O_29
REMARK    5  A    between atoms: C_15  and  C_27
REMARK    6  A    between atoms: O_29  and  C_31
REMARK                            x       y       z     vdW  Elec       q    Type
REMARK                         _______ _______ _______ _____ _____    ______ ____
ROOT
ATOM      1  O   UNL     1     -38.117  24.513   2.734  0.00  0.00    -0.357 OA
ATOM      2  O   UNL     1     -39.517  22.731  -0.552  0.00  0.00    -0.293 OA
ATOM      3  C   UNL     1     -36.901  21.679   0.356  0.00  0.00    +0.058 C 
ATOM      4  C   UNL     1     -35.635  21.323   1.260  0.00  0.00    +0.036 C 
ATOM      5  C   UNL     1     -37.848  22.617   1.219  0.00  0.00    +0.167 C 
ATOM      6  C   UNL     1     -37.197  23.910   1.785  0.00  0.00    +0.160 C 
ATOM      7  C   UNL     1     -34.618  20.278   0.630  0.00  0.00    +0.003 C 
ATOM      8  C   UNL     1     -34.964  22.566   1.925  0.00  0.00    +0.153 C 
ATOM      9  C   UNL     1     -37.626  20.324  -0.075  0.00  0.00    +0.113 C 
ATOM     10  C   UNL     1     -35.971  23.487   2.645  0.00  0.00    +0.222 C 
ATOM     11  C   UNL     1     -35.339  19.275  -0.306  0.00  0.00    +0.003 C 
ATOM     12  C   UNL     1     -36.783  19.057   0.092  0.00  0.00    +0.029 C 
ATOM     13  C   UNL     1     -36.457  22.360  -0.966  0.00  0.00    +0.005 C 
ATOM     14  C   UNL     1     -39.189  23.012   0.598  0.00  0.00    +0.179 C 
ATOM     15  C   UNL     1     -39.461  24.836   2.335  0.00  0.00    +0.100 C 
ATOM     16  C   UNL     1     -36.812  24.988   0.757  0.00  0.00    +0.036 C 
ATOM     17  C   UNL     1     -33.981  19.468   1.793  0.00  0.00    +0.000 C 
ATOM     18  C   UNL     1     -33.443  20.885  -0.162  0.00  0.00    +0.000 C 
ATOM     19  C   UNL     1     -40.149  23.731   1.517  0.00  0.00    +0.094 C 
ATOM     20  C   UNL     1     -40.219  24.995   3.669  0.00  0.00    +0.030 C 
ENDROOT
BRANCH   5  21
ATOM     21  O   UNL     1     -38.253  21.815   2.360  0.00  0.00    -0.377 OA
ATOM     22  H   UNL     1     -38.077  20.879   2.175  0.00  0.00    +0.211 HD
ENDBRANCH   5  21
BRANCH   8  23
ATOM     23  O   UNL     1     -34.208  23.322   0.990  0.00  0.00    -0.381 OA
ATOM     24  H   UNL     1     -34.225  24.259   1.242  0.00  0.00    +0.210 HD
ENDBRANCH   8  23
BRANCH   9  25
ATOM     25  O   UNL     1     -38.863  20.073   0.590  0.00  0.00    -0.384 OA
ATOM     26  H   UNL     1     -39.003  20.743   1.276  0.00  0.00    +0.210 HD
ENDBRANCH   9  25
BRANCH  15  27
ATOM     27  C   UNL     1     -39.535  26.190   1.616  0.00  0.00    +0.028 C 
ATOM     28  C   UNL     1     -40.901  26.405   1.005  0.00  0.00    +0.003 C 
ENDBRANCH  15  27
BRANCH  10  29
ATOM     29  O   UNL     1     -35.297  24.649   3.133  0.00  0.00    -0.447 OA
BRANCH  29  31
ATOM     30  O   UNL     1     -33.522  24.796   4.605  0.00  0.00    -0.250 OA
ATOM     31  C   UNL     1     -34.682  24.506   4.342  0.00  0.00    +0.318 C 
ATOM     32  C   UNL     1     -35.648  23.930   5.332  0.00  0.00    +0.121 C 
ENDBRANCH  29  31
ENDBRANCH  10  29
TORSDOF 6
ENDMDL
MODEL 5
REMARK VINA RESULT:      -5.7      1.494      4.790
REMARK  Name = 194193
REMARK  6 active torsions:
REMARK  status: ('A' for Active; 'I' for Inactive)
REMARK    1  A    between atoms: C_5  and  O_21
REMARK    2  A    between atoms: C_8  and  O_23
REMARK    3  A    between atoms: C_9  and  O_25
REMARK    4  A    between atoms: C_10  and  O_29
REMARK    5  A    between atoms: C_15  and  C_27
REMARK    6  A    between atoms: O_29  and  C_31
REMARK                            x       y       z     vdW  Elec       q    Type
REMARK                         _______ _______ _______ _____ _____    ______ ____
ROOT
ATOM      1  O   UNL     1     -34.306  21.778   1.353  0.00  0.00    -0.357 OA
ATOM      2  O   UNL     1     -37.485  19.911  -0.180  0.00  0.00    -0.293 OA
ATOM      3  C   UNL     1     -38.100  22.569   0.974  0.00  0.00    +0.058 C 
ATOM      4  C   UNL     1     -37.951  24.055   1.536  0.00  0.00    +0.036 C 
ATOM      5  C   UNL     1     -36.637  22.031   0.671  0.00  0.00    +0.167 C 
ATOM      6  C   UNL     1     -35.635  22.070   1.860  0.00  0.00    +0.160 C 
ATOM      7  C   UNL     1     -39.314  24.833   1.780  0.00  0.00    +0.003 C 
ATOM      8  C   UNL     1     -36.907  24.192   2.689  0.00  0.00    +0.153 C 
ATOM      9  C   UNL     1     -39.012  22.601  -0.335  0.00  0.00    +0.113 C 
ATOM     10  C   UNL     1     -35.549  23.541   2.359  0.00  0.00    +0.222 C 
ATOM     11  C   UNL     1     -40.416  24.374   0.791  0.00  0.00    +0.003 C 
ATOM     12  C   UNL     1     -39.840  23.876  -0.517  0.00  0.00    +0.029 C 
ATOM     13  C   UNL     1     -38.851  21.671   1.991  0.00  0.00    +0.005 C 
ATOM     14  C   UNL     1     -36.525  20.651   0.021  0.00  0.00    +0.179 C 
ATOM     15  C   UNL     1     -34.062  20.569   0.612  0.00  0.00    +0.100 C 
ATOM     16  C   UNL     1     -35.916  21.102   3.022  0.00  0.00    +0.036 C 
ATOM     17  C   UNL     1     -39.055  26.345   1.533  0.00  0.00    +0.000 C 
ATOM     18  C   UNL     1     -39.898  24.726   3.203  0.00  0.00    +0.000 C 
ATOM     19  C   UNL     1     -35.140  20.255  -0.438  0.00  0.00    +0.094 C 
ATOM     20  C   UNL     1     -32.734  20.842  -0.123  0.00  0.00    +0.030 C 
ENDROOT
BRANCH   5  21
ATOM     21  O   UNL     1     -36.105  22.908  -0.357  0.00  0.00    -0.377 OA
ATOM     22  H   UNL     1     -35.203  23.175  -0.119  0.00  0.00    +0.211 HD
ENDBRANCH   5  21
BRANCH   8  23
ATOM     23  O   UNL     1     -37.402  23.672   3.915  0.00  0.00    -0.381 OA
ATOM     24  H   UNL     1     -37.746  22.776   3.771  0.00  0.00    +0.210 HD
ENDBRANCH   8  23
BRANCH   9  25
ATOM     25  O   UNL     1     -38.305  22.405  -1.558  0.00  0.00    -0.384 OA
ATOM     26  H   UNL     1     -37.757  21.608  -1.492  0.00  0.00    +0.210 HD
ENDBRANCH   9  25
BRANCH  15  27
ATOM     27  C   UNL     1     -33.820  19.369   1.538  0.00  0.00    +0.028 C 
ATOM     28  C   UNL     1     -32.565  18.623   1.144  0.00  0.00    +0.003 C 
ENDBRANCH  15  27
BRANCH  10  29
ATOM     29  O   UNL     1     -34.689  23.616   3.498  0.00  0.00    -0.447 OA
BRANCH  29  31
ATOM     30  O   UNL     1     -33.519  25.520   2.910  0.00  0.00    -0.250 OA
ATOM     31  C   UNL     1     -34.123  24.836   3.727  0.00  0.00    +0.318 C 
ATOM     32  C   UNL     1     -34.346  25.235   5.153  0.00  0.00    +0.121 C 
ENDBRANCH  29  31
ENDBRANCH  10  29
TORSDOF 6
ENDMDL
MODEL 6
REMARK VINA RESULT:      -5.5      3.277      7.207
REMARK  Name = 194193
REMARK  6 active torsions:
REMARK  status: ('A' for Active; 'I' for Inactive)
REMARK    1  A    between atoms: C_5  and  O_21
REMARK    2  A    between atoms: C_8  and  O_23
REMARK    3  A    between atoms: C_9  and  O_25
REMARK    4  A    between atoms: C_10  and  O_29
REMARK    5  A    between atoms: C_15  and  C_27
REMARK    6  A    between atoms: O_29  and  C_31
REMARK                            x       y       z     vdW  Elec       q    Type
REMARK                         _______ _______ _______ _____ _____    ______ ____
ROOT
ATOM      1  O   UNL     1     -36.951  25.908   2.421  0.00  0.00    -0.357 OA
ATOM      2  O   UNL     1     -34.066  24.205   4.593  0.00  0.00    -0.293 OA
ATOM      3  C   UNL     1     -33.485  27.004   3.817  0.00  0.00    +0.058 C 
ATOM      4  C   UNL     1     -33.654  28.516   3.335  0.00  0.00    +0.036 C 
ATOM      5  C   UNL     1     -34.908  26.309   3.695  0.00  0.00    +0.167 C 
ATOM      6  C   UNL     1     -35.578  26.366   2.294  0.00  0.00    +0.160 C 
ATOM      7  C   UNL     1     -32.370  29.435   3.504  0.00  0.00    +0.003 C 
ATOM      8  C   UNL     1     -34.386  28.664   1.964  0.00  0.00    +0.153 C 
ATOM      9  C   UNL     1     -32.937  26.998   5.316  0.00  0.00    +0.113 C 
ATOM     10  C   UNL     1     -35.702  27.863   1.889  0.00  0.00    +0.222 C 
ATOM     11  C   UNL     1     -31.505  28.989   4.711  0.00  0.00    +0.003 C 
ATOM     12  C   UNL     1     -32.330  28.321   5.789  0.00  0.00    +0.029 C 
ATOM     13  C   UNL     1     -32.408  26.277   2.970  0.00  0.00    +0.005 C 
ATOM     14  C   UNL     1     -35.023  24.870   4.201  0.00  0.00    +0.179 C 
ATOM     15  C   UNL     1     -37.235  24.618   2.991  0.00  0.00    +0.100 C 
ATOM     16  C   UNL     1     -34.910  25.540   1.181  0.00  0.00    +0.036 C 
ATOM     17  C   UNL     1     -32.850  30.887   3.776  0.00  0.00    +0.000 C 
ATOM     18  C   UNL     1     -31.441  29.515   2.276  0.00  0.00    +0.000 C 
ATOM     19  C   UNL     1     -36.425  24.308   4.260  0.00  0.00    +0.094 C 
ATOM     20  C   UNL     1     -38.726  24.699   3.375  0.00  0.00    +0.030 C 
ENDROOT
BRANCH   5  21
ATOM     21  O   UNL     1     -35.773  27.034   4.608  0.00  0.00    -0.377 OA
ATOM     22  H   UNL     1     -36.535  27.386   4.119  0.00  0.00    +0.211 HD
ENDBRANCH   5  21
BRANCH   8  23
ATOM     23  O   UNL     1     -33.546  28.307   0.876  0.00  0.00    -0.381 OA
ATOM     24  H   UNL     1     -33.975  27.614   0.349  0.00  0.00    +0.210 HD
ENDBRANCH   8  23
BRANCH   9  25
ATOM     25  O   UNL     1     -33.901  26.625   6.300  0.00  0.00    -0.384 OA
ATOM     26  H   UNL     1     -34.142  27.401   6.827  0.00  0.00    +0.210 HD
ENDBRANCH   9  25
BRANCH  15  27
ATOM     27  C   UNL     1     -37.101  23.492   1.956  0.00  0.00    +0.028 C 
ATOM     28  C   UNL     1     -36.927  22.152   2.633  0.00  0.00    +0.003 C 
ENDBRANCH  15  27
BRANCH  10  29
ATOM     29  O   UNL     1     -36.253  27.965   0.574  0.00  0.00    -0.447 OA
BRANCH  29  31
ATOM     30  O   UNL     1     -37.479  29.916   0.751  0.00  0.00    -0.250 OA
ATOM     31  C   UNL     1     -37.378  28.729   0.466  0.00  0.00    +0.318 C 
ATOM     32  C   UNL     1     -38.504  27.893  -0.061  0.00  0.00    +0.121 C 
ENDBRANCH  29  31
ENDBRANCH  10  29
TORSDOF 6
ENDMDL
MODEL 7
REMARK VINA RESULT:      -5.5      4.489      6.878
REMARK  Name = 194193
REMARK  6 active torsions:
REMARK  status: ('A' for Active; 'I' for Inactive)
REMARK    1  A    between atoms: C_5  and  O_21
REMARK    2  A    between atoms: C_8  and  O_23
REMARK    3  A    between atoms: C_9  and  O_25
REMARK    4  A    between atoms: C_10  and  O_29
REMARK    5  A    between atoms: C_15  and  C_27
REMARK    6  A    between atoms: O_29  and  C_31
REMARK                            x       y       z     vdW  Elec       q    Type
REMARK                         _______ _______ _______ _____ _____    ______ ____
ROOT
ATOM      1  O   UNL     1     -32.858  29.948   2.789  0.00  0.00    -0.357 OA
ATOM      2  O   UNL     1     -35.149  28.790  -0.269  0.00  0.00    -0.293 OA
ATOM      3  C   UNL     1     -35.211  26.937   2.041  0.00  0.00    +0.058 C 
ATOM      4  C   UNL     1     -35.078  26.335   3.513  0.00  0.00    +0.036 C 
ATOM      5  C   UNL     1     -34.614  28.408   2.078  0.00  0.00    +0.167 C 
ATOM      6  C   UNL     1     -33.154  28.539   2.594  0.00  0.00    +0.160 C 
ATOM      7  C   UNL     1     -35.743  24.909   3.730  0.00  0.00    +0.003 C 
ATOM      8  C   UNL     1     -33.655  26.493   4.133  0.00  0.00    +0.153 C 
ATOM      9  C   UNL     1     -36.749  26.922   1.613  0.00  0.00    +0.113 C 
ATOM     10  C   UNL     1     -33.099  27.928   4.023  0.00  0.00    +0.222 C 
ATOM     11  C   UNL     1     -36.970  24.705   2.806  0.00  0.00    +0.003 C 
ATOM     12  C   UNL     1     -37.647  26.013   2.458  0.00  0.00    +0.029 C 
ATOM     13  C   UNL     1     -34.478  26.036   1.012  0.00  0.00    +0.005 C 
ATOM     14  C   UNL     1     -34.724  29.234   0.795  0.00  0.00    +0.179 C 
ATOM     15  C   UNL     1     -33.028  30.881   1.706  0.00  0.00    +0.100 C 
ATOM     16  C   UNL     1     -32.054  27.951   1.693  0.00  0.00    +0.036 C 
ATOM     17  C   UNL     1     -36.238  24.830   5.201  0.00  0.00    +0.000 C 
ATOM     18  C   UNL     1     -34.808  23.700   3.529  0.00  0.00    +0.000 C 
ATOM     19  C   UNL     1     -34.334  30.690   0.919  0.00  0.00    +0.094 C 
ATOM     20  C   UNL     1     -33.077  32.256   2.402  0.00  0.00    +0.030 C 
ENDROOT
BRANCH   5  21
ATOM     21  O   UNL     1     -35.456  29.146   3.001  0.00  0.00    -0.377 OA
ATOM     22  H   UNL     1     -35.904  29.864   2.526  0.00  0.00    +0.211 HD
ENDBRANCH   5  21
BRANCH   8  23
ATOM     23  O   UNL     1     -32.728  25.576   3.568  0.00  0.00    -0.381 OA
ATOM     24  H   UNL     1     -33.207  24.903   3.060  0.00  0.00    +0.210 HD
ENDBRANCH   8  23
BRANCH   9  25
ATOM     25  O   UNL     1     -37.376  28.203   1.600  0.00  0.00    -0.384 OA
ATOM     26  H   UNL     1     -36.761  28.868   1.947  0.00  0.00    +0.210 HD
ENDBRANCH   9  25
BRANCH  15  27
ATOM     27  C   UNL     1     -31.811  30.899   0.770  0.00  0.00    +0.028 C 
ATOM     28  C   UNL     1     -30.583  31.412   1.487  0.00  0.00    +0.003 C 
ENDBRANCH  15  27
BRANCH  10  29
ATOM     29  O   UNL     1     -31.758  27.964   4.515  0.00  0.00    -0.447 OA
BRANCH  29  31
ATOM     30  O   UNL     1     -31.486  27.319   6.717  0.00  0.00    -0.250 OA
ATOM     31  C   UNL     1     -31.630  28.178   5.856  0.00  0.00    +0.318 C 
ATOM     32  C   UNL     1     -31.692  29.648   6.139  0.00  0.00    +0.121 C 
ENDBRANCH  29  31
ENDBRANCH  10  29
TORSDOF 6
ENDMDL
MODEL 8
REMARK VINA RESULT:      -5.5      2.683      6.689
REMARK  Name = 194193
REMARK  6 active torsions:
REMARK  status: ('A' for Active; 'I' for Inactive)
REMARK    1  A    between atoms: C_5  and  O_21
REMARK    2  A    between atoms: C_8  and  O_23
REMARK    3  A    between atoms: C_9  and  O_25
REMARK    4  A    between atoms: C_10  and  O_29
REMARK    5  A    between atoms: C_15  and  C_27
REMARK    6  A    between atoms: O_29  and  C_31
REMARK                            x       y       z     vdW  Elec       q    Type
REMARK                         _______ _______ _______ _____ _____    ______ ____
ROOT
ATOM      1  O   UNL     1     -39.186  26.711   1.401  0.00  0.00    -0.357 OA
ATOM      2  O   UNL     1     -38.293  23.198   3.073  0.00  0.00    -0.293 OA
ATOM      3  C   UNL     1     -36.030  25.108   3.023  0.00  0.00    +0.058 C 
ATOM      4  C   UNL     1     -35.176  26.453   2.935  0.00  0.00    +0.036 C 
ATOM      5  C   UNL     1     -37.543  25.492   2.733  0.00  0.00    +0.167 C 
ATOM      6  C   UNL     1     -37.816  26.228   1.391  0.00  0.00    +0.160 C 
ATOM      7  C   UNL     1     -33.643  26.316   3.327  0.00  0.00    +0.003 C 
ATOM      8  C   UNL     1     -35.446  27.291   1.646  0.00  0.00    +0.153 C 
ATOM      9  C   UNL     1     -35.837  24.467   4.471  0.00  0.00    +0.113 C 
ATOM     10  C   UNL     1     -36.947  27.518   1.374  0.00  0.00    +0.222 C 
ATOM     11  C   UNL     1     -33.422  25.202   4.383  0.00  0.00    +0.003 C 
ATOM     12  C   UNL     1     -34.638  24.998   5.261  0.00  0.00    +0.029 C 
ATOM     13  C   UNL     1     -35.494  24.053   2.020  0.00  0.00    +0.005 C 
ATOM     14  C   UNL     1     -38.579  24.374   2.862  0.00  0.00    +0.179 C 
ATOM     15  C   UNL     1     -40.275  25.799   1.630  0.00  0.00    +0.100 C 
ATOM     16  C   UNL     1     -37.619  25.405   0.106  0.00  0.00    +0.036 C 
ATOM     17  C   UNL     1     -33.185  27.662   3.954  0.00  0.00    +0.000 C 
ATOM     18  C   UNL     1     -32.677  26.039   2.158  0.00  0.00    +0.000 C 
ATOM     19  C   UNL     1     -40.025  24.810   2.780  0.00  0.00    +0.094 C 
ATOM     20  C   UNL     1     -41.452  26.713   2.024  0.00  0.00    +0.030 C 
ENDROOT
BRANCH   5  21
ATOM     21  O   UNL     1     -37.925  26.400   3.798  0.00  0.00    -0.377 OA
ATOM     22  H   UNL     1     -38.171  25.889   4.586  0.00  0.00    +0.211 HD
ENDBRANCH   5  21
BRANCH   8  23
ATOM     23  O   UNL     1     -34.835  26.711   0.502  0.00  0.00    -0.381 OA
ATOM     24  H   UNL     1     -35.358  26.925  -0.288  0.00  0.00    +0.210 HD
ENDBRANCH   8  23
BRANCH   9  25
ATOM     25  O   UNL     1     -36.969  24.591   5.332  0.00  0.00    -0.384 OA
ATOM     26  H   UNL     1     -36.771  25.226   6.037  0.00  0.00    +0.210 HD
ENDBRANCH   9  25
BRANCH  15  27
ATOM     27  C   UNL     1     -40.689  25.066   0.346  0.00  0.00    +0.028 C 
ATOM     28  C   UNL     1     -42.095  24.522   0.461  0.00  0.00    +0.003 C 
ENDBRANCH  15  27
BRANCH  10  29
ATOM     29  O   UNL     1     -37.113  28.198   0.127  0.00  0.00    -0.447 OA
BRANCH  29  31
ATOM     30  O   UNL     1     -37.202  30.344   0.978  0.00  0.00    -0.250 OA
ATOM     31  C   UNL     1     -37.592  29.472   0.212  0.00  0.00    +0.318 C 
ATOM     32  C   UNL     1     -38.691  29.664  -0.788  0.00  0.00    +0.121 C 
ENDBRANCH  29  31
ENDBRANCH  10  29
TORSDOF 6
ENDMDL
MODEL 9
REMARK VINA RESULT:      -5.3      1.699      5.426
REMARK  Name = 194193
REMARK  6 active torsions:
REMARK  status: ('A' for Active; 'I' for Inactive)
REMARK    1  A    between atoms: C_5  and  O_21
REMARK    2  A    between atoms: C_8  and  O_23
REMARK    3  A    between atoms: C_9  and  O_25
REMARK    4  A    between atoms: C_10  and  O_29
REMARK    5  A    between atoms: C_15  and  C_27
REMARK    6  A    between atoms: O_29  and  C_31
REMARK                            x       y       z     vdW  Elec       q    Type
REMARK                         _______ _______ _______ _____ _____    ______ ____
ROOT
ATOM      1  O   UNL     1     -37.908  21.969  -0.046  0.00  0.00    -0.357 OA
ATOM      2  O   UNL     1     -39.594  25.521   0.654  0.00  0.00    -0.293 OA
ATOM      3  C   UNL     1     -37.237  24.958   2.359  0.00  0.00    +0.058 C 
ATOM      4  C   UNL     1     -35.881  24.333   2.922  0.00  0.00    +0.036 C 
ATOM      5  C   UNL     1     -37.638  24.126   1.067  0.00  0.00    +0.167 C 
ATOM      6  C   UNL     1     -37.782  22.590   1.261  0.00  0.00    +0.160 C 
ATOM      7  C   UNL     1     -35.229  25.108   4.146  0.00  0.00    +0.003 C 
ATOM      8  C   UNL     1     -35.919  22.780   3.079  0.00  0.00    +0.153 C 
ATOM      9  C   UNL     1     -36.998  26.501   2.031  0.00  0.00    +0.113 C 
ATOM     10  C   UNL     1     -36.431  22.055   1.818  0.00  0.00    +0.222 C 
ATOM     11  C   UNL     1     -35.540  26.625   4.091  0.00  0.00    +0.003 C 
ATOM     12  C   UNL     1     -35.751  27.114   2.674  0.00  0.00    +0.029 C 
ATOM     13  C   UNL     1     -38.348  24.924   3.441  0.00  0.00    +0.005 C 
ATOM     14  C   UNL     1     -38.861  24.606   0.284  0.00  0.00    +0.179 C 
ATOM     15  C   UNL     1     -38.940  22.396  -0.954  0.00  0.00    +0.100 C 
ATOM     16  C   UNL     1     -38.966  22.117   2.121  0.00  0.00    +0.036 C 
ATOM     17  C   UNL     1     -33.688  24.936   4.056  0.00  0.00    +0.000 C 
ATOM     18  C   UNL     1     -35.634  24.605   5.546  0.00  0.00    +0.000 C 
ATOM     19  C   UNL     1     -39.097  23.922  -1.044  0.00  0.00    +0.094 C 
ATOM     20  C   UNL     1     -38.470  21.874  -2.326  0.00  0.00    +0.030 C 
ENDROOT
BRANCH   5  21
ATOM     21  O   UNL     1     -36.557  24.332   0.121  0.00  0.00    -0.377 OA
ATOM     22  H   UNL     1     -36.923  24.420  -0.774  0.00  0.00    +0.211 HD
ENDBRANCH   5  21
BRANCH   8  23
ATOM     23  O   UNL     1     -36.687  22.381   4.206  0.00  0.00    -0.381 OA
ATOM     24  H   UNL     1     -37.454  22.969   4.299  0.00  0.00    +0.210 HD
ENDBRANCH   8  23
BRANCH   9  25
ATOM     25  O   UNL     1     -36.922  26.809   0.639  0.00  0.00    -0.384 OA
ATOM     26  H   UNL     1     -37.510  26.217   0.145  0.00  0.00    +0.210 HD
ENDBRANCH   9  25
BRANCH  15  27
ATOM     27  C   UNL     1     -40.283  21.715  -0.655  0.00  0.00    +0.028 C 
ATOM     28  C   UNL     1     -40.280  20.278  -1.125  0.00  0.00    +0.003 C 
ENDBRANCH  15  27
BRANCH  10  29
ATOM     29  O   UNL     1     -36.536  20.653   2.078  0.00  0.00    -0.447 OA
BRANCH  29  31
ATOM     30  O   UNL     1     -34.397  19.801   1.875  0.00  0.00    -0.250 OA
ATOM     31  C   UNL     1     -35.565  19.877   1.514  0.00  0.00    +0.318 C 
ATOM     32  C   UNL     1     -36.139  19.111   0.362  0.00  0.00    +0.121 C 
ENDBRANCH  29  31
ENDBRANCH  10  29
TORSDOF 6
ENDMDL
