MODEL 1
REMARK VINA RESULT:      -5.6      0.000      0.000
REMARK  Name = 192093
REMARK  7 active torsions:
REMARK  status: ('A' for Active; 'I' for Inactive)
REMARK    1  A    between atoms: CA_6  and  C_25
REMARK    2  A    between atoms: CA_7  and  N_12
REMARK    3  A    between atoms: C_13  and  C_15
REMARK    4  A    between atoms: C_15  and  N_16
REMARK    5  A    between atoms: C_15  and  C_20
REMARK    6  A    between atoms: C_15  and  C_22
REMARK    7  A    between atoms: C_25  and  O_26
REMARK                            x       y       z     vdW  Elec       q    Type
REMARK                         _______ _______ _______ _____ _____    ______ ____
ROOT
ATOM      1  S   UNL     1     -34.781  22.884   0.313  0.00  0.00    -0.118 S 
ATOM      2  O   UNL     1     -35.178  20.555   4.032  0.00  0.00    -0.273 OA
ATOM      3  N   UNL     1     -35.386  20.771   1.690  0.00  0.00    -0.260 N 
ATOM      4  C   UNL     1     -36.093  21.949   1.181  0.00  0.00    +0.151 C 
ATOM      5  C   UNL     1     -33.899  21.305  -0.135  0.00  0.00    +0.068 C 
ATOM      6  CA  UNL     1     -34.113  20.405   1.101  0.00  0.00    +0.184 C 
ATOM      7  CA  UNL     1     -36.367  22.335   2.641  0.00  0.00    +0.178 C 
ATOM      8  C   UNL     1     -35.588  21.057   3.009  0.00  0.00    +0.247 C 
ATOM      9  C   UNL     1     -34.522  20.767  -1.430  0.00  0.00    +0.013 C 
ATOM     10  C   UNL     1     -32.416  21.609  -0.354  0.00  0.00    +0.013 C 
ENDROOT
BRANCH   7  12
ATOM     11  O   UNL     1     -37.654  24.382   4.168  0.00  0.00    -0.277 OA
ATOM     12  N   UNL     1     -35.751  23.576   3.143  0.00  0.00    -0.298 N 
ATOM     13  C   UNL     1     -36.463  24.514   3.880  0.00  0.00    +0.204 C 
ATOM     14  H   UNL     1     -34.801  23.746   2.949  0.00  0.00    +0.150 HD
BRANCH  13  15
ATOM     15  C   UNL     1     -35.631  25.740   4.311  0.00  0.00    +0.022 C 
BRANCH  15  16
ATOM     16  N   UNL     1     -36.462  26.527   5.235  0.00  0.00    +0.388 N 
ATOM     17  H   UNL     1     -37.128  27.085   4.700  0.00  0.00    -0.088 HD
ATOM     18  H   UNL     1     -35.866  27.144   5.786  0.00  0.00    -0.088 HD
ATOM     19  H   UNL     1     -36.968  25.898   5.857  0.00  0.00    -0.088 HD
ENDBRANCH  15  16
BRANCH  15  20
ATOM     20  C   UNL     1     -34.316  25.310   5.017  0.00  0.00    -0.012 C 
ATOM     21  C   UNL     1     -33.825  26.251   6.112  0.00  0.00    -0.002 C 
ENDBRANCH  15  20
BRANCH  15  22
ATOM     22  C   UNL     1     -35.281  26.631   3.090  0.00  0.00    -0.012 C 
ATOM     23  C   UNL     1     -36.451  26.932   2.156  0.00  0.00    -0.002 C 
ENDBRANCH  15  22
ENDBRANCH  13  15
ENDBRANCH   7  12
BRANCH   6  25
ATOM     24  OXT UNL     1     -33.186  18.219   0.662  0.00  0.00    -0.248 OA
ATOM     25  C   UNL     1     -34.162  18.937   0.821  0.00  0.00    +0.333 C 
BRANCH  25  26
ATOM     26  O   UNL     1     -35.445  18.503   0.764  0.00  0.00    -0.479 OA
ATOM     27  H   UNL     1     -35.740  18.007   0.026  0.00  0.00    +0.295 HD
ENDBRANCH  25  26
ENDBRANCH   6  25
TORSDOF 7
ENDMDL
MODEL 2
REMARK VINA RESULT:      -5.2      2.168      6.588
REMARK  Name = 192093
REMARK  7 active torsions:
REMARK  status: ('A' for Active; 'I' for Inactive)
REMARK    1  A    between atoms: CA_6  and  C_25
REMARK    2  A    between atoms: CA_7  and  N_12
REMARK    3  A    between atoms: C_13  and  C_15
REMARK    4  A    between atoms: C_15  and  N_16
REMARK    5  A    between atoms: C_15  and  C_20
REMARK    6  A    between atoms: C_15  and  C_22
REMARK    7  A    between atoms: C_25  and  O_26
REMARK                            x       y       z     vdW  Elec       q    Type
REMARK                         _______ _______ _______ _____ _____    ______ ____
ROOT
ATOM      1  S   UNL     1     -35.282  24.707   1.531  0.00  0.00    -0.118 S 
ATOM      2  O   UNL     1     -39.090  22.630   2.302  0.00  0.00    -0.273 OA
ATOM      3  N   UNL     1     -37.615  24.443   2.633  0.00  0.00    -0.260 N 
ATOM      4  C   UNL     1     -36.228  24.129   2.987  0.00  0.00    +0.151 C 
ATOM      5  C   UNL     1     -36.520  26.062   1.216  0.00  0.00    +0.068 C 
ATOM      6  CA  UNL     1     -37.872  25.414   1.589  0.00  0.00    +0.184 C 
ATOM      7  CA  UNL     1     -36.636  22.649   3.003  0.00  0.00    +0.178 C 
ATOM      8  C   UNL     1     -38.045  23.148   2.624  0.00  0.00    +0.247 C 
ATOM      9  C   UNL     1     -36.132  27.268   2.083  0.00  0.00    +0.013 C 
ATOM     10  C   UNL     1     -36.474  26.444  -0.264  0.00  0.00    +0.013 C 
ENDROOT
BRANCH   7  12
ATOM     11  O   UNL     1     -35.073  20.309   3.513  0.00  0.00    -0.277 OA
ATOM     12  N   UNL     1     -36.024  21.764   1.997  0.00  0.00    -0.298 N 
ATOM     13  C   UNL     1     -35.278  20.645   2.345  0.00  0.00    +0.204 C 
ATOM     14  H   UNL     1     -36.149  21.973   1.042  0.00  0.00    +0.150 HD
BRANCH  13  15
ATOM     15  C   UNL     1     -34.729  19.852   1.140  0.00  0.00    +0.022 C 
BRANCH  15  16
ATOM     16  N   UNL     1     -35.763  18.885   0.746  0.00  0.00    +0.388 N 
ATOM     17  H   UNL     1     -36.081  18.374   1.570  0.00  0.00    -0.088 HD
ATOM     18  H   UNL     1     -35.376  18.231   0.068  0.00  0.00    -0.088 HD
ATOM     19  H   UNL     1     -36.551  19.381   0.330  0.00  0.00    -0.088 HD
ENDBRANCH  15  16
BRANCH  15  20
ATOM     20  C   UNL     1     -34.401  20.793  -0.051  0.00  0.00    -0.012 C 
ATOM     21  C   UNL     1     -32.973  21.329  -0.085  0.00  0.00    -0.002 C 
ENDBRANCH  15  20
BRANCH  15  22
ATOM     22  C   UNL     1     -33.449  19.066   1.531  0.00  0.00    -0.012 C 
ATOM     23  C   UNL     1     -33.269  17.731   0.813  0.00  0.00    -0.002 C 
ENDBRANCH  15  22
ENDBRANCH  13  15
ENDBRANCH   7  12
BRANCH   6  25
ATOM     24  OXT UNL     1     -39.631  27.060   1.415  0.00  0.00    -0.248 OA
ATOM     25  C   UNL     1     -38.910  26.357   2.108  0.00  0.00    +0.333 C 
BRANCH  25  26
ATOM     26  O   UNL     1     -38.946  26.330   3.463  0.00  0.00    -0.479 OA
ATOM     27  H   UNL     1     -39.542  26.885   3.927  0.00  0.00    +0.295 HD
ENDBRANCH  25  26
ENDBRANCH   6  25
TORSDOF 7
ENDMDL
MODEL 3
REMARK VINA RESULT:      -5.0      1.585      1.969
REMARK  Name = 192093
REMARK  7 active torsions:
REMARK  status: ('A' for Active; 'I' for Inactive)
REMARK    1  A    between atoms: CA_6  and  C_25
REMARK    2  A    between atoms: CA_7  and  N_12
REMARK    3  A    between atoms: C_13  and  C_15
REMARK    4  A    between atoms: C_15  and  N_16
REMARK    5  A    between atoms: C_15  and  C_20
REMARK    6  A    between atoms: C_15  and  C_22
REMARK    7  A    between atoms: C_25  and  O_26
REMARK                            x       y       z     vdW  Elec       q    Type
REMARK                         _______ _______ _______ _____ _____    ______ ____
ROOT
ATOM      1  S   UNL     1     -33.589  22.065   0.387  0.00  0.00    -0.118 S 
ATOM      2  O   UNL     1     -36.688  19.875   2.625  0.00  0.00    -0.273 OA
ATOM      3  N   UNL     1     -35.558  20.392   0.618  0.00  0.00    -0.260 N 
ATOM      4  C   UNL     1     -35.398  21.809   0.279  0.00  0.00    +0.151 C 
ATOM      5  C   UNL     1     -33.270  20.310  -0.148  0.00  0.00    +0.068 C 
ATOM      6  CA  UNL     1     -34.410  19.512   0.521  0.00  0.00    +0.184 C 
ATOM      7  CA  UNL     1     -36.218  22.135   1.535  0.00  0.00    +0.178 C 
ATOM      8  C   UNL     1     -36.287  20.610   1.751  0.00  0.00    +0.247 C 
ATOM      9  C   UNL     1     -33.283  20.274  -1.683  0.00  0.00    +0.013 C 
ATOM     10  C   UNL     1     -31.901  19.872   0.375  0.00  0.00    +0.013 C 
ENDROOT
BRANCH   7  12
ATOM     11  O   UNL     1     -37.463  23.448   3.750  0.00  0.00    -0.277 OA
ATOM     12  N   UNL     1     -35.538  22.862   2.621  0.00  0.00    -0.298 N 
ATOM     13  C   UNL     1     -36.234  23.470   3.659  0.00  0.00    +0.204 C 
ATOM     14  H   UNL     1     -34.555  22.919   2.612  0.00  0.00    +0.150 HD
BRANCH  13  15
ATOM     15  C   UNL     1     -35.333  24.176   4.694  0.00  0.00    +0.022 C 
BRANCH  15  16
ATOM     16  N   UNL     1     -36.195  25.066   5.487  0.00  0.00    +0.388 N 
ATOM     17  H   UNL     1     -35.678  25.911   5.729  0.00  0.00    -0.088 HD
ATOM     18  H   UNL     1     -36.485  24.588   6.339  0.00  0.00    -0.088 HD
ATOM     19  H   UNL     1     -37.019  25.317   4.940  0.00  0.00    -0.088 HD
ENDBRANCH  15  16
BRANCH  15  20
ATOM     20  C   UNL     1     -34.632  23.150   5.624  0.00  0.00    -0.012 C 
ATOM     21  C   UNL     1     -35.562  22.172   6.336  0.00  0.00    -0.002 C 
ENDBRANCH  15  20
BRANCH  15  22
ATOM     22  C   UNL     1     -34.254  25.042   3.991  0.00  0.00    -0.012 C 
ATOM     23  C   UNL     1     -33.994  26.399   4.640  0.00  0.00    -0.002 C 
ENDBRANCH  15  22
ENDBRANCH  13  15
ENDBRANCH   7  12
BRANCH   6  25
ATOM     24  OXT UNL     1     -35.559  18.289  -1.216  0.00  0.00    -0.248 OA
ATOM     25  C   UNL     1     -34.853  18.290  -0.217  0.00  0.00    +0.333 C 
BRANCH  25  26
ATOM     26  O   UNL     1     -34.367  17.171   0.374  0.00  0.00    -0.479 OA
ATOM     27  H   UNL     1     -34.817  16.355   0.274  0.00  0.00    +0.295 HD
ENDBRANCH  25  26
ENDBRANCH   6  25
TORSDOF 7
ENDMDL
MODEL 4
REMARK VINA RESULT:      -5.0      1.511      2.185
REMARK  Name = 192093
REMARK  7 active torsions:
REMARK  status: ('A' for Active; 'I' for Inactive)
REMARK    1  A    between atoms: CA_6  and  C_25
REMARK    2  A    between atoms: CA_7  and  N_12
REMARK    3  A    between atoms: C_13  and  C_15
REMARK    4  A    between atoms: C_15  and  N_16
REMARK    5  A    between atoms: C_15  and  C_20
REMARK    6  A    between atoms: C_15  and  C_22
REMARK    7  A    between atoms: C_25  and  O_26
REMARK                            x       y       z     vdW  Elec       q    Type
REMARK                         _______ _______ _______ _____ _____    ______ ____
ROOT
ATOM      1  S   UNL     1     -34.131  21.785  -0.467  0.00  0.00    -0.118 S 
ATOM      2  O   UNL     1     -35.082  20.290   3.566  0.00  0.00    -0.273 OA
ATOM      3  N   UNL     1     -34.765  19.949   1.252  0.00  0.00    -0.260 N 
ATOM      4  C   UNL     1     -35.479  20.842   0.334  0.00  0.00    +0.151 C 
ATOM      5  C   UNL     1     -32.976  20.331  -0.323  0.00  0.00    +0.068 C 
ATOM      6  CA  UNL     1     -33.355  19.698   1.034  0.00  0.00    +0.184 C 
ATOM      7  CA  UNL     1     -36.131  21.482   1.568  0.00  0.00    +0.178 C 
ATOM      8  C   UNL     1     -35.303  20.475   2.391  0.00  0.00    +0.247 C 
ATOM      9  C   UNL     1     -33.207  19.420  -1.536  0.00  0.00    +0.013 C 
ATOM     10  C   UNL     1     -31.533  20.839  -0.317  0.00  0.00    +0.013 C 
ENDROOT
BRANCH   7  12
ATOM     11  O   UNL     1     -37.203  23.083   3.681  0.00  0.00    -0.277 OA
ATOM     12  N   UNL     1     -35.811  22.892   1.851  0.00  0.00    -0.298 N 
ATOM     13  C   UNL     1     -36.387  23.588   2.907  0.00  0.00    +0.204 C 
ATOM     14  H   UNL     1     -35.166  23.359   1.272  0.00  0.00    +0.150 HD
BRANCH  13  15
ATOM     15  C   UNL     1     -35.915  25.052   3.031  0.00  0.00    +0.022 C 
BRANCH  15  16
ATOM     16  N   UNL     1     -34.990  25.307   1.916  0.00  0.00    +0.388 N 
ATOM     17  H   UNL     1     -34.030  25.266   2.256  0.00  0.00    -0.088 HD
ATOM     18  H   UNL     1     -35.175  26.230   1.527  0.00  0.00    -0.088 HD
ATOM     19  H   UNL     1     -35.125  24.599   1.194  0.00  0.00    -0.088 HD
ENDBRANCH  15  16
BRANCH  15  20
ATOM     20  C   UNL     1     -37.112  26.038   2.963  0.00  0.00    -0.012 C 
ATOM     21  C   UNL     1     -37.174  26.904   1.708  0.00  0.00    -0.002 C 
ENDBRANCH  15  20
BRANCH  15  22
ATOM     22  C   UNL     1     -35.149  25.277   4.361  0.00  0.00    -0.012 C 
ATOM     23  C   UNL     1     -35.978  25.893   5.485  0.00  0.00    -0.002 C 
ENDBRANCH  15  22
ENDBRANCH  13  15
ENDBRANCH   7  12
BRANCH   6  25
ATOM     24  OXT UNL     1     -32.111  17.675   1.470  0.00  0.00    -0.248 OA
ATOM     25  C   UNL     1     -33.150  18.220   1.129  0.00  0.00    +0.333 C 
BRANCH  25  26
ATOM     26  O   UNL     1     -34.280  17.557   0.781  0.00  0.00    -0.479 OA
ATOM     27  H   UNL     1     -34.287  17.009   0.021  0.00  0.00    +0.295 HD
ENDBRANCH  25  26
ENDBRANCH   6  25
TORSDOF 7
ENDMDL
MODEL 5
REMARK VINA RESULT:      -4.9      4.875      8.525
REMARK  Name = 192093
REMARK  7 active torsions:
REMARK  status: ('A' for Active; 'I' for Inactive)
REMARK    1  A    between atoms: CA_6  and  C_25
REMARK    2  A    between atoms: CA_7  and  N_12
REMARK    3  A    between atoms: C_13  and  C_15
REMARK    4  A    between atoms: C_15  and  N_16
REMARK    5  A    between atoms: C_15  and  C_20
REMARK    6  A    between atoms: C_15  and  C_22
REMARK    7  A    between atoms: C_25  and  O_26
REMARK                            x       y       z     vdW  Elec       q    Type
REMARK                         _______ _______ _______ _____ _____    ______ ____
ROOT
ATOM      1  S   UNL     1     -35.464  29.157   1.531  0.00  0.00    -0.118 S 
ATOM      2  O   UNL     1     -32.721  29.817   4.915  0.00  0.00    -0.273 OA
ATOM      3  N   UNL     1     -33.332  30.116   2.654  0.00  0.00    -0.260 N 
ATOM      4  C   UNL     1     -33.684  28.919   1.886  0.00  0.00    +0.151 C 
ATOM      5  C   UNL     1     -35.247  31.006   1.484  0.00  0.00    +0.068 C 
ATOM      6  CA  UNL     1     -34.196  31.277   2.583  0.00  0.00    +0.184 C 
ATOM      7  CA  UNL     1     -33.332  28.095   3.132  0.00  0.00    +0.178 C 
ATOM      8  C   UNL     1     -33.008  29.447   3.798  0.00  0.00    +0.247 C 
ATOM      9  C   UNL     1     -34.801  31.394   0.067  0.00  0.00    +0.013 C 
ATOM     10  C   UNL     1     -36.583  31.673   1.814  0.00  0.00    +0.013 C 
ENDROOT
BRANCH   7  12
ATOM     11  O   UNL     1     -33.319  25.329   3.857  0.00  0.00    -0.277 OA
ATOM     12  N   UNL     1     -34.424  27.353   3.787  0.00  0.00    -0.298 N 
ATOM     13  C   UNL     1     -34.322  26.003   4.101  0.00  0.00    +0.204 C 
ATOM     14  H   UNL     1     -35.256  27.830   4.010  0.00  0.00    +0.150 HD
BRANCH  13  15
ATOM     15  C   UNL     1     -35.575  25.418   4.785  0.00  0.00    +0.022 C 
BRANCH  15  16
ATOM     16  N   UNL     1     -36.317  26.543   5.372  0.00  0.00    +0.388 N 
ATOM     17  H   UNL     1     -35.700  27.070   5.990  0.00  0.00    -0.088 HD
ATOM     18  H   UNL     1     -37.109  26.187   5.905  0.00  0.00    -0.088 HD
ATOM     19  H   UNL     1     -36.654  27.154   4.627  0.00  0.00    -0.088 HD
ENDBRANCH  15  16
BRANCH  15  20
ATOM     20  C   UNL     1     -36.473  24.664   3.767  0.00  0.00    -0.012 C 
ATOM     21  C   UNL     1     -37.761  25.382   3.377  0.00  0.00    -0.002 C 
ENDBRANCH  15  20
BRANCH  15  22
ATOM     22  C   UNL     1     -35.180  24.445   5.928  0.00  0.00    -0.012 C 
ATOM     23  C   UNL     1     -35.422  22.968   5.629  0.00  0.00    -0.002 C 
ENDBRANCH  15  22
ENDBRANCH  13  15
ENDBRANCH   7  12
BRANCH   6  25
ATOM     24  OXT UNL     1     -33.684  33.631   2.413  0.00  0.00    -0.248 OA
ATOM     25  C   UNL     1     -33.319  32.466   2.349  0.00  0.00    +0.333 C 
BRANCH  25  26
ATOM     26  O   UNL     1     -32.055  32.078   2.052  0.00  0.00    -0.479 OA
ATOM     27  H   UNL     1     -31.458  32.685   1.661  0.00  0.00    +0.295 HD
ENDBRANCH  25  26
ENDBRANCH   6  25
TORSDOF 7
ENDMDL
MODEL 6
REMARK VINA RESULT:      -4.9      3.724      4.739
REMARK  Name = 192093
REMARK  7 active torsions:
REMARK  status: ('A' for Active; 'I' for Inactive)
REMARK    1  A    between atoms: CA_6  and  C_25
REMARK    2  A    between atoms: CA_7  and  N_12
REMARK    3  A    between atoms: C_13  and  C_15
REMARK    4  A    between atoms: C_15  and  N_16
REMARK    5  A    between atoms: C_15  and  C_20
REMARK    6  A    between atoms: C_15  and  C_22
REMARK    7  A    between atoms: C_25  and  O_26
REMARK                            x       y       z     vdW  Elec       q    Type
REMARK                         _______ _______ _______ _____ _____    ______ ____
ROOT
ATOM      1  S   UNL     1     -37.449  22.249  -0.652  0.00  0.00    -0.118 S 
ATOM      2  O   UNL     1     -40.305  21.087   2.494  0.00  0.00    -0.273 OA
ATOM      3  N   UNL     1     -39.822  21.825   0.304  0.00  0.00    -0.260 N 
ATOM      4  C   UNL     1     -38.920  22.972   0.162  0.00  0.00    +0.151 C 
ATOM      5  C   UNL     1     -38.507  21.004  -1.546  0.00  0.00    +0.068 C 
ATOM      6  CA  UNL     1     -39.602  20.651  -0.516  0.00  0.00    +0.184 C 
ATOM      7  CA  UNL     1     -38.891  23.056   1.694  0.00  0.00    +0.178 C 
ATOM      8  C   UNL     1     -39.837  21.839   1.669  0.00  0.00    +0.247 C 
ATOM      9  C   UNL     1     -39.028  21.661  -2.831  0.00  0.00    +0.013 C 
ATOM     10  C   UNL     1     -37.653  19.782  -1.892  0.00  0.00    +0.013 C 
ENDROOT
BRANCH   7  12
ATOM     11  O   UNL     1     -37.876  24.394   4.009  0.00  0.00    -0.277 OA
ATOM     12  N   UNL     1     -37.604  22.799   2.364  0.00  0.00    -0.298 N 
ATOM     13  C   UNL     1     -37.198  23.506   3.490  0.00  0.00    +0.204 C 
ATOM     14  H   UNL     1     -37.011  22.102   2.002  0.00  0.00    +0.150 HD
BRANCH  13  15
ATOM     15  C   UNL     1     -35.819  23.080   4.038  0.00  0.00    +0.022 C 
BRANCH  15  16
ATOM     16  N   UNL     1     -35.681  21.636   3.796  0.00  0.00    +0.388 N 
ATOM     17  H   UNL     1     -36.606  21.222   3.681  0.00  0.00    -0.088 HD
ATOM     18  H   UNL     1     -35.210  21.203   4.589  0.00  0.00    -0.088 HD
ATOM     19  H   UNL     1     -35.132  21.485   2.950  0.00  0.00    -0.088 HD
ENDBRANCH  15  16
BRANCH  15  20
ATOM     20  C   UNL     1     -34.670  23.849   3.332  0.00  0.00    -0.012 C 
ATOM     21  C   UNL     1     -34.042  24.976   4.146  0.00  0.00    -0.002 C 
ENDBRANCH  15  20
BRANCH  15  22
ATOM     22  C   UNL     1     -35.730  23.330   5.567  0.00  0.00    -0.012 C 
ATOM     23  C   UNL     1     -35.384  22.099   6.401  0.00  0.00    -0.002 C 
ENDBRANCH  15  22
ENDBRANCH  13  15
ENDBRANCH   7  12
BRANCH   6  25
ATOM     24  OXT UNL     1     -41.213  19.150  -1.508  0.00  0.00    -0.248 OA
ATOM     25  C   UNL     1     -40.924  20.264  -1.097  0.00  0.00    +0.333 C 
BRANCH  25  26
ATOM     26  O   UNL     1     -41.770  21.324  -1.111  0.00  0.00    -0.479 OA
ATOM     27  H   UNL     1     -42.696  21.185  -1.107  0.00  0.00    +0.295 HD
ENDBRANCH  25  26
ENDBRANCH   6  25
TORSDOF 7
ENDMDL
MODEL 7
REMARK VINA RESULT:      -4.9      2.916      3.717
REMARK  Name = 192093
REMARK  7 active torsions:
REMARK  status: ('A' for Active; 'I' for Inactive)
REMARK    1  A    between atoms: CA_6  and  C_25
REMARK    2  A    between atoms: CA_7  and  N_12
REMARK    3  A    between atoms: C_13  and  C_15
REMARK    4  A    between atoms: C_15  and  N_16
REMARK    5  A    between atoms: C_15  and  C_20
REMARK    6  A    between atoms: C_15  and  C_22
REMARK    7  A    between atoms: C_25  and  O_26
REMARK                            x       y       z     vdW  Elec       q    Type
REMARK                         _______ _______ _______ _____ _____    ______ ____
ROOT
ATOM      1  S   UNL     1     -35.888  21.637  -0.316  0.00  0.00    -0.118 S 
ATOM      2  O   UNL     1     -39.487  21.413   2.214  0.00  0.00    -0.273 OA
ATOM      3  N   UNL     1     -38.439  21.421   0.100  0.00  0.00    -0.260 N 
ATOM      4  C   UNL     1     -37.493  22.505  -0.181  0.00  0.00    +0.151 C 
ATOM      5  C   UNL     1     -36.724  20.113  -0.985  0.00  0.00    +0.068 C 
ATOM      6  CA  UNL     1     -38.056  20.057  -0.206  0.00  0.00    +0.184 C 
ATOM      7  CA  UNL     1     -37.852  23.086   1.193  0.00  0.00    +0.178 C 
ATOM      8  C   UNL     1     -38.800  21.878   1.333  0.00  0.00    +0.247 C 
ATOM      9  C   UNL     1     -36.880  20.286  -2.502  0.00  0.00    +0.013 C 
ATOM     10  C   UNL     1     -35.851  18.893  -0.684  0.00  0.00    +0.013 C 
ENDROOT
BRANCH   7  12
ATOM     11  O   UNL     1     -37.971  24.402   3.730  0.00  0.00    -0.277 OA
ATOM     12  N   UNL     1     -36.787  23.131   2.211  0.00  0.00    -0.298 N 
ATOM     13  C   UNL     1     -36.941  23.801   3.419  0.00  0.00    +0.204 C 
ATOM     14  H   UNL     1     -35.936  22.671   2.028  0.00  0.00    +0.150 HD
BRANCH  13  15
ATOM     15  C   UNL     1     -35.708  23.724   4.344  0.00  0.00    +0.022 C 
BRANCH  15  16
ATOM     16  N   UNL     1     -34.539  24.120   3.545  0.00  0.00    +0.388 N 
ATOM     17  H   UNL     1     -34.138  24.975   3.931  0.00  0.00    -0.088 HD
ATOM     18  H   UNL     1     -34.826  24.283   2.581  0.00  0.00    -0.088 HD
ATOM     19  H   UNL     1     -33.842  23.376   3.572  0.00  0.00    -0.088 HD
ENDBRANCH  15  16
BRANCH  15  20
ATOM     20  C   UNL     1     -35.861  24.670   5.566  0.00  0.00    -0.012 C 
ATOM     21  C   UNL     1     -34.911  25.863   5.590  0.00  0.00    -0.002 C 
ENDBRANCH  15  20
BRANCH  15  22
ATOM     22  C   UNL     1     -35.485  22.274   4.851  0.00  0.00    -0.012 C 
ATOM     23  C   UNL     1     -35.387  22.131   6.367  0.00  0.00    -0.002 C 
ENDBRANCH  15  22
ENDBRANCH  13  15
ENDBRANCH   7  12
BRANCH   6  25
ATOM     24  OXT UNL     1     -40.077  20.046  -1.528  0.00  0.00    -0.248 OA
ATOM     25  C   UNL     1     -39.199  19.432  -0.940  0.00  0.00    +0.333 C 
BRANCH  25  26
ATOM     26  O   UNL     1     -39.135  18.080  -0.863  0.00  0.00    -0.479 OA
ATOM     27  H   UNL     1     -38.306  17.646  -0.913  0.00  0.00    +0.295 HD
ENDBRANCH  25  26
ENDBRANCH   6  25
TORSDOF 7
ENDMDL
MODEL 8
REMARK VINA RESULT:      -4.9      3.196      4.919
REMARK  Name = 192093
REMARK  7 active torsions:
REMARK  status: ('A' for Active; 'I' for Inactive)
REMARK    1  A    between atoms: CA_6  and  C_25
REMARK    2  A    between atoms: CA_7  and  N_12
REMARK    3  A    between atoms: C_13  and  C_15
REMARK    4  A    between atoms: C_15  and  N_16
REMARK    5  A    between atoms: C_15  and  C_20
REMARK    6  A    between atoms: C_15  and  C_22
REMARK    7  A    between atoms: C_25  and  O_26
REMARK                            x       y       z     vdW  Elec       q    Type
REMARK                         _______ _______ _______ _____ _____    ______ ____
ROOT
ATOM      1  S   UNL     1     -37.329  25.737   2.492  0.00  0.00    -0.118 S 
ATOM      2  O   UNL     1     -33.532  24.749   4.498  0.00  0.00    -0.273 OA
ATOM      3  N   UNL     1     -35.825  24.359   4.095  0.00  0.00    -0.260 N 
ATOM      4  C   UNL     1     -36.735  25.502   4.208  0.00  0.00    +0.151 C 
ATOM      5  C   UNL     1     -37.187  23.912   2.153  0.00  0.00    +0.068 C 
ATOM      6  CA  UNL     1     -35.926  23.491   2.938  0.00  0.00    +0.184 C 
ATOM      7  CA  UNL     1     -35.524  26.340   4.641  0.00  0.00    +0.178 C 
ATOM      8  C   UNL     1     -34.706  25.045   4.467  0.00  0.00    +0.247 C 
ATOM      9  C   UNL     1     -38.485  23.241   2.625  0.00  0.00    +0.013 C 
ATOM     10  C   UNL     1     -37.004  23.698   0.649  0.00  0.00    +0.013 C 
ENDROOT
BRANCH   7  12
ATOM     11  O   UNL     1     -33.220  28.005   4.958  0.00  0.00    -0.277 OA
ATOM     12  N   UNL     1     -35.103  27.436   3.751  0.00  0.00    -0.298 N 
ATOM     13  C   UNL     1     -33.962  28.192   3.991  0.00  0.00    +0.204 C 
ATOM     14  H   UNL     1     -35.649  27.641   2.958  0.00  0.00    +0.150 HD
BRANCH  13  15
ATOM     15  C   UNL     1     -33.698  29.289   2.938  0.00  0.00    +0.022 C 
BRANCH  15  16
ATOM     16  N   UNL     1     -32.867  28.690   1.883  0.00  0.00    +0.388 N 
ATOM     17  H   UNL     1     -33.462  28.171   1.237  0.00  0.00    -0.088 HD
ATOM     18  H   UNL     1     -32.188  28.058   2.304  0.00  0.00    -0.088 HD
ATOM     19  H   UNL     1     -32.378  29.428   1.376  0.00  0.00    -0.088 HD
ENDBRANCH  15  16
BRANCH  15  20
ATOM     20  C   UNL     1     -35.026  29.818   2.331  0.00  0.00    -0.012 C 
ATOM     21  C   UNL     1     -35.561  31.105   2.953  0.00  0.00    -0.002 C 
ENDBRANCH  15  20
BRANCH  15  22
ATOM     22  C   UNL     1     -32.917  30.478   3.559  0.00  0.00    -0.012 C 
ATOM     23  C   UNL     1     -31.704  30.940   2.757  0.00  0.00    -0.002 C 
ENDBRANCH  15  22
ENDBRANCH  13  15
ENDBRANCH   7  12
BRANCH   6  25
ATOM     24  OXT UNL     1     -35.711  21.093   2.759  0.00  0.00    -0.248 OA
ATOM     25  C   UNL     1     -35.927  22.083   3.442  0.00  0.00    +0.333 C 
BRANCH  25  26
ATOM     26  O   UNL     1     -36.203  22.049   4.768  0.00  0.00    -0.479 OA
ATOM     27  H   UNL     1     -35.505  22.030   5.392  0.00  0.00    +0.295 HD
ENDBRANCH  25  26
ENDBRANCH   6  25
TORSDOF 7
ENDMDL
MODEL 9
REMARK VINA RESULT:      -4.8      3.960      6.662
REMARK  Name = 192093
REMARK  7 active torsions:
REMARK  status: ('A' for Active; 'I' for Inactive)
REMARK    1  A    between atoms: CA_6  and  C_25
REMARK    2  A    between atoms: CA_7  and  N_12
REMARK    3  A    between atoms: C_13  and  C_15
REMARK    4  A    between atoms: C_15  and  N_16
REMARK    5  A    between atoms: C_15  and  C_20
REMARK    6  A    between atoms: C_15  and  C_22
REMARK    7  A    between atoms: C_25  and  O_26
REMARK                            x       y       z     vdW  Elec       q    Type
REMARK                         _______ _______ _______ _____ _____    ______ ____
ROOT
ATOM      1  S   UNL     1     -33.829  26.737   1.740  0.00  0.00    -0.118 S 
ATOM      2  O   UNL     1     -34.863  26.236   5.993  0.00  0.00    -0.273 OA
ATOM      3  N   UNL     1     -33.286  26.582   4.272  0.00  0.00    -0.260 N 
ATOM      4  C   UNL     1     -33.319  25.662   3.131  0.00  0.00    +0.151 C 
ATOM      5  C   UNL     1     -32.977  28.203   2.510  0.00  0.00    +0.068 C 
ATOM      6  CA  UNL     1     -33.212  28.008   4.024  0.00  0.00    +0.184 C 
ATOM      7  CA  UNL     1     -34.433  24.900   3.861  0.00  0.00    +0.178 C 
ATOM      8  C   UNL     1     -34.275  25.956   4.973  0.00  0.00    +0.247 C 
ATOM      9  C   UNL     1     -31.503  28.171   2.085  0.00  0.00    +0.013 C 
ATOM     10  C   UNL     1     -33.640  29.486   2.004  0.00  0.00    +0.013 C 
ENDROOT
BRANCH   7  12
ATOM     11  O   UNL     1     -36.629  23.210   4.569  0.00  0.00    -0.277 OA
ATOM     12  N   UNL     1     -35.768  24.885   3.236  0.00  0.00    -0.298 N 
ATOM     13  C   UNL     1     -36.774  24.021   3.653  0.00  0.00    +0.204 C 
ATOM     14  H   UNL     1     -35.953  25.508   2.497  0.00  0.00    +0.150 HD
BRANCH  13  15
ATOM     15  C   UNL     1     -38.095  24.168   2.869  0.00  0.00    +0.022 C 
BRANCH  15  16
ATOM     16  N   UNL     1     -39.074  24.784   3.778  0.00  0.00    +0.388 N 
ATOM     17  H   UNL     1     -38.969  25.798   3.752  0.00  0.00    -0.088 HD
ATOM     18  H   UNL     1     -38.915  24.448   4.727  0.00  0.00    -0.088 HD
ATOM     19  H   UNL     1     -40.018  24.532   3.482  0.00  0.00    -0.088 HD
ENDBRANCH  15  16
BRANCH  15  20
ATOM     20  C   UNL     1     -37.908  25.056   1.610  0.00  0.00    -0.012 C 
ATOM     21  C   UNL     1     -38.712  26.353   1.601  0.00  0.00    -0.002 C 
ENDBRANCH  15  20
BRANCH  15  22
ATOM     22  C   UNL     1     -38.639  22.781   2.434  0.00  0.00    -0.012 C 
ATOM     23  C   UNL     1     -39.853  22.826   1.511  0.00  0.00    -0.002 C 
ENDBRANCH  15  22
ENDBRANCH  13  15
ENDBRANCH   7  12
BRANCH   6  25
ATOM     24  OXT UNL     1     -31.172  27.929   5.313  0.00  0.00    -0.248 OA
ATOM     25  C   UNL     1     -32.142  28.556   4.912  0.00  0.00    +0.333 C 
BRANCH  25  26
ATOM     26  O   UNL     1     -32.392  29.852   5.221  0.00  0.00    -0.479 OA
ATOM     27  H   UNL     1     -31.831  30.528   4.895  0.00  0.00    +0.295 HD
ENDBRANCH  25  26
ENDBRANCH   6  25
TORSDOF 7
ENDMDL
