MODEL 1
REMARK VINA RESULT:      -6.9      0.000      0.000
REMARK  Name = 5281220
REMARK  5 active torsions:
REMARK  status: ('A' for Active; 'I' for Inactive)
REMARK    1  A    between atoms: C_7  and  O_22
REMARK    2  A    between atoms: C_8  and  C_12
REMARK    3  A    between atoms: C_11  and  O_24
REMARK    4  A    between atoms: C_15  and  O_18
REMARK    5  A    between atoms: C_17  and  O_20
REMARK                            x       y       z     vdW  Elec       q    Type
REMARK                         _______ _______ _______ _____ _____    ______ ____
ROOT
ATOM      1  O   UNL     1     -33.313  26.345   5.286  0.00  0.00    -0.450 OA
ATOM      2  O   UNL     1     -34.288  28.139   2.395  0.00  0.00    -0.283 OA
ATOM      3  C   UNL     1     -32.918  28.418   4.347  0.00  0.00    +0.110 C 
ATOM      4  C   UNL     1     -32.661  27.551   5.408  0.00  0.00    +0.155 C 
ATOM      5  C   UNL     1     -34.029  26.421   4.098  0.00  0.00    +0.184 C 
ATOM      6  C   UNL     1     -33.823  27.732   3.434  0.00  0.00    +0.236 C 
ATOM      7  C   UNL     1     -32.365  29.679   4.271  0.00  0.00    +0.143 C 
ATOM      8  C   UNL     1     -34.801  25.447   3.614  0.00  0.00    +0.041 C 
ATOM      9  C   UNL     1     -31.830  27.917   6.443  0.00  0.00    +0.074 C 
ATOM     10  C   UNL     1     -31.520  30.062   5.315  0.00  0.00    +0.073 C 
ATOM     11  C   UNL     1     -31.255  29.190   6.390  0.00  0.00    +0.140 C 
ENDROOT
BRANCH   8  12
ATOM     12  C   UNL     1     -35.029  24.133   4.244  0.00  0.00    +0.006 C 
ATOM     13  C   UNL     1     -35.238  23.024   3.441  0.00  0.00    +0.040 C 
ATOM     14  C   UNL     1     -35.030  24.035   5.626  0.00  0.00    +0.003 C 
ATOM     15  C   UNL     1     -35.453  21.781   4.037  0.00  0.00    +0.167 C 
ATOM     16  C   UNL     1     -35.245  22.793   6.221  0.00  0.00    +0.040 C 
ATOM     17  C   UNL     1     -35.457  21.666   5.427  0.00  0.00    +0.167 C 
BRANCH  15  18
ATOM     18  O   UNL     1     -35.660  20.688   3.252  0.00  0.00    -0.503 OA
ATOM     19  H   UNL     1     -36.514  20.514   2.907  0.00  0.00    +0.292 HD
ENDBRANCH  15  18
BRANCH  17  20
ATOM     20  O   UNL     1     -35.664  20.457   6.021  0.00  0.00    -0.503 OA
ATOM     21  H   UNL     1     -36.223  20.392   6.770  0.00  0.00    +0.292 HD
ENDBRANCH  17  20
ENDBRANCH   8  12
BRANCH   7  22
ATOM     22  O   UNL     1     -32.618  30.518   3.238  0.00  0.00    -0.505 OA
ATOM     23  H   UNL     1     -32.142  30.429   2.435  0.00  0.00    +0.292 HD
ENDBRANCH   7  22
BRANCH  11  24
ATOM     24  O   UNL     1     -30.425  29.597   7.392  0.00  0.00    -0.505 OA
ATOM     25  H   UNL     1     -29.738  30.207   7.214  0.00  0.00    +0.292 HD
ENDBRANCH  11  24
TORSDOF 5
ENDMDL
MODEL 2
REMARK VINA RESULT:      -6.6      3.594      5.813
REMARK  Name = 5281220
REMARK  5 active torsions:
REMARK  status: ('A' for Active; 'I' for Inactive)
REMARK    1  A    between atoms: C_7  and  O_22
REMARK    2  A    between atoms: C_8  and  C_12
REMARK    3  A    between atoms: C_11  and  O_24
REMARK    4  A    between atoms: C_15  and  O_18
REMARK    5  A    between atoms: C_17  and  O_20
REMARK                            x       y       z     vdW  Elec       q    Type
REMARK                         _______ _______ _______ _____ _____    ______ ____
ROOT
ATOM      1  O   UNL     1     -34.366  22.961   2.897  0.00  0.00    -0.450 OA
ATOM      2  O   UNL     1     -37.856  22.746   2.348  0.00  0.00    -0.283 OA
ATOM      3  C   UNL     1     -36.279  24.033   3.622  0.00  0.00    +0.110 C 
ATOM      4  C   UNL     1     -34.890  23.951   3.697  0.00  0.00    +0.155 C 
ATOM      5  C   UNL     1     -35.454  22.366   2.271  0.00  0.00    +0.184 C 
ATOM      6  C   UNL     1     -36.725  23.006   2.689  0.00  0.00    +0.236 C 
ATOM      7  C   UNL     1     -37.007  24.958   4.342  0.00  0.00    +0.143 C 
ATOM      8  C   UNL     1     -35.371  21.353   1.407  0.00  0.00    +0.041 C 
ATOM      9  C   UNL     1     -34.168  24.802   4.505  0.00  0.00    +0.074 C 
ATOM     10  C   UNL     1     -36.286  25.826   5.165  0.00  0.00    +0.073 C 
ATOM     11  C   UNL     1     -34.881  25.750   5.245  0.00  0.00    +0.140 C 
ENDROOT
BRANCH   8  12
ATOM     12  C   UNL     1     -34.127  20.692   0.968  0.00  0.00    +0.006 C 
ATOM     13  C   UNL     1     -33.804  19.448   1.482  0.00  0.00    +0.040 C 
ATOM     14  C   UNL     1     -33.309  21.330   0.050  0.00  0.00    +0.003 C 
ATOM     15  C   UNL     1     -32.628  18.822   1.066  0.00  0.00    +0.167 C 
ATOM     16  C   UNL     1     -32.134  20.705  -0.365  0.00  0.00    +0.040 C 
ATOM     17  C   UNL     1     -31.793  19.451   0.143  0.00  0.00    +0.167 C 
BRANCH  15  18
ATOM     18  O   UNL     1     -32.306  17.600   1.570  0.00  0.00    -0.503 OA
ATOM     19  H   UNL     1     -32.304  17.460   2.497  0.00  0.00    +0.292 HD
ENDBRANCH  15  18
BRANCH  17  20
ATOM     20  O   UNL     1     -30.643  18.850  -0.272  0.00  0.00    -0.503 OA
ATOM     21  H   UNL     1     -29.874  19.363  -0.424  0.00  0.00    +0.292 HD
ENDBRANCH  17  20
ENDBRANCH   8  12
BRANCH   7  22
ATOM     22  O   UNL     1     -38.357  25.033   4.265  0.00  0.00    -0.505 OA
ATOM     23  H   UNL     1     -38.865  24.251   4.172  0.00  0.00    +0.292 HD
ENDBRANCH   7  22
BRANCH  11  24
ATOM     24  O   UNL     1     -34.209  26.613   6.058  0.00  0.00    -0.505 OA
ATOM     25  H   UNL     1     -34.679  27.137   6.676  0.00  0.00    +0.292 HD
ENDBRANCH  11  24
TORSDOF 5
ENDMDL
MODEL 3
REMARK VINA RESULT:      -6.5      1.476      2.856
REMARK  Name = 5281220
REMARK  5 active torsions:
REMARK  status: ('A' for Active; 'I' for Inactive)
REMARK    1  A    between atoms: C_7  and  O_22
REMARK    2  A    between atoms: C_8  and  C_12
REMARK    3  A    between atoms: C_11  and  O_24
REMARK    4  A    between atoms: C_15  and  O_18
REMARK    5  A    between atoms: C_17  and  O_20
REMARK                            x       y       z     vdW  Elec       q    Type
REMARK                         _______ _______ _______ _____ _____    ______ ____
ROOT
ATOM      1  O   UNL     1     -33.496  26.661   4.244  0.00  0.00    -0.450 OA
ATOM      2  O   UNL     1     -32.838  27.138   7.689  0.00  0.00    -0.283 OA
ATOM      3  C   UNL     1     -32.190  28.039   5.559  0.00  0.00    +0.110 C 
ATOM      4  C   UNL     1     -32.584  27.692   4.268  0.00  0.00    +0.155 C 
ATOM      5  C   UNL     1     -33.710  26.315   5.572  0.00  0.00    +0.184 C 
ATOM      6  C   UNL     1     -32.900  27.162   6.481  0.00  0.00    +0.236 C 
ATOM      7  C   UNL     1     -31.284  29.048   5.811  0.00  0.00    +0.143 C 
ATOM      8  C   UNL     1     -34.534  25.348   5.981  0.00  0.00    +0.041 C 
ATOM      9  C   UNL     1     -32.081  28.349   3.167  0.00  0.00    +0.074 C 
ATOM     10  C   UNL     1     -30.766  29.722   4.702  0.00  0.00    +0.073 C 
ATOM     11  C   UNL     1     -31.161  29.377   3.394  0.00  0.00    +0.140 C 
ENDROOT
BRANCH   8  12
ATOM     12  C   UNL     1     -35.353  24.486   5.108  0.00  0.00    +0.006 C 
ATOM     13  C   UNL     1     -35.065  23.134   5.029  0.00  0.00    +0.040 C 
ATOM     14  C   UNL     1     -36.395  25.047   4.387  0.00  0.00    +0.003 C 
ATOM     15  C   UNL     1     -35.841  22.318   4.204  0.00  0.00    +0.167 C 
ATOM     16  C   UNL     1     -37.170  24.232   3.563  0.00  0.00    +0.040 C 
ATOM     17  C   UNL     1     -36.893  22.868   3.471  0.00  0.00    +0.167 C 
BRANCH  15  18
ATOM     18  O   UNL     1     -35.560  20.989   4.122  0.00  0.00    -0.503 OA
ATOM     19  H   UNL     1     -35.666  20.440   4.873  0.00  0.00    +0.292 HD
ENDBRANCH  15  18
BRANCH  17  20
ATOM     20  O   UNL     1     -37.658  22.081   2.664  0.00  0.00    -0.503 OA
ATOM     21  H   UNL     1     -37.667  22.227   1.739  0.00  0.00    +0.292 HD
ENDBRANCH  17  20
ENDBRANCH   8  12
BRANCH   7  22
ATOM     22  O   UNL     1     -30.904  29.382   7.067  0.00  0.00    -0.505 OA
ATOM     23  H   UNL     1     -30.076  29.094   7.398  0.00  0.00    +0.292 HD
ENDBRANCH   7  22
BRANCH  11  24
ATOM     24  O   UNL     1     -30.636  30.056   2.335  0.00  0.00    -0.505 OA
ATOM     25  H   UNL     1     -30.668  30.992   2.316  0.00  0.00    +0.292 HD
ENDBRANCH  11  24
TORSDOF 5
ENDMDL
MODEL 4
REMARK VINA RESULT:      -6.5      3.014      8.311
REMARK  Name = 5281220
REMARK  5 active torsions:
REMARK  status: ('A' for Active; 'I' for Inactive)
REMARK    1  A    between atoms: C_7  and  O_22
REMARK    2  A    between atoms: C_8  and  C_12
REMARK    3  A    between atoms: C_11  and  O_24
REMARK    4  A    between atoms: C_15  and  O_18
REMARK    5  A    between atoms: C_17  and  O_20
REMARK                            x       y       z     vdW  Elec       q    Type
REMARK                         _______ _______ _______ _____ _____    ______ ____
ROOT
ATOM      1  O   UNL     1     -35.310  21.738   2.432  0.00  0.00    -0.450 OA
ATOM      2  O   UNL     1     -38.718  21.252   1.608  0.00  0.00    -0.283 OA
ATOM      3  C   UNL     1     -36.575  20.246   1.205  0.00  0.00    +0.110 C 
ATOM      4  C   UNL     1     -35.304  20.612   1.641  0.00  0.00    +0.155 C 
ATOM      5  C   UNL     1     -36.640  22.130   2.520  0.00  0.00    +0.184 C 
ATOM      6  C   UNL     1     -37.518  21.213   1.752  0.00  0.00    +0.236 C 
ATOM      7  C   UNL     1     -36.795  19.146   0.402  0.00  0.00    +0.143 C 
ATOM      8  C   UNL     1     -37.075  23.190   3.203  0.00  0.00    +0.041 C 
ATOM      9  C   UNL     1     -34.190  19.882   1.287  0.00  0.00    +0.074 C 
ATOM     10  C   UNL     1     -35.673  18.398   0.035  0.00  0.00    +0.073 C 
ATOM     11  C   UNL     1     -34.384  18.762   0.474  0.00  0.00    +0.140 C 
ENDROOT
BRANCH   8  12
ATOM     12  C   UNL     1     -36.235  24.123   3.976  0.00  0.00    +0.006 C 
ATOM     13  C   UNL     1     -36.140  25.444   3.572  0.00  0.00    +0.040 C 
ATOM     14  C   UNL     1     -35.558  23.658   5.093  0.00  0.00    +0.003 C 
ATOM     15  C   UNL     1     -35.346  26.327   4.304  0.00  0.00    +0.167 C 
ATOM     16  C   UNL     1     -34.764  24.541   5.824  0.00  0.00    +0.040 C 
ATOM     17  C   UNL     1     -34.657  25.875   5.430  0.00  0.00    +0.167 C 
BRANCH  15  18
ATOM     18  O   UNL     1     -35.248  27.626   3.909  0.00  0.00    -0.503 OA
ATOM     19  H   UNL     1     -35.545  27.880   3.058  0.00  0.00    +0.292 HD
ENDBRANCH  15  18
BRANCH  17  20
ATOM     20  O   UNL     1     -33.880  26.727   6.154  0.00  0.00    -0.503 OA
ATOM     21  H   UNL     1     -32.997  26.494   6.363  0.00  0.00    +0.292 HD
ENDBRANCH  17  20
ENDBRANCH   8  12
BRANCH   7  22
ATOM     22  O   UNL     1     -38.033  18.794  -0.020  0.00  0.00    -0.505 OA
ATOM     23  H   UNL     1     -38.439  18.019   0.316  0.00  0.00    +0.292 HD
ENDBRANCH   7  22
BRANCH  11  24
ATOM     24  O   UNL     1     -33.312  18.009   0.098  0.00  0.00    -0.505 OA
ATOM     25  H   UNL     1     -33.283  17.630  -0.758  0.00  0.00    +0.292 HD
ENDBRANCH  11  24
TORSDOF 5
ENDMDL
MODEL 5
REMARK VINA RESULT:      -6.4      4.574      7.038
REMARK  Name = 5281220
REMARK  5 active torsions:
REMARK  status: ('A' for Active; 'I' for Inactive)
REMARK    1  A    between atoms: C_7  and  O_22
REMARK    2  A    between atoms: C_8  and  C_12
REMARK    3  A    between atoms: C_11  and  O_24
REMARK    4  A    between atoms: C_15  and  O_18
REMARK    5  A    between atoms: C_17  and  O_20
REMARK                            x       y       z     vdW  Elec       q    Type
REMARK                         _______ _______ _______ _____ _____    ______ ____
ROOT
ATOM      1  O   UNL     1     -38.777  24.447   2.601  0.00  0.00    -0.450 OA
ATOM      2  O   UNL     1     -37.561  27.612   1.584  0.00  0.00    -0.283 OA
ATOM      3  C   UNL     1     -39.544  26.269   1.408  0.00  0.00    +0.110 C 
ATOM      4  C   UNL     1     -39.827  24.997   1.901  0.00  0.00    +0.155 C 
ATOM      5  C   UNL     1     -37.762  25.395   2.567  0.00  0.00    +0.184 C 
ATOM      6  C   UNL     1     -38.184  26.601   1.812  0.00  0.00    +0.236 C 
ATOM      7  C   UNL     1     -40.458  27.000   0.677  0.00  0.00    +0.143 C 
ATOM      8  C   UNL     1     -36.564  25.245   3.135  0.00  0.00    +0.041 C 
ATOM      9  C   UNL     1     -41.049  24.401   1.681  0.00  0.00    +0.074 C 
ATOM     10  C   UNL     1     -41.701  26.407   0.447  0.00  0.00    +0.073 C 
ATOM     11  C   UNL     1     -41.995  25.121   0.945  0.00  0.00    +0.140 C 
ENDROOT
BRANCH   8  12
ATOM     12  C   UNL     1     -36.110  24.063   3.891  0.00  0.00    +0.006 C 
ATOM     13  C   UNL     1     -36.054  22.834   3.257  0.00  0.00    +0.040 C 
ATOM     14  C   UNL     1     -35.746  24.208   5.220  0.00  0.00    +0.003 C 
ATOM     15  C   UNL     1     -35.622  21.716   3.971  0.00  0.00    +0.167 C 
ATOM     16  C   UNL     1     -35.316  23.091   5.935  0.00  0.00    +0.040 C 
ATOM     17  C   UNL     1     -35.254  21.845   5.311  0.00  0.00    +0.167 C 
BRANCH  15  18
ATOM     18  O   UNL     1     -35.568  20.505   3.352  0.00  0.00    -0.503 OA
ATOM     19  H   UNL     1     -36.024  20.370   2.545  0.00  0.00    +0.292 HD
ENDBRANCH  15  18
BRANCH  17  20
ATOM     20  O   UNL     1     -34.830  20.761   6.019  0.00  0.00    -0.503 OA
ATOM     21  H   UNL     1     -33.922  20.528   6.021  0.00  0.00    +0.292 HD
ENDBRANCH  17  20
ENDBRANCH   8  12
BRANCH   7  22
ATOM     22  O   UNL     1     -40.179  28.237   0.200  0.00  0.00    -0.505 OA
ATOM     23  H   UNL     1     -40.863  28.872   0.116  0.00  0.00    +0.292 HD
ENDBRANCH   7  22
BRANCH  11  24
ATOM     24  O   UNL     1     -43.219  24.573   0.702  0.00  0.00    -0.505 OA
ATOM     25  H   UNL     1     -43.905  25.099   0.344  0.00  0.00    +0.292 HD
ENDBRANCH  11  24
TORSDOF 5
ENDMDL
MODEL 6
REMARK VINA RESULT:      -6.4      2.336      7.587
REMARK  Name = 5281220
REMARK  5 active torsions:
REMARK  status: ('A' for Active; 'I' for Inactive)
REMARK    1  A    between atoms: C_7  and  O_22
REMARK    2  A    between atoms: C_8  and  C_12
REMARK    3  A    between atoms: C_11  and  O_24
REMARK    4  A    between atoms: C_15  and  O_18
REMARK    5  A    between atoms: C_17  and  O_20
REMARK                            x       y       z     vdW  Elec       q    Type
REMARK                         _______ _______ _______ _____ _____    ______ ____
ROOT
ATOM      1  O   UNL     1     -35.046  23.618   3.192  0.00  0.00    -0.450 OA
ATOM      2  O   UNL     1     -38.555  24.003   3.439  0.00  0.00    -0.283 OA
ATOM      3  C   UNL     1     -36.938  22.394   2.689  0.00  0.00    +0.110 C 
ATOM      4  C   UNL     1     -35.546  22.443   2.680  0.00  0.00    +0.155 C 
ATOM      5  C   UNL     1     -36.153  24.375   3.552  0.00  0.00    +0.184 C 
ATOM      6  C   UNL     1     -37.414  23.649   3.257  0.00  0.00    +0.236 C 
ATOM      7  C   UNL     1     -37.645  21.305   2.221  0.00  0.00    +0.143 C 
ATOM      8  C   UNL     1     -36.097  25.593   4.092  0.00  0.00    +0.041 C 
ATOM      9  C   UNL     1     -34.798  21.391   2.197  0.00  0.00    +0.074 C 
ATOM     10  C   UNL     1     -36.899  20.233   1.729  0.00  0.00    +0.073 C 
ATOM     11  C   UNL     1     -35.490  20.274   1.717  0.00  0.00    +0.140 C 
ENDROOT
BRANCH   8  12
ATOM     12  C   UNL     1     -34.866  26.345   4.398  0.00  0.00    +0.006 C 
ATOM     13  C   UNL     1     -34.278  26.203   5.643  0.00  0.00    +0.040 C 
ATOM     14  C   UNL     1     -34.322  27.178   3.433  0.00  0.00    +0.003 C 
ATOM     15  C   UNL     1     -33.112  26.914   5.933  0.00  0.00    +0.167 C 
ATOM     16  C   UNL     1     -33.158  27.888   3.723  0.00  0.00    +0.040 C 
ATOM     17  C   UNL     1     -32.553  27.756   4.972  0.00  0.00    +0.167 C 
BRANCH  15  18
ATOM     18  O   UNL     1     -32.532  26.779   7.157  0.00  0.00    -0.503 OA
ATOM     19  H   UNL     1     -31.679  26.399   7.232  0.00  0.00    +0.292 HD
ENDBRANCH  15  18
BRANCH  17  20
ATOM     20  O   UNL     1     -31.415  28.454   5.243  0.00  0.00    -0.503 OA
ATOM     21  H   UNL     1     -30.650  28.005   5.545  0.00  0.00    +0.292 HD
ENDBRANCH  17  20
ENDBRANCH   8  12
BRANCH   7  22
ATOM     22  O   UNL     1     -38.999  21.263   2.233  0.00  0.00    -0.505 OA
ATOM     23  H   UNL     1     -39.475  21.291   1.427  0.00  0.00    +0.292 HD
ENDBRANCH   7  22
BRANCH  11  24
ATOM     24  O   UNL     1     -34.792  19.209   1.230  0.00  0.00    -0.505 OA
ATOM     25  H   UNL     1     -34.240  18.711   1.799  0.00  0.00    +0.292 HD
ENDBRANCH  11  24
TORSDOF 5
ENDMDL
MODEL 7
REMARK VINA RESULT:      -6.4      2.264      3.274
REMARK  Name = 5281220
REMARK  5 active torsions:
REMARK  status: ('A' for Active; 'I' for Inactive)
REMARK    1  A    between atoms: C_7  and  O_22
REMARK    2  A    between atoms: C_8  and  C_12
REMARK    3  A    between atoms: C_11  and  O_24
REMARK    4  A    between atoms: C_15  and  O_18
REMARK    5  A    between atoms: C_17  and  O_20
REMARK                            x       y       z     vdW  Elec       q    Type
REMARK                         _______ _______ _______ _____ _____    ______ ____
ROOT
ATOM      1  O   UNL     1     -32.647  26.974   3.857  0.00  0.00    -0.450 OA
ATOM      2  O   UNL     1     -32.167  28.659   6.933  0.00  0.00    -0.283 OA
ATOM      3  C   UNL     1     -31.294  28.647   4.696  0.00  0.00    +0.110 C 
ATOM      4  C   UNL     1     -31.637  27.870   3.591  0.00  0.00    +0.155 C 
ATOM      5  C   UNL     1     -32.982  27.167   5.192  0.00  0.00    +0.184 C 
ATOM      6  C   UNL     1     -32.149  28.233   5.801  0.00  0.00    +0.236 C 
ATOM      7  C   UNL     1     -30.306  29.608   4.648  0.00  0.00    +0.143 C 
ATOM      8  C   UNL     1     -33.926  26.486   5.844  0.00  0.00    +0.041 C 
ATOM      9  C   UNL     1     -30.999  28.029   2.381  0.00  0.00    +0.074 C 
ATOM     10  C   UNL     1     -29.650  29.779   3.426  0.00  0.00    +0.073 C 
ATOM     11  C   UNL     1     -29.994  28.998   2.304  0.00  0.00    +0.140 C 
ENDROOT
BRANCH   8  12
ATOM     12  C   UNL     1     -34.772  25.422   5.273  0.00  0.00    +0.006 C 
ATOM     13  C   UNL     1     -36.099  25.692   4.985  0.00  0.00    +0.040 C 
ATOM     14  C   UNL     1     -34.220  24.173   5.034  0.00  0.00    +0.003 C 
ATOM     15  C   UNL     1     -36.899  24.686   4.444  0.00  0.00    +0.167 C 
ATOM     16  C   UNL     1     -35.021  23.167   4.494  0.00  0.00    +0.040 C 
ATOM     17  C   UNL     1     -36.360  23.423   4.199  0.00  0.00    +0.167 C 
BRANCH  15  18
ATOM     18  O   UNL     1     -38.205  24.946   4.162  0.00  0.00    -0.503 OA
ATOM     19  H   UNL     1     -38.485  25.030   3.272  0.00  0.00    +0.292 HD
ENDBRANCH  15  18
BRANCH  17  20
ATOM     20  O   UNL     1     -37.130  22.432   3.670  0.00  0.00    -0.503 OA
ATOM     21  H   UNL     1     -36.928  21.535   3.848  0.00  0.00    +0.292 HD
ENDBRANCH  17  20
ENDBRANCH   8  12
BRANCH   7  22
ATOM     22  O   UNL     1     -29.976  30.361   5.725  0.00  0.00    -0.505 OA
ATOM     23  H   UNL     1     -29.121  30.739   5.787  0.00  0.00    +0.292 HD
ENDBRANCH   7  22
BRANCH  11  24
ATOM     24  O   UNL     1     -29.334  29.191   1.127  0.00  0.00    -0.505 OA
ATOM     25  H   UNL     1     -28.429  29.432   1.131  0.00  0.00    +0.292 HD
ENDBRANCH  11  24
TORSDOF 5
ENDMDL
MODEL 8
REMARK VINA RESULT:      -6.3      1.989      6.886
REMARK  Name = 5281220
REMARK  5 active torsions:
REMARK  status: ('A' for Active; 'I' for Inactive)
REMARK    1  A    between atoms: C_7  and  O_22
REMARK    2  A    between atoms: C_8  and  C_12
REMARK    3  A    between atoms: C_11  and  O_24
REMARK    4  A    between atoms: C_15  and  O_18
REMARK    5  A    between atoms: C_17  and  O_20
REMARK                            x       y       z     vdW  Elec       q    Type
REMARK                         _______ _______ _______ _____ _____    ______ ____
ROOT
ATOM      1  O   UNL     1     -32.952  26.455   5.076  0.00  0.00    -0.450 OA
ATOM      2  O   UNL     1     -34.936  28.570   3.046  0.00  0.00    -0.283 OA
ATOM      3  C   UNL     1     -35.079  26.456   4.176  0.00  0.00    +0.110 C 
ATOM      4  C   UNL     1     -34.143  25.777   4.954  0.00  0.00    +0.155 C 
ATOM      5  C   UNL     1     -33.109  27.628   4.348  0.00  0.00    +0.184 C 
ATOM      6  C   UNL     1     -34.459  27.700   3.738  0.00  0.00    +0.236 C 
ATOM      7  C   UNL     1     -36.340  25.954   3.927  0.00  0.00    +0.143 C 
ATOM      8  C   UNL     1     -32.173  28.569   4.214  0.00  0.00    +0.041 C 
ATOM      9  C   UNL     1     -34.437  24.555   5.519  0.00  0.00    +0.074 C 
ATOM     10  C   UNL     1     -36.649  24.716   4.494  0.00  0.00    +0.073 C 
ATOM     11  C   UNL     1     -35.708  24.024   5.283  0.00  0.00    +0.140 C 
ENDROOT
BRANCH   8  12
ATOM     12  C   UNL     1     -30.822  28.532   4.805  0.00  0.00    +0.006 C 
ATOM     13  C   UNL     1     -30.648  28.921   6.122  0.00  0.00    +0.040 C 
ATOM     14  C   UNL     1     -29.754  28.109   4.029  0.00  0.00    +0.003 C 
ATOM     15  C   UNL     1     -29.371  28.885   6.682  0.00  0.00    +0.167 C 
ATOM     16  C   UNL     1     -28.477  28.074   4.588  0.00  0.00    +0.040 C 
ATOM     17  C   UNL     1     -28.285  28.462   5.914  0.00  0.00    +0.167 C 
BRANCH  15  18
ATOM     18  O   UNL     1     -29.195  29.269   7.976  0.00  0.00    -0.503 OA
ATOM     19  H   UNL     1     -29.939  29.449   8.517  0.00  0.00    +0.292 HD
ENDBRANCH  15  18
BRANCH  17  20
ATOM     20  O   UNL     1     -27.033  28.422   6.449  0.00  0.00    -0.503 OA
ATOM     21  H   UNL     1     -26.921  28.375   7.378  0.00  0.00    +0.292 HD
ENDBRANCH  17  20
ENDBRANCH   8  12
BRANCH   7  22
ATOM     22  O   UNL     1     -37.246  26.619   3.170  0.00  0.00    -0.505 OA
ATOM     23  H   UNL     1     -37.294  26.457   2.249  0.00  0.00    +0.292 HD
ENDBRANCH   7  22
BRANCH  11  24
ATOM     24  O   UNL     1     -36.044  22.818   5.822  0.00  0.00    -0.505 OA
ATOM     25  H   UNL     1     -36.391  22.773   6.690  0.00  0.00    +0.292 HD
ENDBRANCH  11  24
TORSDOF 5
ENDMDL
MODEL 9
REMARK VINA RESULT:      -6.2      4.264      8.788
REMARK  Name = 5281220
REMARK  5 active torsions:
REMARK  status: ('A' for Active; 'I' for Inactive)
REMARK    1  A    between atoms: C_7  and  O_22
REMARK    2  A    between atoms: C_8  and  C_12
REMARK    3  A    between atoms: C_11  and  O_24
REMARK    4  A    between atoms: C_15  and  O_18
REMARK    5  A    between atoms: C_17  and  O_20
REMARK                            x       y       z     vdW  Elec       q    Type
REMARK                         _______ _______ _______ _____ _____    ______ ____
ROOT
ATOM      1  O   UNL     1     -34.999  20.572   2.105  0.00  0.00    -0.450 OA
ATOM      2  O   UNL     1     -37.716  19.604   0.054  0.00  0.00    -0.283 OA
ATOM      3  C   UNL     1     -35.462  18.934   0.544  0.00  0.00    +0.110 C 
ATOM      4  C   UNL     1     -34.525  19.476   1.420  0.00  0.00    +0.155 C 
ATOM      5  C   UNL     1     -36.301  20.761   1.659  0.00  0.00    +0.184 C 
ATOM      6  C   UNL     1     -36.672  19.740   0.649  0.00  0.00    +0.236 C 
ATOM      7  C   UNL     1     -35.194  17.831  -0.240  0.00  0.00    +0.143 C 
ATOM      8  C   UNL     1     -37.114  21.731   2.082  0.00  0.00    +0.041 C 
ATOM      9  C   UNL     1     -33.268  18.927   1.550  0.00  0.00    +0.074 C 
ATOM     10  C   UNL     1     -33.923  17.266  -0.119  0.00  0.00    +0.073 C 
ATOM     11  C   UNL     1     -32.969  17.807   0.768  0.00  0.00    +0.140 C 
ENDROOT
BRANCH   8  12
ATOM     12  C   UNL     1     -36.781  22.762   3.083  0.00  0.00    +0.006 C 
ATOM     13  C   UNL     1     -37.392  24.002   3.006  0.00  0.00    +0.040 C 
ATOM     14  C   UNL     1     -35.865  22.467   4.079  0.00  0.00    +0.003 C 
ATOM     15  C   UNL     1     -37.078  24.977   3.953  0.00  0.00    +0.167 C 
ATOM     16  C   UNL     1     -35.550  23.442   5.026  0.00  0.00    +0.040 C 
ATOM     17  C   UNL     1     -36.157  24.696   4.963  0.00  0.00    +0.167 C 
BRANCH  15  18
ATOM     18  O   UNL     1     -37.674  26.198   3.881  0.00  0.00    -0.503 OA
ATOM     19  H   UNL     1     -37.188  26.940   3.579  0.00  0.00    +0.292 HD
ENDBRANCH  15  18
BRANCH  17  20
ATOM     20  O   UNL     1     -35.843  25.640   5.895  0.00  0.00    -0.503 OA
ATOM     21  H   UNL     1     -34.990  25.650   6.283  0.00  0.00    +0.292 HD
ENDBRANCH  17  20
ENDBRANCH   8  12
BRANCH   7  22
ATOM     22  O   UNL     1     -36.109  17.309  -1.091  0.00  0.00    -0.505 OA
ATOM     23  H   UNL     1     -35.848  16.671  -1.726  0.00  0.00    +0.292 HD
ENDBRANCH   7  22
BRANCH  11  24
ATOM     24  O   UNL     1     -31.738  17.229   0.861  0.00  0.00    -0.505 OA
ATOM     25  H   UNL     1     -31.645  16.388   1.261  0.00  0.00    +0.292 HD
ENDBRANCH  11  24
TORSDOF 5
ENDMDL
