MODEL 1
REMARK VINA RESULT:      -6.3      0.000      0.000
REMARK  Name = 5281614
REMARK  5 active torsions:
REMARK  status: ('A' for Active; 'I' for Inactive)
REMARK    1  A    between atoms: C_3  and  C_12
REMARK    2  A    between atoms: C_6  and  O_22
REMARK    3  A    between atoms: C_10  and  O_24
REMARK    4  A    between atoms: C_15  and  O_18
REMARK    5  A    between atoms: C_17  and  O_20
REMARK                            x       y       z     vdW  Elec       q    Type
REMARK                         _______ _______ _______ _____ _____    ______ ____
ROOT
ATOM      1  O   UNL     1     -35.465  23.158   2.746  0.00  0.00    -0.450 OA
ATOM      2  O   UNL     1     -35.225  22.531   6.765  0.00  0.00    -0.283 OA
ATOM      3  C   UNL     1     -35.431  21.879   3.277  0.00  0.00    +0.182 A 
ATOM      4  C   UNL     1     -35.351  24.078   4.989  0.00  0.00    +0.077 A 
ATOM      5  C   UNL     1     -35.430  24.225   3.606  0.00  0.00    +0.152 A 
ATOM      6  C   UNL     1     -35.345  21.600   4.592  0.00  0.00    +0.208 A 
ATOM      7  C   UNL     1     -35.301  22.723   5.559  0.00  0.00    +0.235 A 
ATOM      8  C   UNL     1     -35.319  25.203   5.818  0.00  0.00    +0.009 C 
ATOM      9  C   UNL     1     -35.477  25.500   3.041  0.00  0.00    +0.074 C 
ATOM     10  C   UNL     1     -35.445  26.626   3.865  0.00  0.00    +0.137 C 
ATOM     11  C   UNL     1     -35.366  26.476   5.251  0.00  0.00    +0.037 C 
ENDROOT
BRANCH   3  12
ATOM     12  C   UNL     1     -35.472  20.827   2.246  0.00  0.00    +0.041 C 
ATOM     13  C   UNL     1     -36.691  20.449   1.684  0.00  0.00    +0.043 C 
ATOM     14  C   UNL     1     -34.292  20.209   1.831  0.00  0.00    +0.006 C 
ATOM     15  C   UNL     1     -36.731  19.453   0.707  0.00  0.00    +0.168 C 
ATOM     16  C   UNL     1     -34.331  19.214   0.855  0.00  0.00    +0.040 C 
ATOM     17  C   UNL     1     -35.551  18.835   0.293  0.00  0.00    +0.167 C 
BRANCH  15  18
ATOM     18  O   UNL     1     -37.927  19.090   0.166  0.00  0.00    -0.503 OA
ATOM     19  H   UNL     1     -37.960  18.725  -0.696  0.00  0.00    +0.292 HD
ENDBRANCH  15  18
BRANCH  17  20
ATOM     20  O   UNL     1     -35.576  17.862  -0.660  0.00  0.00    -0.503 OA
ATOM     21  H   UNL     1     -35.181  17.030  -0.490  0.00  0.00    +0.292 HD
ENDBRANCH  17  20
ENDBRANCH   3  12
BRANCH   6  22
ATOM     22  O   UNL     1     -35.280  20.315   5.085  0.00  0.00    -0.501 OA
ATOM     23  H   UNL     1     -36.044  19.913   5.448  0.00  0.00    +0.292 HD
ENDBRANCH   6  22
BRANCH  10  24
ATOM     24  O   UNL     1     -35.490  27.871   3.317  0.00  0.00    -0.505 OA
ATOM     25  H   UNL     1     -34.737  28.217   2.880  0.00  0.00    +0.292 HD
ENDBRANCH  10  24
TORSDOF 5
ENDMDL
MODEL 2
REMARK VINA RESULT:      -6.2      2.353      3.080
REMARK  Name = 5281614
REMARK  5 active torsions:
REMARK  status: ('A' for Active; 'I' for Inactive)
REMARK    1  A    between atoms: C_3  and  C_12
REMARK    2  A    between atoms: C_6  and  O_22
REMARK    3  A    between atoms: C_10  and  O_24
REMARK    4  A    between atoms: C_15  and  O_18
REMARK    5  A    between atoms: C_17  and  O_20
REMARK                            x       y       z     vdW  Elec       q    Type
REMARK                         _______ _______ _______ _____ _____    ______ ____
ROOT
ATOM      1  O   UNL     1     -37.175  23.385   2.321  0.00  0.00    -0.450 OA
ATOM      2  O   UNL     1     -35.063  20.741   4.591  0.00  0.00    -0.283 OA
ATOM      3  C   UNL     1     -37.209  22.024   2.064  0.00  0.00    +0.182 A 
ATOM      4  C   UNL     1     -35.679  22.982   4.189  0.00  0.00    +0.077 A 
ATOM      5  C   UNL     1     -36.421  23.834   3.374  0.00  0.00    +0.152 A 
ATOM      6  C   UNL     1     -36.532  21.097   2.768  0.00  0.00    +0.208 A 
ATOM      7  C   UNL     1     -35.699  21.537   3.913  0.00  0.00    +0.235 A 
ATOM      8  C   UNL     1     -34.928  23.497   5.249  0.00  0.00    +0.009 C 
ATOM      9  C   UNL     1     -36.417  25.209   3.613  0.00  0.00    +0.074 C 
ATOM     10  C   UNL     1     -35.668  25.726   4.671  0.00  0.00    +0.137 C 
ATOM     11  C   UNL     1     -34.925  24.871   5.486  0.00  0.00    +0.037 C 
ENDROOT
BRANCH   3  12
ATOM     12  C   UNL     1     -38.053  21.678   0.908  0.00  0.00    +0.041 C 
ATOM     13  C   UNL     1     -39.403  21.377   1.093  0.00  0.00    +0.043 C 
ATOM     14  C   UNL     1     -37.504  21.650  -0.375  0.00  0.00    +0.006 C 
ATOM     15  C   UNL     1     -40.203  21.050  -0.002  0.00  0.00    +0.168 C 
ATOM     16  C   UNL     1     -38.303  21.323  -1.470  0.00  0.00    +0.040 C 
ATOM     17  C   UNL     1     -39.653  21.022  -1.284  0.00  0.00    +0.167 C 
BRANCH  15  18
ATOM     18  O   UNL     1     -41.519  20.757   0.192  0.00  0.00    -0.503 OA
ATOM     19  H   UNL     1     -42.105  20.729  -0.539  0.00  0.00    +0.292 HD
ENDBRANCH  15  18
BRANCH  17  20
ATOM     20  O   UNL     1     -40.423  20.704  -2.361  0.00  0.00    -0.503 OA
ATOM     21  H   UNL     1     -41.138  20.107  -2.266  0.00  0.00    +0.292 HD
ENDBRANCH  17  20
ENDBRANCH   3  12
BRANCH   6  22
ATOM     22  O   UNL     1     -36.561  19.754   2.465  0.00  0.00    -0.501 OA
ATOM     23  H   UNL     1     -37.377  19.295   2.445  0.00  0.00    +0.292 HD
ENDBRANCH   6  22
BRANCH  10  24
ATOM     24  O   UNL     1     -35.661  27.067   4.907  0.00  0.00    -0.505 OA
ATOM     25  H   UNL     1     -36.471  27.533   4.978  0.00  0.00    +0.292 HD
ENDBRANCH  10  24
TORSDOF 5
ENDMDL
MODEL 3
REMARK VINA RESULT:      -6.1      2.268      7.073
REMARK  Name = 5281614
REMARK  5 active torsions:
REMARK  status: ('A' for Active; 'I' for Inactive)
REMARK    1  A    between atoms: C_3  and  C_12
REMARK    2  A    between atoms: C_6  and  O_22
REMARK    3  A    between atoms: C_10  and  O_24
REMARK    4  A    between atoms: C_15  and  O_18
REMARK    5  A    between atoms: C_17  and  O_20
REMARK                            x       y       z     vdW  Elec       q    Type
REMARK                         _______ _______ _______ _____ _____    ______ ____
ROOT
ATOM      1  O   UNL     1     -34.956  23.656   3.444  0.00  0.00    -0.450 OA
ATOM      2  O   UNL     1     -38.979  24.286   3.272  0.00  0.00    -0.283 OA
ATOM      3  C   UNL     1     -35.528  24.813   3.946  0.00  0.00    +0.182 A 
ATOM      4  C   UNL     1     -37.159  22.859   2.808  0.00  0.00    +0.077 A 
ATOM      5  C   UNL     1     -35.777  22.705   2.894  0.00  0.00    +0.152 A 
ATOM      6  C   UNL     1     -36.846  25.089   3.915  0.00  0.00    +0.208 A 
ATOM      7  C   UNL     1     -37.771  24.092   3.326  0.00  0.00    +0.235 A 
ATOM      8  C   UNL     1     -37.946  21.855   2.236  0.00  0.00    +0.009 C 
ATOM      9  C   UNL     1     -35.171  21.546   2.409  0.00  0.00    +0.074 C 
ATOM     10  C   UNL     1     -35.954  20.542   1.837  0.00  0.00    +0.137 C 
ATOM     11  C   UNL     1     -37.338  20.698   1.751  0.00  0.00    +0.037 C 
ENDROOT
BRANCH   3  12
ATOM     12  C   UNL     1     -34.537  25.749   4.505  0.00  0.00    +0.041 C 
ATOM     13  C   UNL     1     -33.842  26.617   3.663  0.00  0.00    +0.043 C 
ATOM     14  C   UNL     1     -34.293  25.769   5.879  0.00  0.00    +0.006 C 
ATOM     15  C   UNL     1     -32.904  27.503   4.192  0.00  0.00    +0.168 C 
ATOM     16  C   UNL     1     -33.356  26.654   6.409  0.00  0.00    +0.040 C 
ATOM     17  C   UNL     1     -32.660  27.522   5.566  0.00  0.00    +0.167 C 
BRANCH  15  18
ATOM     18  O   UNL     1     -32.230  28.344   3.360  0.00  0.00    -0.503 OA
ATOM     19  H   UNL     1     -31.852  28.016   2.567  0.00  0.00    +0.292 HD
ENDBRANCH  15  18
BRANCH  17  20
ATOM     20  O   UNL     1     -31.748  28.383   6.096  0.00  0.00    -0.503 OA
ATOM     21  H   UNL     1     -31.296  28.986   5.540  0.00  0.00    +0.292 HD
ENDBRANCH  17  20
ENDBRANCH   3  12
BRANCH   6  22
ATOM     22  O   UNL     1     -37.379  26.266   4.393  0.00  0.00    -0.501 OA
ATOM     23  H   UNL     1     -36.849  27.037   4.438  0.00  0.00    +0.292 HD
ENDBRANCH   6  22
BRANCH  10  24
ATOM     24  O   UNL     1     -35.367  19.410   1.362  0.00  0.00    -0.505 OA
ATOM     25  H   UNL     1     -34.773  19.459   0.638  0.00  0.00    +0.292 HD
ENDBRANCH  10  24
TORSDOF 5
ENDMDL
MODEL 4
REMARK VINA RESULT:      -6.1      2.957      5.531
REMARK  Name = 5281614
REMARK  5 active torsions:
REMARK  status: ('A' for Active; 'I' for Inactive)
REMARK    1  A    between atoms: C_3  and  C_12
REMARK    2  A    between atoms: C_6  and  O_22
REMARK    3  A    between atoms: C_10  and  O_24
REMARK    4  A    between atoms: C_15  and  O_18
REMARK    5  A    between atoms: C_17  and  O_20
REMARK                            x       y       z     vdW  Elec       q    Type
REMARK                         _______ _______ _______ _____ _____    ______ ____
ROOT
ATOM      1  O   UNL     1     -33.318  26.337   5.002  0.00  0.00    -0.450 OA
ATOM      2  O   UNL     1     -34.168  29.272   2.306  0.00  0.00    -0.283 OA
ATOM      3  C   UNL     1     -34.124  26.096   3.902  0.00  0.00    +0.182 A 
ATOM      4  C   UNL     1     -33.040  28.637   4.278  0.00  0.00    +0.077 A 
ATOM      5  C   UNL     1     -32.790  27.591   5.165  0.00  0.00    +0.152 A 
ATOM      6  C   UNL     1     -34.451  27.019   2.978  0.00  0.00    +0.208 A 
ATOM      7  C   UNL     1     -33.908  28.392   3.115  0.00  0.00    +0.235 A 
ATOM      8  C   UNL     1     -32.475  29.897   4.495  0.00  0.00    +0.009 C 
ATOM      9  C   UNL     1     -31.972  27.800   6.276  0.00  0.00    +0.074 C 
ATOM     10  C   UNL     1     -31.407  29.056   6.496  0.00  0.00    +0.137 C 
ATOM     11  C   UNL     1     -31.658  30.102   5.606  0.00  0.00    +0.037 C 
ENDROOT
BRANCH   3  12
ATOM     12  C   UNL     1     -34.625  24.711   3.848  0.00  0.00    +0.041 C 
ATOM     13  C   UNL     1     -35.135  24.108   4.998  0.00  0.00    +0.043 C 
ATOM     14  C   UNL     1     -34.590  24.002   2.647  0.00  0.00    +0.006 C 
ATOM     15  C   UNL     1     -35.609  22.797   4.947  0.00  0.00    +0.168 C 
ATOM     16  C   UNL     1     -35.063  22.692   2.595  0.00  0.00    +0.040 C 
ATOM     17  C   UNL     1     -35.574  22.088   3.746  0.00  0.00    +0.167 C 
BRANCH  15  18
ATOM     18  O   UNL     1     -36.104  22.217   6.076  0.00  0.00    -0.503 OA
ATOM     19  H   UNL     1     -36.948  22.464   6.398  0.00  0.00    +0.292 HD
ENDBRANCH  15  18
BRANCH  17  20
ATOM     20  O   UNL     1     -36.034  20.808   3.682  0.00  0.00    -0.503 OA
ATOM     21  H   UNL     1     -36.773  20.550   4.197  0.00  0.00    +0.292 HD
ENDBRANCH  17  20
ENDBRANCH   3  12
BRANCH   6  22
ATOM     22  O   UNL     1     -35.285  26.755   1.913  0.00  0.00    -0.501 OA
ATOM     23  H   UNL     1     -35.131  26.006   1.372  0.00  0.00    +0.292 HD
ENDBRANCH   6  22
BRANCH  10  24
ATOM     24  O   UNL     1     -30.609  29.262   7.579  0.00  0.00    -0.505 OA
ATOM     25  H   UNL     1     -30.223  30.104   7.723  0.00  0.00    +0.292 HD
ENDBRANCH  10  24
TORSDOF 5
ENDMDL
MODEL 5
REMARK VINA RESULT:      -6.0      2.585      5.023
REMARK  Name = 5281614
REMARK  5 active torsions:
REMARK  status: ('A' for Active; 'I' for Inactive)
REMARK    1  A    between atoms: C_3  and  C_12
REMARK    2  A    between atoms: C_6  and  O_22
REMARK    3  A    between atoms: C_10  and  O_24
REMARK    4  A    between atoms: C_15  and  O_18
REMARK    5  A    between atoms: C_17  and  O_20
REMARK                            x       y       z     vdW  Elec       q    Type
REMARK                         _______ _______ _______ _____ _____    ______ ____
ROOT
ATOM      1  O   UNL     1     -34.795  26.298   3.437  0.00  0.00    -0.450 OA
ATOM      2  O   UNL     1     -38.059  27.400   1.260  0.00  0.00    -0.283 OA
ATOM      3  C   UNL     1     -35.875  25.446   3.272  0.00  0.00    +0.182 A 
ATOM      4  C   UNL     1     -35.920  27.965   2.077  0.00  0.00    +0.077 A 
ATOM      5  C   UNL     1     -34.835  27.529   2.835  0.00  0.00    +0.152 A 
ATOM      6  C   UNL     1     -36.986  25.748   2.574  0.00  0.00    +0.208 A 
ATOM      7  C   UNL     1     -37.076  27.071   1.910  0.00  0.00    +0.235 A 
ATOM      8  C   UNL     1     -35.905  29.231   1.487  0.00  0.00    +0.009 C 
ATOM      9  C   UNL     1     -33.727  28.360   3.010  0.00  0.00    +0.074 C 
ATOM     10  C   UNL     1     -33.709  29.625   2.422  0.00  0.00    +0.137 C 
ATOM     11  C   UNL     1     -34.797  30.059   1.663  0.00  0.00    +0.037 C 
ENDROOT
BRANCH   3  12
ATOM     12  C   UNL     1     -35.704  24.160   3.970  0.00  0.00    +0.041 C 
ATOM     13  C   UNL     1     -35.791  22.963   3.259  0.00  0.00    +0.043 C 
ATOM     14  C   UNL     1     -35.455  24.137   5.343  0.00  0.00    +0.006 C 
ATOM     15  C   UNL     1     -35.629  21.744   3.919  0.00  0.00    +0.168 C 
ATOM     16  C   UNL     1     -35.293  22.920   6.003  0.00  0.00    +0.040 C 
ATOM     17  C   UNL     1     -35.380  21.723   5.291  0.00  0.00    +0.167 C 
BRANCH  15  18
ATOM     18  O   UNL     1     -35.717  20.583   3.214  0.00  0.00    -0.503 OA
ATOM     19  H   UNL     1     -35.104  20.401   2.530  0.00  0.00    +0.292 HD
ENDBRANCH  15  18
BRANCH  17  20
ATOM     20  O   UNL     1     -35.219  20.540   5.947  0.00  0.00    -0.503 OA
ATOM     21  H   UNL     1     -35.478  20.463   6.844  0.00  0.00    +0.292 HD
ENDBRANCH  17  20
ENDBRANCH   3  12
BRANCH   6  22
ATOM     22  O   UNL     1     -38.058  24.890   2.459  0.00  0.00    -0.501 OA
ATOM     23  H   UNL     1     -38.912  25.228   2.276  0.00  0.00    +0.292 HD
ENDBRANCH   6  22
BRANCH  10  24
ATOM     24  O   UNL     1     -32.630  30.437   2.591  0.00  0.00    -0.505 OA
ATOM     25  H   UNL     1     -32.676  31.337   2.331  0.00  0.00    +0.292 HD
ENDBRANCH  10  24
TORSDOF 5
ENDMDL
MODEL 6
REMARK VINA RESULT:      -6.0      3.346      8.194
REMARK  Name = 5281614
REMARK  5 active torsions:
REMARK  status: ('A' for Active; 'I' for Inactive)
REMARK    1  A    between atoms: C_3  and  C_12
REMARK    2  A    between atoms: C_6  and  O_22
REMARK    3  A    between atoms: C_10  and  O_24
REMARK    4  A    between atoms: C_15  and  O_18
REMARK    5  A    between atoms: C_17  and  O_20
REMARK                            x       y       z     vdW  Elec       q    Type
REMARK                         _______ _______ _______ _____ _____    ______ ____
ROOT
ATOM      1  O   UNL     1     -33.598  25.447   4.996  0.00  0.00    -0.450 OA
ATOM      2  O   UNL     1     -36.841  26.499   2.764  0.00  0.00    -0.283 OA
ATOM      3  C   UNL     1     -33.762  26.739   4.525  0.00  0.00    +0.182 A 
ATOM      4  C   UNL     1     -35.697  24.814   3.953  0.00  0.00    +0.077 A 
ATOM      5  C   UNL     1     -34.564  24.518   4.709  0.00  0.00    +0.152 A 
ATOM      6  C   UNL     1     -34.803  27.153   3.778  0.00  0.00    +0.208 A 
ATOM      7  C   UNL     1     -35.870  26.181   3.438  0.00  0.00    +0.235 A 
ATOM      8  C   UNL     1     -36.649  23.826   3.691  0.00  0.00    +0.009 C 
ATOM      9  C   UNL     1     -34.376  23.228   5.207  0.00  0.00    +0.074 C 
ATOM     10  C   UNL     1     -35.325  22.238   4.948  0.00  0.00    +0.137 C 
ATOM     11  C   UNL     1     -36.459  22.538   4.191  0.00  0.00    +0.037 C 
ENDROOT
BRANCH   3  12
ATOM     12  C   UNL     1     -32.655  27.634   4.903  0.00  0.00    +0.041 C 
ATOM     13  C   UNL     1     -32.527  28.068   6.223  0.00  0.00    +0.043 C 
ATOM     14  C   UNL     1     -31.732  28.048   3.942  0.00  0.00    +0.006 C 
ATOM     15  C   UNL     1     -31.478  28.915   6.582  0.00  0.00    +0.168 C 
ATOM     16  C   UNL     1     -30.684  28.895   4.299  0.00  0.00    +0.040 C 
ATOM     17  C   UNL     1     -30.556  29.329   5.620  0.00  0.00    +0.167 C 
BRANCH  15  18
ATOM     18  O   UNL     1     -31.364  29.333   7.873  0.00  0.00    -0.503 OA
ATOM     19  H   UNL     1     -32.045  29.145   8.488  0.00  0.00    +0.292 HD
ENDBRANCH  15  18
BRANCH  17  20
ATOM     20  O   UNL     1     -29.527  30.155   5.957  0.00  0.00    -0.503 OA
ATOM     21  H   UNL     1     -28.689  30.048   5.553  0.00  0.00    +0.292 HD
ENDBRANCH  17  20
ENDBRANCH   3  12
BRANCH   6  22
ATOM     22  O   UNL     1     -34.919  28.439   3.296  0.00  0.00    -0.501 OA
ATOM     23  H   UNL     1     -34.151  28.929   3.081  0.00  0.00    +0.292 HD
ENDBRANCH   6  22
BRANCH  10  24
ATOM     24  O   UNL     1     -35.144  20.980   5.432  0.00  0.00    -0.505 OA
ATOM     25  H   UNL     1     -35.608  20.702   6.198  0.00  0.00    +0.292 HD
ENDBRANCH  10  24
TORSDOF 5
ENDMDL
MODEL 7
REMARK VINA RESULT:      -6.0      2.578      7.560
REMARK  Name = 5281614
REMARK  5 active torsions:
REMARK  status: ('A' for Active; 'I' for Inactive)
REMARK    1  A    between atoms: C_3  and  C_12
REMARK    2  A    between atoms: C_6  and  O_22
REMARK    3  A    between atoms: C_10  and  O_24
REMARK    4  A    between atoms: C_15  and  O_18
REMARK    5  A    between atoms: C_17  and  O_20
REMARK                            x       y       z     vdW  Elec       q    Type
REMARK                         _______ _______ _______ _____ _____    ______ ____
ROOT
ATOM      1  O   UNL     1     -34.821  24.404   3.999  0.00  0.00    -0.450 OA
ATOM      2  O   UNL     1     -37.674  26.101   1.637  0.00  0.00    -0.283 OA
ATOM      3  C   UNL     1     -34.955  25.779   3.904  0.00  0.00    +0.182 A 
ATOM      4  C   UNL     1     -36.682  24.129   2.466  0.00  0.00    +0.077 A 
ATOM      5  C   UNL     1     -35.684  23.611   3.289  0.00  0.00    +0.152 A 
ATOM      6  C   UNL     1     -35.869  26.406   3.139  0.00  0.00    +0.208 A 
ATOM      7  C   UNL     1     -36.821  25.588   2.349  0.00  0.00    +0.235 A 
ATOM      8  C   UNL     1     -37.534  23.271   1.764  0.00  0.00    +0.009 C 
ATOM      9  C   UNL     1     -35.531  22.229   3.415  0.00  0.00    +0.074 C 
ATOM     10  C   UNL     1     -36.380  21.370   2.716  0.00  0.00    +0.137 C 
ATOM     11  C   UNL     1     -37.379  21.891   1.892  0.00  0.00    +0.037 C 
ENDROOT
BRANCH   3  12
ATOM     12  C   UNL     1     -33.966  26.511   4.715  0.00  0.00    +0.041 C 
ATOM     13  C   UNL     1     -33.124  27.445   4.112  0.00  0.00    +0.043 C 
ATOM     14  C   UNL     1     -33.872  26.270   6.086  0.00  0.00    +0.006 C 
ATOM     15  C   UNL     1     -32.188  28.139   4.880  0.00  0.00    +0.168 C 
ATOM     16  C   UNL     1     -32.937  26.963   6.854  0.00  0.00    +0.040 C 
ATOM     17  C   UNL     1     -32.094  27.898   6.251  0.00  0.00    +0.167 C 
BRANCH  15  18
ATOM     18  O   UNL     1     -31.370  29.048   4.281  0.00  0.00    -0.503 OA
ATOM     19  H   UNL     1     -31.596  29.957   4.285  0.00  0.00    +0.292 HD
ENDBRANCH  15  18
BRANCH  17  20
ATOM     20  O   UNL     1     -31.185  28.568   7.012  0.00  0.00    -0.503 OA
ATOM     21  H   UNL     1     -31.273  28.581   7.944  0.00  0.00    +0.292 HD
ENDBRANCH  17  20
ENDBRANCH   3  12
BRANCH   6  22
ATOM     22  O   UNL     1     -35.953  27.777   3.040  0.00  0.00    -0.501 OA
ATOM     23  H   UNL     1     -35.712  28.206   2.243  0.00  0.00    +0.292 HD
ENDBRANCH   6  22
BRANCH  10  24
ATOM     24  O   UNL     1     -36.233  20.023   2.837  0.00  0.00    -0.505 OA
ATOM     25  H   UNL     1     -36.577  19.453   2.176  0.00  0.00    +0.292 HD
ENDBRANCH  10  24
TORSDOF 5
ENDMDL
MODEL 8
REMARK VINA RESULT:      -6.0      0.579      1.465
REMARK  Name = 5281614
REMARK  5 active torsions:
REMARK  status: ('A' for Active; 'I' for Inactive)
REMARK    1  A    between atoms: C_3  and  C_12
REMARK    2  A    between atoms: C_6  and  O_22
REMARK    3  A    between atoms: C_10  and  O_24
REMARK    4  A    between atoms: C_15  and  O_18
REMARK    5  A    between atoms: C_17  and  O_20
REMARK                            x       y       z     vdW  Elec       q    Type
REMARK                         _______ _______ _______ _____ _____    ______ ____
ROOT
ATOM      1  O   UNL     1     -35.486  23.187   2.733  0.00  0.00    -0.450 OA
ATOM      2  O   UNL     1     -35.185  22.539   6.745  0.00  0.00    -0.283 OA
ATOM      3  C   UNL     1     -35.461  21.906   3.258  0.00  0.00    +0.182 A 
ATOM      4  C   UNL     1     -35.322  24.096   4.978  0.00  0.00    +0.077 A 
ATOM      5  C   UNL     1     -35.423  24.250   3.597  0.00  0.00    +0.152 A 
ATOM      6  C   UNL     1     -35.356  21.619   4.570  0.00  0.00    +0.208 A 
ATOM      7  C   UNL     1     -35.280  22.737   5.541  0.00  0.00    +0.235 A 
ATOM      8  C   UNL     1     -35.260  25.216   5.811  0.00  0.00    +0.009 C 
ATOM      9  C   UNL     1     -35.463  25.528   3.039  0.00  0.00    +0.074 C 
ATOM     10  C   UNL     1     -35.401  26.649   3.867  0.00  0.00    +0.137 C 
ATOM     11  C   UNL     1     -35.300  26.492   5.250  0.00  0.00    +0.037 C 
ENDROOT
BRANCH   3  12
ATOM     12  C   UNL     1     -35.534  20.859   2.224  0.00  0.00    +0.041 C 
ATOM     13  C   UNL     1     -34.385  20.157   1.858  0.00  0.00    +0.043 C 
ATOM     14  C   UNL     1     -36.753  20.569   1.609  0.00  0.00    +0.006 C 
ATOM     15  C   UNL     1     -34.454  19.165   0.879  0.00  0.00    +0.168 C 
ATOM     16  C   UNL     1     -36.823  19.578   0.630  0.00  0.00    +0.040 C 
ATOM     17  C   UNL     1     -35.673  18.876   0.265  0.00  0.00    +0.167 C 
BRANCH  15  18
ATOM     18  O   UNL     1     -33.326  18.488   0.529  0.00  0.00    -0.503 OA
ATOM     19  H   UNL     1     -32.519  18.949   0.414  0.00  0.00    +0.292 HD
ENDBRANCH  15  18
BRANCH  17  20
ATOM     20  O   UNL     1     -35.754  17.910  -0.692  0.00  0.00    -0.503 OA
ATOM     21  H   UNL     1     -36.562  17.765  -1.144  0.00  0.00    +0.292 HD
ENDBRANCH  17  20
ENDBRANCH   3  12
BRANCH   6  22
ATOM     22  O   UNL     1     -35.299  20.332   5.056  0.00  0.00    -0.501 OA
ATOM     23  H   UNL     1     -34.517  20.020   5.467  0.00  0.00    +0.292 HD
ENDBRANCH   6  22
BRANCH  10  24
ATOM     24  O   UNL     1     -35.440  27.897   3.325  0.00  0.00    -0.505 OA
ATOM     25  H   UNL     1     -34.777  28.164   2.718  0.00  0.00    +0.292 HD
ENDBRANCH  10  24
TORSDOF 5
ENDMDL
MODEL 9
REMARK VINA RESULT:      -6.0      3.922      6.523
REMARK  Name = 5281614
REMARK  5 active torsions:
REMARK  status: ('A' for Active; 'I' for Inactive)
REMARK    1  A    between atoms: C_3  and  C_12
REMARK    2  A    between atoms: C_6  and  O_22
REMARK    3  A    between atoms: C_10  and  O_24
REMARK    4  A    between atoms: C_15  and  O_18
REMARK    5  A    between atoms: C_17  and  O_20
REMARK                            x       y       z     vdW  Elec       q    Type
REMARK                         _______ _______ _______ _____ _____    ______ ____
ROOT
ATOM      1  O   UNL     1     -33.599  28.225   3.932  0.00  0.00    -0.450 OA
ATOM      2  O   UNL     1     -31.096  29.110   7.024  0.00  0.00    -0.283 OA
ATOM      3  C   UNL     1     -33.465  27.377   5.019  0.00  0.00    +0.182 A 
ATOM      4  C   UNL     1     -32.007  29.752   4.945  0.00  0.00    +0.077 A 
ATOM      5  C   UNL     1     -32.877  29.390   3.919  0.00  0.00    +0.152 A 
ATOM      6  C   UNL     1     -32.653  27.603   6.069  0.00  0.00    +0.208 A 
ATOM      7  C   UNL     1     -31.849  28.848   6.096  0.00  0.00    +0.235 A 
ATOM      8  C   UNL     1     -31.296  30.953   4.877  0.00  0.00    +0.009 C 
ATOM      9  C   UNL     1     -33.042  30.229   2.816  0.00  0.00    +0.074 C 
ATOM     10  C   UNL     1     -32.334  31.429   2.745  0.00  0.00    +0.137 C 
ATOM     11  C   UNL     1     -31.463  31.789   3.774  0.00  0.00    +0.037 C 
ENDROOT
BRANCH   3  12
ATOM     12  C   UNL     1     -34.293  26.163   4.907  0.00  0.00    +0.041 C 
ATOM     13  C   UNL     1     -35.677  26.272   4.771  0.00  0.00    +0.043 C 
ATOM     14  C   UNL     1     -33.693  24.903   4.935  0.00  0.00    +0.006 C 
ATOM     15  C   UNL     1     -36.461  25.123   4.664  0.00  0.00    +0.168 C 
ATOM     16  C   UNL     1     -34.476  23.754   4.829  0.00  0.00    +0.040 C 
ATOM     17  C   UNL     1     -35.861  23.864   4.693  0.00  0.00    +0.167 C 
BRANCH  15  18
ATOM     18  O   UNL     1     -37.812  25.242   4.533  0.00  0.00    -0.503 OA
ATOM     19  H   UNL     1     -38.189  25.404   3.690  0.00  0.00    +0.292 HD
ENDBRANCH  15  18
BRANCH  17  20
ATOM     20  O   UNL     1     -36.615  22.735   4.589  0.00  0.00    -0.503 OA
ATOM     21  H   UNL     1     -37.354  22.716   4.012  0.00  0.00    +0.292 HD
ENDBRANCH  17  20
ENDBRANCH   3  12
BRANCH   6  22
ATOM     22  O   UNL     1     -32.518  26.721   7.119  0.00  0.00    -0.501 OA
ATOM     23  H   UNL     1     -31.805  26.115   7.134  0.00  0.00    +0.292 HD
ENDBRANCH   6  22
BRANCH  10  24
ATOM     24  O   UNL     1     -32.492  32.249   1.670  0.00  0.00    -0.505 OA
ATOM     25  H   UNL     1     -33.354  32.463   1.368  0.00  0.00    +0.292 HD
ENDBRANCH  10  24
TORSDOF 5
ENDMDL
