MODEL 1
REMARK VINA RESULT:      -6.1      0.000      0.000
REMARK  Name = 191200
REMARK  4 active torsions:
REMARK  status: ('A' for Active; 'I' for Inactive)
REMARK    1  A    between atoms: C_5  and  C_14
REMARK    2  A    between atoms: C_13  and  O_17
REMARK    3  A    between atoms: C_16  and  C_19
REMARK    4  A    between atoms: C_19  and  O_20
REMARK                            x       y       z     vdW  Elec       q    Type
REMARK                         _______ _______ _______ _____ _____    ______ ____
ROOT
ATOM      1  N   UNL     1     -33.886  26.682   5.860  0.00  0.00    -0.270 NA
ATOM      2  N   UNL     1     -34.360  26.567   3.686  0.00  0.00    -0.308 N 
ATOM      3  N   UNL     1     -32.567  28.023   2.927  0.00  0.00    -0.232 NA
ATOM      4  N   UNL     1     -31.169  28.888   4.730  0.00  0.00    -0.233 NA
ATOM      5  C   UNL     1     -34.703  26.168   4.890  0.00  0.00    +0.159 C 
ATOM      6  C   UNL     1     -32.956  27.464   5.236  0.00  0.00    +0.164 C 
ATOM      7  C   UNL     1     -33.271  27.376   3.887  0.00  0.00    +0.125 C 
ATOM      8  C   UNL     1     -31.890  28.230   5.665  0.00  0.00    +0.121 C 
ATOM      9  C   UNL     1     -31.546  28.745   3.437  0.00  0.00    +0.252 C 
ATOM     10  H   UNL     1     -33.956  26.519   6.829  0.00  0.00    +0.126 HD
ATOM     11  H   UNL     1     -34.790  26.337   2.830  0.00  0.00    +0.149 HD
ATOM     12  N   UNL     1     -31.562  28.325   7.028  0.00  0.00    -0.345 N 
ATOM     13  H   UNL     1     -30.797  28.877   7.312  0.00  0.00    +0.143 HD
ATOM     14  H   UNL     1     -32.096  27.841   7.697  0.00  0.00    +0.143 HD
ENDROOT
BRANCH   5  17
ATOM     15  O   UNL     1     -35.326  24.131   5.982  0.00  0.00    -0.350 OA
ATOM     16  C   UNL     1     -36.574  24.688   4.017  0.00  0.00    +0.143 C 
ATOM     17  C   UNL     1     -35.852  25.250   5.241  0.00  0.00    +0.175 C 
ATOM     18  C   UNL     1     -36.087  23.257   3.935  0.00  0.00    +0.064 C 
ATOM     19  C   UNL     1     -35.835  22.924   5.395  0.00  0.00    +0.147 C 
BRANCH  16  20
ATOM     20  O   UNL     1     -37.978  24.702   4.271  0.00  0.00    -0.382 OA
ATOM     21  H   UNL     1     -38.304  25.614   4.233  0.00  0.00    +0.210 HD
ENDBRANCH  16  20
BRANCH  19  22
ATOM     22  C   UNL     1     -34.842  21.796   5.596  0.00  0.00    +0.167 C 
BRANCH  22  23
ATOM     23  O   UNL     1     -35.552  20.606   5.900  0.00  0.00    -0.379 OA
ATOM     24  H   UNL     1     -35.791  20.152   5.077  0.00  0.00    +0.211 HD
ENDBRANCH  22  23
ENDBRANCH  19  22
ENDBRANCH   5  17
TORSDOF 4
ENDMDL
MODEL 2
REMARK VINA RESULT:      -6.0      1.562      1.767
REMARK  Name = 191200
REMARK  4 active torsions:
REMARK  status: ('A' for Active; 'I' for Inactive)
REMARK    1  A    between atoms: C_5  and  C_14
REMARK    2  A    between atoms: C_13  and  O_17
REMARK    3  A    between atoms: C_16  and  C_19
REMARK    4  A    between atoms: C_19  and  O_20
REMARK                            x       y       z     vdW  Elec       q    Type
REMARK                         _______ _______ _______ _____ _____    ______ ____
ROOT
ATOM      1  N   UNL     1     -35.178  27.356   4.071  0.00  0.00    -0.270 NA
ATOM      2  N   UNL     1     -33.748  25.648   3.989  0.00  0.00    -0.308 N 
ATOM      3  N   UNL     1     -31.840  26.915   3.174  0.00  0.00    -0.232 NA
ATOM      4  N   UNL     1     -32.301  29.288   2.838  0.00  0.00    -0.233 NA
ATOM      5  C   UNL     1     -34.975  26.018   4.277  0.00  0.00    +0.159 C 
ATOM      6  C   UNL     1     -34.000  27.880   3.620  0.00  0.00    +0.164 C 
ATOM      7  C   UNL     1     -33.128  26.801   3.577  0.00  0.00    +0.125 C 
ATOM      8  C   UNL     1     -33.582  29.142   3.246  0.00  0.00    +0.121 C 
ATOM      9  C   UNL     1     -31.520  28.182   2.828  0.00  0.00    +0.252 C 
ATOM     10  H   UNL     1     -36.017  27.849   4.221  0.00  0.00    +0.126 HD
ATOM     11  H   UNL     1     -33.359  24.746   4.053  0.00  0.00    +0.149 HD
ATOM     12  N   UNL     1     -34.456  30.241   3.285  0.00  0.00    -0.345 N 
ATOM     13  H   UNL     1     -34.137  31.133   3.014  0.00  0.00    +0.143 HD
ATOM     14  H   UNL     1     -35.386  30.120   3.584  0.00  0.00    +0.143 HD
ENDROOT
BRANCH   5  17
ATOM     15  O   UNL     1     -35.546  24.258   5.797  0.00  0.00    -0.350 OA
ATOM     16  C   UNL     1     -36.695  24.241   3.697  0.00  0.00    +0.143 C 
ATOM     17  C   UNL     1     -36.088  25.128   4.783  0.00  0.00    +0.175 C 
ATOM     18  C   UNL     1     -36.121  22.871   3.986  0.00  0.00    +0.064 C 
ATOM     19  C   UNL     1     -35.944  22.913   5.495  0.00  0.00    +0.147 C 
BRANCH  16  20
ATOM     20  O   UNL     1     -38.111  24.212   3.872  0.00  0.00    -0.382 OA
ATOM     21  H   UNL     1     -38.420  25.089   4.146  0.00  0.00    +0.210 HD
ENDBRANCH  16  20
BRANCH  19  22
ATOM     22  C   UNL     1     -34.901  21.940   6.010  0.00  0.00    +0.167 C 
BRANCH  22  23
ATOM     23  O   UNL     1     -35.276  20.623   5.637  0.00  0.00    -0.379 OA
ATOM     24  H   UNL     1     -35.250  20.047   6.416  0.00  0.00    +0.211 HD
ENDBRANCH  22  23
ENDBRANCH  19  22
ENDBRANCH   5  17
TORSDOF 4
ENDMDL
MODEL 3
REMARK VINA RESULT:      -6.0      3.737      6.505
REMARK  Name = 191200
REMARK  4 active torsions:
REMARK  status: ('A' for Active; 'I' for Inactive)
REMARK    1  A    between atoms: C_5  and  C_14
REMARK    2  A    between atoms: C_13  and  O_17
REMARK    3  A    between atoms: C_16  and  C_19
REMARK    4  A    between atoms: C_19  and  O_20
REMARK                            x       y       z     vdW  Elec       q    Type
REMARK                         _______ _______ _______ _____ _____    ______ ____
ROOT
ATOM      1  N   UNL     1     -37.996  24.066   3.699  0.00  0.00    -0.270 NA
ATOM      2  N   UNL     1     -37.779  26.283   3.620  0.00  0.00    -0.308 N 
ATOM      3  N   UNL     1     -39.563  26.686   2.018  0.00  0.00    -0.232 NA
ATOM      4  N   UNL     1     -40.698  24.658   1.274  0.00  0.00    -0.233 NA
ATOM      5  C   UNL     1     -37.325  25.170   4.150  0.00  0.00    +0.159 C 
ATOM      6  C   UNL     1     -38.947  24.501   2.818  0.00  0.00    +0.164 C 
ATOM      7  C   UNL     1     -38.792  25.880   2.787  0.00  0.00    +0.125 C 
ATOM      8  C   UNL     1     -39.912  23.879   2.052  0.00  0.00    +0.121 C 
ATOM      9  C   UNL     1     -40.478  25.994   1.304  0.00  0.00    +0.252 C 
ATOM     10  H   UNL     1     -37.826  23.132   3.960  0.00  0.00    +0.126 HD
ATOM     11  H   UNL     1     -37.464  27.201   3.783  0.00  0.00    +0.149 HD
ATOM     12  N   UNL     1     -40.078  22.485   2.076  0.00  0.00    -0.345 N 
ATOM     13  H   UNL     1     -40.773  22.062   1.522  0.00  0.00    +0.143 HD
ATOM     14  H   UNL     1     -39.499  21.931   2.647  0.00  0.00    +0.143 HD
ENDROOT
BRANCH   5  17
ATOM     15  O   UNL     1     -35.494  26.301   5.199  0.00  0.00    -0.350 OA
ATOM     16  C   UNL     1     -35.179  23.966   4.780  0.00  0.00    +0.143 C 
ATOM     17  C   UNL     1     -36.197  25.044   5.149  0.00  0.00    +0.175 C 
ATOM     18  C   UNL     1     -33.991  24.750   4.265  0.00  0.00    +0.064 C 
ATOM     19  C   UNL     1     -34.089  26.036   5.068  0.00  0.00    +0.147 C 
BRANCH  16  20
ATOM     20  O   UNL     1     -34.810  23.263   5.965  0.00  0.00    -0.382 OA
ATOM     21  H   UNL     1     -34.224  22.526   5.735  0.00  0.00    +0.210 HD
ENDBRANCH  16  20
BRANCH  19  22
ATOM     22  C   UNL     1     -33.403  27.216   4.408  0.00  0.00    +0.167 C 
BRANCH  22  23
ATOM     23  O   UNL     1     -34.388  28.047   3.813  0.00  0.00    -0.379 OA
ATOM     24  H   UNL     1     -35.078  28.248   4.465  0.00  0.00    +0.211 HD
ENDBRANCH  22  23
ENDBRANCH  19  22
ENDBRANCH   5  17
TORSDOF 4
ENDMDL
MODEL 4
REMARK VINA RESULT:      -5.9      3.858      6.382
REMARK  Name = 191200
REMARK  4 active torsions:
REMARK  status: ('A' for Active; 'I' for Inactive)
REMARK    1  A    between atoms: C_5  and  C_14
REMARK    2  A    between atoms: C_13  and  O_17
REMARK    3  A    between atoms: C_16  and  C_19
REMARK    4  A    between atoms: C_19  and  O_20
REMARK                            x       y       z     vdW  Elec       q    Type
REMARK                         _______ _______ _______ _____ _____    ______ ____
ROOT
ATOM      1  N   UNL     1     -38.013  23.876   2.486  0.00  0.00    -0.270 NA
ATOM      2  N   UNL     1     -37.832  25.882   3.441  0.00  0.00    -0.308 N 
ATOM      3  N   UNL     1     -40.098  26.625   2.970  0.00  0.00    -0.232 NA
ATOM      4  N   UNL     1     -41.444  24.985   1.764  0.00  0.00    -0.233 NA
ATOM      5  C   UNL     1     -37.212  24.757   3.160  0.00  0.00    +0.159 C 
ATOM      6  C   UNL     1     -39.229  24.476   2.322  0.00  0.00    +0.164 C 
ATOM      7  C   UNL     1     -39.092  25.719   2.923  0.00  0.00    +0.125 C 
ATOM      8  C   UNL     1     -40.421  24.101   1.734  0.00  0.00    +0.121 C 
ATOM      9  C   UNL     1     -41.223  26.175   2.372  0.00  0.00    +0.252 C 
ATOM     10  H   UNL     1     -37.759  22.976   2.176  0.00  0.00    +0.126 HD
ATOM     11  H   UNL     1     -37.473  26.666   3.916  0.00  0.00    +0.149 HD
ATOM     12  N   UNL     1     -40.571  22.846   1.123  0.00  0.00    -0.345 N 
ATOM     13  H   UNL     1     -41.430  22.599   0.710  0.00  0.00    +0.143 HD
ATOM     14  H   UNL     1     -39.818  22.213   1.108  0.00  0.00    +0.143 HD
ENDROOT
BRANCH   5  17
ATOM     15  O   UNL     1     -35.772  23.088   4.094  0.00  0.00    -0.350 OA
ATOM     16  C   UNL     1     -35.157  25.360   4.526  0.00  0.00    +0.143 C 
ATOM     17  C   UNL     1     -35.784  24.406   3.510  0.00  0.00    +0.175 C 
ATOM     18  C   UNL     1     -35.159  24.569   5.816  0.00  0.00    +0.064 C 
ATOM     19  C   UNL     1     -35.016  23.143   5.313  0.00  0.00    +0.147 C 
BRANCH  16  20
ATOM     20  O   UNL     1     -33.812  25.626   4.130  0.00  0.00    -0.382 OA
ATOM     21  H   UNL     1     -33.638  26.577   4.193  0.00  0.00    +0.210 HD
ENDBRANCH  16  20
BRANCH  19  22
ATOM     22  C   UNL     1     -35.535  22.103   6.287  0.00  0.00    +0.167 C 
BRANCH  22  23
ATOM     23  O   UNL     1     -35.309  20.811   5.744  0.00  0.00    -0.379 OA
ATOM     24  H   UNL     1     -35.033  20.207   6.451  0.00  0.00    +0.211 HD
ENDBRANCH  22  23
ENDBRANCH  19  22
ENDBRANCH   5  17
TORSDOF 4
ENDMDL
MODEL 5
REMARK VINA RESULT:      -5.8      3.548      5.315
REMARK  Name = 191200
REMARK  4 active torsions:
REMARK  status: ('A' for Active; 'I' for Inactive)
REMARK    1  A    between atoms: C_5  and  C_14
REMARK    2  A    between atoms: C_13  and  O_17
REMARK    3  A    between atoms: C_16  and  C_19
REMARK    4  A    between atoms: C_19  and  O_20
REMARK                            x       y       z     vdW  Elec       q    Type
REMARK                         _______ _______ _______ _____ _____    ______ ____
ROOT
ATOM      1  N   UNL     1     -37.681  23.851   3.708  0.00  0.00    -0.270 NA
ATOM      2  N   UNL     1     -37.699  26.079   3.676  0.00  0.00    -0.308 N 
ATOM      3  N   UNL     1     -35.690  26.397   5.008  0.00  0.00    -0.232 NA
ATOM      4  N   UNL     1     -34.640  24.314   5.724  0.00  0.00    -0.233 NA
ATOM      5  C   UNL     1     -38.312  24.987   3.279  0.00  0.00    +0.159 C 
ATOM      6  C   UNL     1     -36.589  24.240   4.430  0.00  0.00    +0.164 C 
ATOM      7  C   UNL     1     -36.622  25.627   4.396  0.00  0.00    +0.125 C 
ATOM      8  C   UNL     1     -35.585  23.572   5.103  0.00  0.00    +0.121 C 
ATOM      9  C   UNL     1     -34.749  25.661   5.639  0.00  0.00    +0.252 C 
ATOM     10  H   UNL     1     -37.963  22.924   3.529  0.00  0.00    +0.126 HD
ATOM     11  H   UNL     1     -37.955  27.013   3.498  0.00  0.00    +0.149 HD
ATOM     12  N   UNL     1     -35.542  22.169   5.144  0.00  0.00    -0.345 N 
ATOM     13  H   UNL     1     -34.817  21.713   5.629  0.00  0.00    +0.143 HD
ATOM     14  H   UNL     1     -36.236  21.642   4.687  0.00  0.00    +0.143 HD
ENDROOT
BRANCH   5  17
ATOM     15  O   UNL     1     -40.002  23.540   2.394  0.00  0.00    -0.350 OA
ATOM     16  C   UNL     1     -39.366  25.380   1.002  0.00  0.00    +0.143 C 
ATOM     17  C   UNL     1     -39.569  24.914   2.443  0.00  0.00    +0.175 C 
ATOM     18  C   UNL     1     -39.340  24.093   0.205  0.00  0.00    +0.064 C 
ATOM     19  C   UNL     1     -40.254  23.196   1.023  0.00  0.00    +0.147 C 
BRANCH  16  20
ATOM     20  O   UNL     1     -40.495  26.160   0.613  0.00  0.00    -0.382 OA
ATOM     21  H   UNL     1     -40.447  27.031   1.036  0.00  0.00    +0.210 HD
ENDBRANCH  16  20
BRANCH  19  22
ATOM     22  C   UNL     1     -39.999  21.716   0.810  0.00  0.00    +0.167 C 
BRANCH  22  23
ATOM     23  O   UNL     1     -40.190  21.035   2.040  0.00  0.00    -0.379 OA
ATOM     24  H   UNL     1     -39.897  20.115   1.949  0.00  0.00    +0.211 HD
ENDBRANCH  22  23
ENDBRANCH  19  22
ENDBRANCH   5  17
TORSDOF 4
ENDMDL
MODEL 6
REMARK VINA RESULT:      -5.7      4.385      6.655
REMARK  Name = 191200
REMARK  4 active torsions:
REMARK  status: ('A' for Active; 'I' for Inactive)
REMARK    1  A    between atoms: C_5  and  C_14
REMARK    2  A    between atoms: C_13  and  O_17
REMARK    3  A    between atoms: C_16  and  C_19
REMARK    4  A    between atoms: C_19  and  O_20
REMARK                            x       y       z     vdW  Elec       q    Type
REMARK                         _______ _______ _______ _____ _____    ______ ____
ROOT
ATOM      1  N   UNL     1     -35.255  20.639   2.491  0.00  0.00    -0.270 NA
ATOM      2  N   UNL     1     -34.962  22.758   1.864  0.00  0.00    -0.308 N 
ATOM      3  N   UNL     1     -33.850  22.278  -0.244  0.00  0.00    -0.232 NA
ATOM      4  N   UNL     1     -33.574  19.896  -0.694  0.00  0.00    -0.233 NA
ATOM      5  C   UNL     1     -35.436  21.961   2.796  0.00  0.00    +0.159 C 
ATOM      6  C   UNL     1     -34.621  20.584   1.282  0.00  0.00    +0.164 C 
ATOM      7  C   UNL     1     -34.450  21.911   0.914  0.00  0.00    +0.125 C 
ATOM      8  C   UNL     1     -34.177  19.561   0.468  0.00  0.00    +0.121 C 
ATOM      9  C   UNL     1     -33.449  21.215  -0.975  0.00  0.00    +0.252 C 
ATOM     10  H   UNL     1     -35.531  19.871   3.042  0.00  0.00    +0.126 HD
ATOM     11  H   UNL     1     -34.971  23.743   1.852  0.00  0.00    +0.149 HD
ATOM     12  N   UNL     1     -34.346  18.214   0.831  0.00  0.00    -0.345 N 
ATOM     13  H   UNL     1     -34.022  17.500   0.235  0.00  0.00    +0.143 HD
ATOM     14  H   UNL     1     -34.787  17.985   1.680  0.00  0.00    +0.143 HD
ENDROOT
BRANCH   5  17
ATOM     15  O   UNL     1     -36.364  23.800   4.016  0.00  0.00    -0.350 OA
ATOM     16  C   UNL     1     -35.272  22.120   5.325  0.00  0.00    +0.143 C 
ATOM     17  C   UNL     1     -36.116  22.381   4.079  0.00  0.00    +0.175 C 
ATOM     18  C   UNL     1     -34.763  23.492   5.712  0.00  0.00    +0.064 C 
ATOM     19  C   UNL     1     -35.888  24.394   5.233  0.00  0.00    +0.147 C 
BRANCH  16  20
ATOM     20  O   UNL     1     -36.123  21.619   6.355  0.00  0.00    -0.382 OA
ATOM     21  H   UNL     1     -35.746  20.802   6.717  0.00  0.00    +0.210 HD
ENDBRANCH  16  20
BRANCH  19  22
ATOM     22  C   UNL     1     -35.449  25.821   4.971  0.00  0.00    +0.167 C 
BRANCH  22  23
ATOM     23  O   UNL     1     -36.508  26.700   5.319  0.00  0.00    -0.379 OA
ATOM     24  H   UNL     1     -36.459  27.499   4.772  0.00  0.00    +0.211 HD
ENDBRANCH  22  23
ENDBRANCH  19  22
ENDBRANCH   5  17
TORSDOF 4
ENDMDL
MODEL 7
REMARK VINA RESULT:      -5.6      3.678      5.698
REMARK  Name = 191200
REMARK  4 active torsions:
REMARK  status: ('A' for Active; 'I' for Inactive)
REMARK    1  A    between atoms: C_5  and  C_14
REMARK    2  A    between atoms: C_13  and  O_17
REMARK    3  A    between atoms: C_16  and  C_19
REMARK    4  A    between atoms: C_19  and  O_20
REMARK                            x       y       z     vdW  Elec       q    Type
REMARK                         _______ _______ _______ _____ _____    ______ ____
ROOT
ATOM      1  N   UNL     1     -37.471  24.571   3.227  0.00  0.00    -0.270 NA
ATOM      2  N   UNL     1     -36.885  26.716   3.087  0.00  0.00    -0.308 N 
ATOM      3  N   UNL     1     -35.145  26.645   4.784  0.00  0.00    -0.232 NA
ATOM      4  N   UNL     1     -34.844  24.446   5.798  0.00  0.00    -0.233 NA
ATOM      5  C   UNL     1     -37.684  25.781   2.625  0.00  0.00    +0.159 C 
ATOM      6  C   UNL     1     -36.467  24.741   4.138  0.00  0.00    +0.164 C 
ATOM      7  C   UNL     1     -36.120  26.080   4.032  0.00  0.00    +0.125 C 
ATOM      8  C   UNL     1     -35.822  23.910   5.032  0.00  0.00    +0.121 C 
ATOM      9  C   UNL     1     -34.570  25.762   5.629  0.00  0.00    +0.252 C 
ATOM     10  H   UNL     1     -37.953  23.733   3.038  0.00  0.00    +0.126 HD
ATOM     11  H   UNL     1     -36.844  27.662   2.817  0.00  0.00    +0.149 HD
ATOM     12  N   UNL     1     -36.165  22.553   5.147  0.00  0.00    -0.345 N 
ATOM     13  H   UNL     1     -35.691  21.979   5.792  0.00  0.00    +0.143 HD
ATOM     14  H   UNL     1     -36.878  22.177   4.584  0.00  0.00    +0.143 HD
ENDROOT
BRANCH   5  17
ATOM     15  O   UNL     1     -39.712  26.901   2.022  0.00  0.00    -0.350 OA
ATOM     16  C   UNL     1     -39.485  24.652   1.234  0.00  0.00    +0.143 C 
ATOM     17  C   UNL     1     -38.738  25.947   1.554  0.00  0.00    +0.175 C 
ATOM     18  C   UNL     1     -40.829  24.833   1.906  0.00  0.00    +0.064 C 
ATOM     19  C   UNL     1     -41.020  26.339   1.833  0.00  0.00    +0.147 C 
BRANCH  16  20
ATOM     20  O   UNL     1     -39.665  24.569  -0.179  0.00  0.00    -0.382 OA
ATOM     21  H   UNL     1     -39.474  25.431  -0.580  0.00  0.00    +0.210 HD
ENDBRANCH  16  20
BRANCH  19  22
ATOM     22  C   UNL     1     -41.969  26.880   2.884  0.00  0.00    +0.167 C 
BRANCH  22  23
ATOM     23  O   UNL     1     -41.236  27.154   4.068  0.00  0.00    -0.379 OA
ATOM     24  H   UNL     1     -41.702  27.826   4.590  0.00  0.00    +0.211 HD
ENDBRANCH  22  23
ENDBRANCH  19  22
ENDBRANCH   5  17
TORSDOF 4
ENDMDL
MODEL 8
REMARK VINA RESULT:      -5.5      4.591      6.909
REMARK  Name = 191200
REMARK  4 active torsions:
REMARK  status: ('A' for Active; 'I' for Inactive)
REMARK    1  A    between atoms: C_5  and  C_14
REMARK    2  A    between atoms: C_13  and  O_17
REMARK    3  A    between atoms: C_16  and  C_19
REMARK    4  A    between atoms: C_19  and  O_20
REMARK                            x       y       z     vdW  Elec       q    Type
REMARK                         _______ _______ _______ _____ _____    ______ ____
ROOT
ATOM      1  N   UNL     1     -38.472  26.137   3.226  0.00  0.00    -0.270 NA
ATOM      2  N   UNL     1     -38.886  24.228   2.154  0.00  0.00    -0.308 N 
ATOM      3  N   UNL     1     -37.249  22.877   3.340  0.00  0.00    -0.232 NA
ATOM      4  N   UNL     1     -35.990  24.109   5.029  0.00  0.00    -0.233 NA
ATOM      5  C   UNL     1     -39.207  25.497   2.266  0.00  0.00    +0.159 C 
ATOM      6  C   UNL     1     -37.621  25.216   3.768  0.00  0.00    +0.164 C 
ATOM      7  C   UNL     1     -37.896  24.039   3.086  0.00  0.00    +0.125 C 
ATOM      8  C   UNL     1     -36.654  25.254   4.753  0.00  0.00    +0.121 C 
ATOM      9  C   UNL     1     -36.324  23.007   4.316  0.00  0.00    +0.252 C 
ATOM     10  H   UNL     1     -38.543  27.087   3.479  0.00  0.00    +0.126 HD
ATOM     11  H   UNL     1     -39.268  23.561   1.539  0.00  0.00    +0.149 HD
ATOM     12  N   UNL     1     -36.367  26.439   5.449  0.00  0.00    -0.345 N 
ATOM     13  H   UNL     1     -35.674  26.443   6.149  0.00  0.00    +0.143 HD
ATOM     14  H   UNL     1     -36.858  27.265   5.238  0.00  0.00    +0.143 HD
ENDROOT
BRANCH   5  17
ATOM     15  O   UNL     1     -40.840  27.248   2.305  0.00  0.00    -0.350 OA
ATOM     16  C   UNL     1     -41.390  25.333   0.978  0.00  0.00    +0.143 C 
ATOM     17  C   UNL     1     -40.255  26.234   1.463  0.00  0.00    +0.175 C 
ATOM     18  C   UNL     1     -42.544  25.677   1.896  0.00  0.00    +0.064 C 
ATOM     19  C   UNL     1     -42.269  27.137   2.216  0.00  0.00    +0.147 C 
BRANCH  16  20
ATOM     20  O   UNL     1     -41.720  25.698  -0.361  0.00  0.00    -0.382 OA
ATOM     21  H   UNL     1     -42.060  24.922  -0.833  0.00  0.00    +0.210 HD
ENDBRANCH  16  20
BRANCH  19  22
ATOM     22  C   UNL     1     -42.901  27.601   3.514  0.00  0.00    +0.167 C 
BRANCH  22  23
ATOM     23  O   UNL     1     -42.357  28.864   3.864  0.00  0.00    -0.379 OA
ATOM     24  H   UNL     1     -42.918  29.569   3.505  0.00  0.00    +0.211 HD
ENDBRANCH  22  23
ENDBRANCH  19  22
ENDBRANCH   5  17
TORSDOF 4
ENDMDL
MODEL 9
REMARK VINA RESULT:      -5.5      1.685      2.495
REMARK  Name = 191200
REMARK  4 active torsions:
REMARK  status: ('A' for Active; 'I' for Inactive)
REMARK    1  A    between atoms: C_5  and  C_14
REMARK    2  A    between atoms: C_13  and  O_17
REMARK    3  A    between atoms: C_16  and  C_19
REMARK    4  A    between atoms: C_19  and  O_20
REMARK                            x       y       z     vdW  Elec       q    Type
REMARK                         _______ _______ _______ _____ _____    ______ ____
ROOT
ATOM      1  N   UNL     1     -34.294  25.262   3.286  0.00  0.00    -0.270 NA
ATOM      2  N   UNL     1     -34.849  26.473   5.073  0.00  0.00    -0.308 N 
ATOM      3  N   UNL     1     -32.913  27.943   5.032  0.00  0.00    -0.232 NA
ATOM      4  N   UNL     1     -31.358  27.477   3.209  0.00  0.00    -0.233 NA
ATOM      5  C   UNL     1     -35.199  25.478   4.288  0.00  0.00    +0.159 C 
ATOM      6  C   UNL     1     -33.293  26.180   3.437  0.00  0.00    +0.164 C 
ATOM      7  C   UNL     1     -33.660  26.920   4.553  0.00  0.00    +0.125 C 
ATOM      8  C   UNL     1     -32.126  26.461   2.755  0.00  0.00    +0.121 C 
ATOM      9  C   UNL     1     -31.793  28.146   4.304  0.00  0.00    +0.252 C 
ATOM     10  H   UNL     1     -34.352  24.572   2.585  0.00  0.00    +0.126 HD
ATOM     11  H   UNL     1     -35.330  26.820   5.859  0.00  0.00    +0.149 HD
ATOM     12  N   UNL     1     -31.745  25.719   1.625  0.00  0.00    -0.345 N 
ATOM     13  H   UNL     1     -30.909  25.937   1.152  0.00  0.00    +0.143 HD
ATOM     14  H   UNL     1     -32.313  24.983   1.305  0.00  0.00    +0.143 HD
ENDROOT
BRANCH   5  17
ATOM     15  O   UNL     1     -36.071  23.249   4.217  0.00  0.00    -0.350 OA
ATOM     16  C   UNL     1     -37.515  24.965   3.379  0.00  0.00    +0.143 C 
ATOM     17  C   UNL     1     -36.443  24.628   4.415  0.00  0.00    +0.175 C 
ATOM     18  C   UNL     1     -37.424  23.829   2.382  0.00  0.00    +0.064 C 
ATOM     19  C   UNL     1     -36.971  22.674   3.258  0.00  0.00    +0.147 C 
BRANCH  16  20
ATOM     20  O   UNL     1     -38.790  24.938   4.019  0.00  0.00    -0.382 OA
ATOM     21  H   UNL     1     -39.334  25.667   3.684  0.00  0.00    +0.210 HD
ENDBRANCH  16  20
BRANCH  19  22
ATOM     22  C   UNL     1     -36.267  21.572   2.491  0.00  0.00    +0.167 C 
BRANCH  22  23
ATOM     23  O   UNL     1     -35.827  20.581   3.407  0.00  0.00    -0.379 OA
ATOM     24  H   UNL     1     -36.457  20.517   4.142  0.00  0.00    +0.211 HD
ENDBRANCH  22  23
ENDBRANCH  19  22
ENDBRANCH   5  17
TORSDOF 4
ENDMDL
