MODEL 1
REMARK VINA RESULT:      -6.5      0.000      0.000
REMARK  Name = 50294
REMARK  7 active torsions:
REMARK  status: ('A' for Active; 'I' for Inactive)
REMARK    1  A    between atoms: N_4  and  C_25
REMARK    2  A    between atoms: C_6  and  C_27
REMARK    3  A    between atoms: C_11  and  C_18
REMARK    4  A    between atoms: C_15  and  C_22
REMARK    5  A    between atoms: C_18  and  O_19
REMARK    6  A    between atoms: C_22  and  O_23
REMARK    7  A    between atoms: C_27  and  C_28
REMARK                            x       y       z     vdW  Elec       q    Type
REMARK                         _______ _______ _______ _____ _____    ______ ____
ROOT
ATOM      1  O   UNL     1     -37.069  19.702   0.843  0.00  0.00    -0.447 OA
ATOM      2  O   UNL     1     -39.749  25.233   2.505  0.00  0.00    -0.286 OA
ATOM      3  O   UNL     1     -40.556  21.282  -0.559  0.00  0.00    -0.286 OA
ATOM      4  N   UNL     1     -36.293  23.489   3.786  0.00  0.00    -0.282 N 
ATOM      5  C   UNL     1     -37.070  22.806   2.807  0.00  0.00    +0.054 C 
ATOM      6  C   UNL     1     -36.707  21.558   2.264  0.00  0.00    +0.026 C 
ATOM      7  C   UNL     1     -38.267  23.389   2.330  0.00  0.00    +0.053 C 
ATOM      8  C   UNL     1     -37.507  20.919   1.310  0.00  0.00    +0.146 C 
ATOM      9  C   UNL     1     -38.686  21.512   0.873  0.00  0.00    +0.073 C 
ATOM     10  C   UNL     1     -39.073  22.752   1.376  0.00  0.00    +0.011 C 
ATOM     11  C   UNL     1     -36.656  24.782   4.152  0.00  0.00    +0.131 C 
ATOM     12  C   UNL     1     -38.689  24.718   2.836  0.00  0.00    +0.198 C 
ATOM     13  C   UNL     1     -37.765  25.419   3.753  0.00  0.00    +0.063 C 
ATOM     14  C   UNL     1     -39.508  20.816  -0.132  0.00  0.00    +0.202 C 
ATOM     15  C   UNL     1     -37.845  19.056  -0.095  0.00  0.00    +0.223 C 
ATOM     16  C   UNL     1     -38.998  19.511  -0.601  0.00  0.00    +0.086 C 
ENDROOT
BRANCH  11  18
ATOM     17  O   UNL     1     -34.588  25.501   5.076  0.00  0.00    -0.244 OA
ATOM     18  C   UNL     1     -35.796  25.607   5.013  0.00  0.00    +0.352 C 
BRANCH  18  19
ATOM     19  O   UNL     1     -36.560  26.479   5.700  0.00  0.00    -0.476 OA
ATOM     20  H   UNL     1     -36.278  27.366   5.806  0.00  0.00    +0.295 HD
ENDBRANCH  18  19
ENDBRANCH  11  18
BRANCH  15  22
ATOM     21  O   UNL     1     -36.931  17.559  -1.699  0.00  0.00    -0.242 OA
ATOM     22  C   UNL     1     -37.363  17.761  -0.579  0.00  0.00    +0.373 C 
BRANCH  22  23
ATOM     23  O   UNL     1     -37.473  16.842   0.404  0.00  0.00    -0.475 OA
ATOM     24  H   UNL     1     -37.084  17.002   1.241  0.00  0.00    +0.296 HD
ENDBRANCH  22  23
ENDBRANCH  15  22
BRANCH   4  25
ATOM     25  C   UNL     1     -35.158  22.759   4.355  0.00  0.00    +0.096 C 
ATOM     26  C   UNL     1     -35.495  22.275   5.752  0.00  0.00    +0.024 C 
ENDBRANCH   4  25
BRANCH   6  27
ATOM     27  C   UNL     1     -35.514  20.768   2.717  0.00  0.00    +0.031 C 
BRANCH  27  28
ATOM     28  C   UNL     1     -34.431  20.698   1.636  0.00  0.00    +0.005 C 
ATOM     29  C   UNL     1     -33.790  19.321   1.572  0.00  0.00    +0.000 C 
ENDBRANCH  27  28
ENDBRANCH   6  27
TORSDOF 7
ENDMDL
MODEL 2
REMARK VINA RESULT:      -6.5      3.071      4.544
REMARK  Name = 50294
REMARK  7 active torsions:
REMARK  status: ('A' for Active; 'I' for Inactive)
REMARK    1  A    between atoms: N_4  and  C_25
REMARK    2  A    between atoms: C_6  and  C_27
REMARK    3  A    between atoms: C_11  and  C_18
REMARK    4  A    between atoms: C_15  and  C_22
REMARK    5  A    between atoms: C_18  and  O_19
REMARK    6  A    between atoms: C_22  and  O_23
REMARK    7  A    between atoms: C_27  and  C_28
REMARK                            x       y       z     vdW  Elec       q    Type
REMARK                         _______ _______ _______ _____ _____    ______ ____
ROOT
ATOM      1  O   UNL     1     -37.575  23.335   2.499  0.00  0.00    -0.447 OA
ATOM      2  O   UNL     1     -36.516  29.524   1.442  0.00  0.00    -0.286 OA
ATOM      3  O   UNL     1     -39.886  25.907   0.340  0.00  0.00    -0.286 OA
ATOM      4  N   UNL     1     -34.342  26.802   3.562  0.00  0.00    -0.282 N 
ATOM      5  C   UNL     1     -35.538  26.361   2.927  0.00  0.00    +0.054 C 
ATOM      6  C   UNL     1     -36.010  25.036   3.000  0.00  0.00    +0.026 C 
ATOM      7  C   UNL     1     -36.309  27.276   2.173  0.00  0.00    +0.053 C 
ATOM      8  C   UNL     1     -37.197  24.650   2.368  0.00  0.00    +0.146 C 
ATOM      9  C   UNL     1     -37.940  25.577   1.645  0.00  0.00    +0.073 C 
ATOM     10  C   UNL     1     -37.501  26.895   1.539  0.00  0.00    +0.011 C 
ATOM     11  C   UNL     1     -33.882  28.091   3.311  0.00  0.00    +0.131 C 
ATOM     12  C   UNL     1     -35.851  28.679   2.029  0.00  0.00    +0.198 C 
ATOM     13  C   UNL     1     -34.536  29.026   2.608  0.00  0.00    +0.063 C 
ATOM     14  C   UNL     1     -39.186  25.142   0.990  0.00  0.00    +0.202 C 
ATOM     15  C   UNL     1     -38.743  22.937   1.886  0.00  0.00    +0.223 C 
ATOM     16  C   UNL     1     -39.552  23.722   1.163  0.00  0.00    +0.086 C 
ENDROOT
BRANCH  11  18
ATOM     17  O   UNL     1     -31.507  28.173   3.315  0.00  0.00    -0.244 OA
ATOM     18  C   UNL     1     -32.564  28.543   3.783  0.00  0.00    +0.352 C 
BRANCH  18  19
ATOM     19  O   UNL     1     -32.730  29.416   4.797  0.00  0.00    -0.476 OA
ATOM     20  H   UNL     1     -32.929  30.312   4.615  0.00  0.00    +0.295 HD
ENDBRANCH  18  19
ENDBRANCH  11  18
BRANCH  15  22
ATOM     21  O   UNL     1     -40.277  21.125   2.016  0.00  0.00    -0.242 OA
ATOM     22  C   UNL     1     -39.130  21.533   2.039  0.00  0.00    +0.373 C 
BRANCH  22  23
ATOM     23  O   UNL     1     -38.025  20.776   2.208  0.00  0.00    -0.475 OA
ATOM     24  H   UNL     1     -37.487  20.560   1.472  0.00  0.00    +0.296 HD
ENDBRANCH  22  23
ENDBRANCH  15  22
BRANCH   4  25
ATOM     25  C   UNL     1     -33.682  25.851   4.459  0.00  0.00    +0.096 C 
ATOM     26  C   UNL     1     -33.837  26.297   5.900  0.00  0.00    +0.024 C 
ENDBRANCH   4  25
BRANCH   6  27
ATOM     27  C   UNL     1     -35.357  23.963   3.822  0.00  0.00    +0.031 C 
BRANCH  27  28
ATOM     28  C   UNL     1     -36.087  23.735   5.149  0.00  0.00    +0.005 C 
ATOM     29  C   UNL     1     -35.435  22.632   5.965  0.00  0.00    +0.000 C 
ENDBRANCH  27  28
ENDBRANCH   6  27
TORSDOF 7
ENDMDL
MODEL 3
REMARK VINA RESULT:      -6.4      3.202      8.001
REMARK  Name = 50294
REMARK  7 active torsions:
REMARK  status: ('A' for Active; 'I' for Inactive)
REMARK    1  A    between atoms: N_4  and  C_25
REMARK    2  A    between atoms: C_6  and  C_27
REMARK    3  A    between atoms: C_11  and  C_18
REMARK    4  A    between atoms: C_15  and  C_22
REMARK    5  A    between atoms: C_18  and  O_19
REMARK    6  A    between atoms: C_22  and  O_23
REMARK    7  A    between atoms: C_27  and  C_28
REMARK                            x       y       z     vdW  Elec       q    Type
REMARK                         _______ _______ _______ _____ _____    ______ ____
ROOT
ATOM      1  O   UNL     1     -33.151  26.649   4.745  0.00  0.00    -0.447 OA
ATOM      2  O   UNL     1     -34.047  23.342  -0.622  0.00  0.00    -0.286 OA
ATOM      3  O   UNL     1     -31.491  27.366   1.092  0.00  0.00    -0.286 OA
ATOM      4  N   UNL     1     -35.602  22.787   3.107  0.00  0.00    -0.282 N 
ATOM      5  C   UNL     1     -34.713  23.881   2.904  0.00  0.00    +0.054 C 
ATOM      6  C   UNL     1     -34.341  24.775   3.926  0.00  0.00    +0.026 C 
ATOM      7  C   UNL     1     -34.166  24.111   1.619  0.00  0.00    +0.053 C 
ATOM      8  C   UNL     1     -33.455  25.832   3.682  0.00  0.00    +0.146 C 
ATOM      9  C   UNL     1     -32.924  26.022   2.412  0.00  0.00    +0.073 C 
ATOM     10  C   UNL     1     -33.277  25.167   1.371  0.00  0.00    +0.011 C 
ATOM     11  C   UNL     1     -36.024  22.049   2.005  0.00  0.00    +0.131 C 
ATOM     12  C   UNL     1     -34.543  23.225   0.491  0.00  0.00    +0.198 C 
ATOM     13  C   UNL     1     -35.569  22.193   0.753  0.00  0.00    +0.063 C 
ATOM     14  C   UNL     1     -31.995  27.143   2.185  0.00  0.00    +0.202 C 
ATOM     15  C   UNL     1     -32.279  27.693   4.525  0.00  0.00    +0.223 C 
ATOM     16  C   UNL     1     -31.696  27.990   3.357  0.00  0.00    +0.086 C 
ENDROOT
BRANCH  11  18
ATOM     17  O   UNL     1     -38.262  21.252   1.962  0.00  0.00    -0.244 OA
ATOM     18  C   UNL     1     -37.080  21.031   2.120  0.00  0.00    +0.352 C 
BRANCH  18  19
ATOM     19  O   UNL     1     -36.521  19.842   2.422  0.00  0.00    -0.476 OA
ATOM     20  H   UNL     1     -37.063  19.091   2.558  0.00  0.00    +0.295 HD
ENDBRANCH  18  19
ENDBRANCH  11  18
BRANCH  15  22
ATOM     21  O   UNL     1     -32.318  29.711   5.781  0.00  0.00    -0.242 OA
ATOM     22  C   UNL     1     -31.967  28.550   5.670  0.00  0.00    +0.373 C 
BRANCH  22  23
ATOM     23  O   UNL     1     -31.238  27.856   6.569  0.00  0.00    -0.475 OA
ATOM     24  H   UNL     1     -30.485  28.248   6.966  0.00  0.00    +0.296 HD
ENDBRANCH  22  23
ENDBRANCH  15  22
BRANCH   4  25
ATOM     25  C   UNL     1     -36.000  22.508   4.488  0.00  0.00    +0.096 C 
ATOM     26  C   UNL     1     -35.108  21.436   5.083  0.00  0.00    +0.024 C 
ENDBRANCH   4  25
BRANCH   6  27
ATOM     27  C   UNL     1     -34.766  24.628   5.358  0.00  0.00    +0.031 C 
BRANCH  27  28
ATOM     28  C   UNL     1     -35.839  25.650   5.744  0.00  0.00    +0.005 C 
ATOM     29  C   UNL     1     -36.783  25.936   4.588  0.00  0.00    +0.000 C 
ENDBRANCH  27  28
ENDBRANCH   6  27
TORSDOF 7
ENDMDL
MODEL 4
REMARK VINA RESULT:      -6.3      2.339      6.950
REMARK  Name = 50294
REMARK  7 active torsions:
REMARK  status: ('A' for Active; 'I' for Inactive)
REMARK    1  A    between atoms: N_4  and  C_25
REMARK    2  A    between atoms: C_6  and  C_27
REMARK    3  A    between atoms: C_11  and  C_18
REMARK    4  A    between atoms: C_15  and  C_22
REMARK    5  A    between atoms: C_18  and  O_19
REMARK    6  A    between atoms: C_22  and  O_23
REMARK    7  A    between atoms: C_27  and  C_28
REMARK                            x       y       z     vdW  Elec       q    Type
REMARK                         _______ _______ _______ _____ _____    ______ ____
ROOT
ATOM      1  O   UNL     1     -34.441  25.813   3.949  0.00  0.00    -0.447 OA
ATOM      2  O   UNL     1     -39.042  25.577  -0.446  0.00  0.00    -0.286 OA
ATOM      3  O   UNL     1     -35.825  28.881   1.650  0.00  0.00    -0.286 OA
ATOM      4  N   UNL     1     -37.522  22.640   1.940  0.00  0.00    -0.282 N 
ATOM      5  C   UNL     1     -36.986  23.953   2.063  0.00  0.00    +0.054 C 
ATOM      6  C   UNL     1     -35.954  24.285   2.962  0.00  0.00    +0.026 C 
ATOM      7  C   UNL     1     -37.499  24.999   1.261  0.00  0.00    +0.053 C 
ATOM      8  C   UNL     1     -35.450  25.589   3.042  0.00  0.00    +0.146 C 
ATOM      9  C   UNL     1     -35.966  26.591   2.230  0.00  0.00    +0.073 C 
ATOM     10  C   UNL     1     -36.996  26.306   1.336  0.00  0.00    +0.011 C 
ATOM     11  C   UNL     1     -38.638  22.441   1.131  0.00  0.00    +0.131 C 
ATOM     12  C   UNL     1     -38.608  24.723   0.316  0.00  0.00    +0.198 C 
ATOM     13  C   UNL     1     -39.197  23.367   0.340  0.00  0.00    +0.063 C 
ATOM     14  C   UNL     1     -35.416  27.954   2.336  0.00  0.00    +0.202 C 
ATOM     15  C   UNL     1     -33.930  27.090   4.041  0.00  0.00    +0.223 C 
ATOM     16  C   UNL     1     -34.333  28.145   3.321  0.00  0.00    +0.086 C 
ENDROOT
BRANCH  11  18
ATOM     17  O   UNL     1     -39.193  20.303   0.257  0.00  0.00    -0.244 OA
ATOM     18  C   UNL     1     -39.351  21.155   1.106  0.00  0.00    +0.352 C 
BRANCH  18  19
ATOM     19  O   UNL     1     -40.186  21.088   2.162  0.00  0.00    -0.476 OA
ATOM     20  H   UNL     1     -39.853  21.198   3.030  0.00  0.00    +0.295 HD
ENDBRANCH  18  19
ENDBRANCH  11  18
BRANCH  15  22
ATOM     21  O   UNL     1     -31.736  27.693   4.727  0.00  0.00    -0.242 OA
ATOM     22  C   UNL     1     -32.855  27.308   5.011  0.00  0.00    +0.373 C 
BRANCH  22  23
ATOM     23  O   UNL     1     -33.300  27.016   6.251  0.00  0.00    -0.475 OA
ATOM     24  H   UNL     1     -33.144  26.169   6.618  0.00  0.00    +0.296 HD
ENDBRANCH  22  23
ENDBRANCH  15  22
BRANCH   4  25
ATOM     25  C   UNL     1     -36.839  21.575   2.676  0.00  0.00    +0.096 C 
ATOM     26  C   UNL     1     -35.999  20.740   1.729  0.00  0.00    +0.024 C 
ENDBRANCH   4  25
BRANCH   6  27
ATOM     27  C   UNL     1     -35.246  23.282   3.826  0.00  0.00    +0.031 C 
BRANCH  27  28
ATOM     28  C   UNL     1     -35.643  23.414   5.299  0.00  0.00    +0.005 C 
ATOM     29  C   UNL     1     -35.311  22.157   6.085  0.00  0.00    +0.000 C 
ENDBRANCH  27  28
ENDBRANCH   6  27
TORSDOF 7
ENDMDL
MODEL 5
REMARK VINA RESULT:      -6.2      1.510      2.061
REMARK  Name = 50294
REMARK  7 active torsions:
REMARK  status: ('A' for Active; 'I' for Inactive)
REMARK    1  A    between atoms: N_4  and  C_25
REMARK    2  A    between atoms: C_6  and  C_27
REMARK    3  A    between atoms: C_11  and  C_18
REMARK    4  A    between atoms: C_15  and  C_22
REMARK    5  A    between atoms: C_18  and  O_19
REMARK    6  A    between atoms: C_22  and  O_23
REMARK    7  A    between atoms: C_27  and  C_28
REMARK                            x       y       z     vdW  Elec       q    Type
REMARK                         _______ _______ _______ _____ _____    ______ ____
ROOT
ATOM      1  O   UNL     1     -36.054  18.461   0.284  0.00  0.00    -0.447 OA
ATOM      2  O   UNL     1     -40.529  22.924   1.046  0.00  0.00    -0.286 OA
ATOM      3  O   UNL     1     -39.803  18.502  -1.315  0.00  0.00    -0.286 OA
ATOM      4  N   UNL     1     -36.747  22.700   2.553  0.00  0.00    -0.282 N 
ATOM      5  C   UNL     1     -37.199  21.645   1.710  0.00  0.00    +0.054 C 
ATOM      6  C   UNL     1     -36.409  20.528   1.376  0.00  0.00    +0.026 C 
ATOM      7  C   UNL     1     -38.501  21.698   1.159  0.00  0.00    +0.053 C 
ATOM      8  C   UNL     1     -36.900  19.510   0.550  0.00  0.00    +0.146 C 
ATOM      9  C   UNL     1     -38.189  19.585   0.035  0.00  0.00    +0.073 C 
ATOM     10  C   UNL     1     -38.998  20.680   0.333  0.00  0.00    +0.011 C 
ATOM     11  C   UNL     1     -37.544  23.830   2.706  0.00  0.00    +0.131 C 
ATOM     12  C   UNL     1     -39.373  22.863   1.445  0.00  0.00    +0.198 C 
ATOM     13  C   UNL     1     -38.785  23.976   2.221  0.00  0.00    +0.063 C 
ATOM     14  C   UNL     1     -38.679  18.499  -0.831  0.00  0.00    +0.202 C 
ATOM     15  C   UNL     1     -36.520  17.447  -0.526  0.00  0.00    +0.223 C 
ATOM     16  C   UNL     1     -37.735  17.392  -1.085  0.00  0.00    +0.086 C 
ENDROOT
BRANCH  11  18
ATOM     17  O   UNL     1     -36.274  25.825   2.936  0.00  0.00    -0.244 OA
ATOM     18  C   UNL     1     -37.056  25.026   3.409  0.00  0.00    +0.352 C 
BRANCH  18  19
ATOM     19  O   UNL     1     -37.614  25.081   4.634  0.00  0.00    -0.476 OA
ATOM     20  H   UNL     1     -37.408  24.429   5.272  0.00  0.00    +0.295 HD
ENDBRANCH  18  19
ENDBRANCH  11  18
BRANCH  15  22
ATOM     21  O   UNL     1     -34.866  16.268  -1.762  0.00  0.00    -0.242 OA
ATOM     22  C   UNL     1     -35.604  16.337  -0.795  0.00  0.00    +0.373 C 
BRANCH  22  23
ATOM     23  O   UNL     1     -35.708  15.416   0.186  0.00  0.00    -0.475 OA
ATOM     24  H   UNL     1     -36.475  14.882   0.248  0.00  0.00    +0.296 HD
ENDBRANCH  22  23
ENDBRANCH  15  22
BRANCH   4  25
ATOM     25  C   UNL     1     -35.458  22.504   3.220  0.00  0.00    +0.096 C 
ATOM     26  C   UNL     1     -35.670  22.196   4.689  0.00  0.00    +0.024 C 
ENDBRANCH   4  25
BRANCH   6  27
ATOM     27  C   UNL     1     -35.039  20.279   1.937  0.00  0.00    +0.031 C 
BRANCH  27  28
ATOM     28  C   UNL     1     -33.945  20.472   0.883  0.00  0.00    +0.005 C 
ATOM     29  C   UNL     1     -32.917  19.355   0.930  0.00  0.00    +0.000 C 
ENDBRANCH  27  28
ENDBRANCH   6  27
TORSDOF 7
ENDMDL
MODEL 6
REMARK VINA RESULT:      -6.1      3.377      8.115
REMARK  Name = 50294
REMARK  7 active torsions:
REMARK  status: ('A' for Active; 'I' for Inactive)
REMARK    1  A    between atoms: N_4  and  C_25
REMARK    2  A    between atoms: C_6  and  C_27
REMARK    3  A    between atoms: C_11  and  C_18
REMARK    4  A    between atoms: C_15  and  C_22
REMARK    5  A    between atoms: C_18  and  O_19
REMARK    6  A    between atoms: C_22  and  O_23
REMARK    7  A    between atoms: C_27  and  C_28
REMARK                            x       y       z     vdW  Elec       q    Type
REMARK                         _______ _______ _______ _____ _____    ______ ____
ROOT
ATOM      1  O   UNL     1     -33.052  27.263   2.989  0.00  0.00    -0.447 OA
ATOM      2  O   UNL     1     -35.355  22.507   6.541  0.00  0.00    -0.286 OA
ATOM      3  O   UNL     1     -33.117  27.022   7.058  0.00  0.00    -0.286 OA
ATOM      4  N   UNL     1     -35.201  22.935   2.488  0.00  0.00    -0.282 N 
ATOM      5  C   UNL     1     -34.666  23.978   3.297  0.00  0.00    +0.054 C 
ATOM      6  C   UNL     1     -34.093  25.151   2.767  0.00  0.00    +0.026 C 
ATOM      7  C   UNL     1     -34.691  23.856   4.706  0.00  0.00    +0.053 C 
ATOM      8  C   UNL     1     -33.589  26.156   3.601  0.00  0.00    +0.146 C 
ATOM      9  C   UNL     1     -33.641  26.012   4.983  0.00  0.00    +0.073 C 
ATOM     10  C   UNL     1     -34.189  24.861   5.546  0.00  0.00    +0.011 C 
ATOM     11  C   UNL     1     -35.610  21.753   3.099  0.00  0.00    +0.131 C 
ATOM     12  C   UNL     1     -35.251  22.632   5.327  0.00  0.00    +0.198 C 
ATOM     13  C   UNL     1     -35.666  21.541   4.420  0.00  0.00    +0.063 C 
ATOM     14  C   UNL     1     -33.102  27.086   5.835  0.00  0.00    +0.202 C 
ATOM     15  C   UNL     1     -32.552  28.264   3.794  0.00  0.00    +0.223 C 
ATOM     16  C   UNL     1     -32.539  28.256   5.133  0.00  0.00    +0.086 C 
ENDROOT
BRANCH  11  18
ATOM     17  O   UNL     1     -35.210  19.857   1.723  0.00  0.00    -0.244 OA
ATOM     18  C   UNL     1     -35.995  20.573   2.309  0.00  0.00    +0.352 C 
BRANCH  18  19
ATOM     19  O   UNL     1     -37.334  20.429   2.349  0.00  0.00    -0.476 OA
ATOM     20  H   UNL     1     -37.854  21.018   2.859  0.00  0.00    +0.295 HD
ENDBRANCH  18  19
ENDBRANCH  11  18
BRANCH  15  22
ATOM     21  O   UNL     1     -32.047  30.575   3.552  0.00  0.00    -0.242 OA
ATOM     22  C   UNL     1     -31.987  29.436   3.123  0.00  0.00    +0.373 C 
BRANCH  22  23
ATOM     23  O   UNL     1     -31.396  29.057   1.970  0.00  0.00    -0.475 OA
ATOM     24  H   UNL     1     -30.928  28.246   1.928  0.00  0.00    +0.296 HD
ENDBRANCH  22  23
ENDBRANCH  15  22
BRANCH   4  25
ATOM     25  C   UNL     1     -35.293  23.195   1.051  0.00  0.00    +0.096 C 
ATOM     26  C   UNL     1     -36.731  23.483   0.663  0.00  0.00    +0.024 C 
ENDBRANCH   4  25
BRANCH   6  27
ATOM     27  C   UNL     1     -34.060  25.474   1.302  0.00  0.00    +0.031 C 
BRANCH  27  28
ATOM     28  C   UNL     1     -32.704  25.138   0.673  0.00  0.00    +0.005 C 
ATOM     29  C   UNL     1     -32.225  26.245  -0.251  0.00  0.00    +0.000 C 
ENDBRANCH  27  28
ENDBRANCH   6  27
TORSDOF 7
ENDMDL
MODEL 7
REMARK VINA RESULT:      -6.0      3.796      7.959
REMARK  Name = 50294
REMARK  7 active torsions:
REMARK  status: ('A' for Active; 'I' for Inactive)
REMARK    1  A    between atoms: N_4  and  C_25
REMARK    2  A    between atoms: C_6  and  C_27
REMARK    3  A    between atoms: C_11  and  C_18
REMARK    4  A    between atoms: C_15  and  C_22
REMARK    5  A    between atoms: C_18  and  O_19
REMARK    6  A    between atoms: C_22  and  O_23
REMARK    7  A    between atoms: C_27  and  C_28
REMARK                            x       y       z     vdW  Elec       q    Type
REMARK                         _______ _______ _______ _____ _____    ______ ____
ROOT
ATOM      1  O   UNL     1     -33.801  27.024   5.075  0.00  0.00    -0.447 OA
ATOM      2  O   UNL     1     -36.996  28.360  -0.268  0.00  0.00    -0.286 OA
ATOM      3  O   UNL     1     -32.868  29.833   2.272  0.00  0.00    -0.286 OA
ATOM      4  N   UNL     1     -37.758  25.606   2.641  0.00  0.00    -0.282 N 
ATOM      5  C   UNL     1     -36.612  26.438   2.785  0.00  0.00    +0.054 C 
ATOM      6  C   UNL     1     -35.727  26.352   3.877  0.00  0.00    +0.026 C 
ATOM      7  C   UNL     1     -36.325  27.413   1.801  0.00  0.00    +0.053 C 
ATOM      8  C   UNL     1     -34.605  27.185   3.972  0.00  0.00    +0.146 C 
ATOM      9  C   UNL     1     -34.344  28.124   2.981  0.00  0.00    +0.073 C 
ATOM     10  C   UNL     1     -35.202  28.248   1.891  0.00  0.00    +0.011 C 
ATOM     11  C   UNL     1     -38.652  25.864   1.605  0.00  0.00    +0.131 C 
ATOM     12  C   UNL     1     -37.235  27.577   0.642  0.00  0.00    +0.198 C 
ATOM     13  C   UNL     1     -38.472  26.766   0.631  0.00  0.00    +0.063 C 
ATOM     14  C   UNL     1     -33.156  28.987   3.108  0.00  0.00    +0.202 C 
ATOM     15  C   UNL     1     -32.690  27.833   5.185  0.00  0.00    +0.223 C 
ATOM     16  C   UNL     1     -32.321  28.774   4.307  0.00  0.00    +0.086 C 
ENDROOT
BRANCH  11  18
ATOM     17  O   UNL     1     -40.143  24.189   0.819  0.00  0.00    -0.244 OA
ATOM     18  C   UNL     1     -39.943  25.166   1.511  0.00  0.00    +0.352 C 
BRANCH  18  19
ATOM     19  O   UNL     1     -40.841  25.781   2.306  0.00  0.00    -0.476 OA
ATOM     20  H   UNL     1     -40.686  26.658   2.595  0.00  0.00    +0.295 HD
ENDBRANCH  18  19
ENDBRANCH  11  18
BRANCH  15  22
ATOM     21  O   UNL     1     -30.629  27.724   6.365  0.00  0.00    -0.242 OA
ATOM     22  C   UNL     1     -31.845  27.644   6.365  0.00  0.00    +0.373 C 
BRANCH  22  23
ATOM     23  O   UNL     1     -32.618  27.371   7.437  0.00  0.00    -0.475 OA
ATOM     24  H   UNL     1     -33.249  27.998   7.731  0.00  0.00    +0.296 HD
ENDBRANCH  22  23
ENDBRANCH  15  22
BRANCH   4  25
ATOM     25  C   UNL     1     -37.906  24.512   3.603  0.00  0.00    +0.096 C 
ATOM     26  C   UNL     1     -37.631  23.182   2.929  0.00  0.00    +0.024 C 
ENDBRANCH   4  25
BRANCH   6  27
ATOM     27  C   UNL     1     -35.840  25.323   4.963  0.00  0.00    +0.031 C 
BRANCH  27  28
ATOM     28  C   UNL     1     -34.724  24.277   4.880  0.00  0.00    +0.005 C 
ATOM     29  C   UNL     1     -35.063  23.030   5.679  0.00  0.00    +0.000 C 
ENDBRANCH  27  28
ENDBRANCH   6  27
TORSDOF 7
ENDMDL
MODEL 8
REMARK VINA RESULT:      -5.9      3.550      5.934
REMARK  Name = 50294
REMARK  7 active torsions:
REMARK  status: ('A' for Active; 'I' for Inactive)
REMARK    1  A    between atoms: N_4  and  C_25
REMARK    2  A    between atoms: C_6  and  C_27
REMARK    3  A    between atoms: C_11  and  C_18
REMARK    4  A    between atoms: C_15  and  C_22
REMARK    5  A    between atoms: C_18  and  O_19
REMARK    6  A    between atoms: C_22  and  O_23
REMARK    7  A    between atoms: C_27  and  C_28
REMARK                            x       y       z     vdW  Elec       q    Type
REMARK                         _______ _______ _______ _____ _____    ______ ____
ROOT
ATOM      1  O   UNL     1     -35.318  23.148   2.423  0.00  0.00    -0.447 OA
ATOM      2  O   UNL     1     -33.004  26.827   7.075  0.00  0.00    -0.286 OA
ATOM      3  O   UNL     1     -35.393  22.407   6.430  0.00  0.00    -0.286 OA
ATOM      4  N   UNL     1     -33.023  27.386   3.036  0.00  0.00    -0.282 N 
ATOM      5  C   UNL     1     -33.618  26.201   3.555  0.00  0.00    +0.054 C 
ATOM      6  C   UNL     1     -34.206  25.211   2.744  0.00  0.00    +0.026 C 
ATOM      7  C   UNL     1     -33.641  25.982   4.952  0.00  0.00    +0.053 C 
ATOM      8  C   UNL     1     -34.771  24.056   3.297  0.00  0.00    +0.146 C 
ATOM      9  C   UNL     1     -34.765  23.864   4.674  0.00  0.00    +0.073 C 
ATOM     10  C   UNL     1     -34.203  24.825   5.512  0.00  0.00    +0.011 C 
ATOM     11  C   UNL     1     -32.601  28.372   3.923  0.00  0.00    +0.131 C 
ATOM     12  C   UNL     1     -33.068  27.000   5.865  0.00  0.00    +0.198 C 
ATOM     13  C   UNL     1     -32.587  28.260   5.258  0.00  0.00    +0.063 C 
ATOM     14  C   UNL     1     -35.366  22.639   5.229  0.00  0.00    +0.202 C 
ATOM     15  C   UNL     1     -35.876  22.003   2.949  0.00  0.00    +0.223 C 
ATOM     16  C   UNL     1     -35.937  21.692   4.250  0.00  0.00    +0.086 C 
ENDROOT
BRANCH  11  18
ATOM     17  O   UNL     1     -30.996  29.978   3.225  0.00  0.00    -0.244 OA
ATOM     18  C   UNL     1     -32.153  29.691   3.451  0.00  0.00    +0.352 C 
BRANCH  18  19
ATOM     19  O   UNL     1     -33.220  30.502   3.316  0.00  0.00    -0.476 OA
ATOM     20  H   UNL     1     -34.005  30.327   3.796  0.00  0.00    +0.295 HD
ENDBRANCH  18  19
ENDBRANCH  11  18
BRANCH  15  22
ATOM     21  O   UNL     1     -36.678  21.288   0.829  0.00  0.00    -0.242 OA
ATOM     22  C   UNL     1     -36.452  21.048   2.001  0.00  0.00    +0.373 C 
BRANCH  22  23
ATOM     23  O   UNL     1     -36.687  19.875   2.627  0.00  0.00    -0.475 OA
ATOM     24  H   UNL     1     -36.662  19.073   2.144  0.00  0.00    +0.296 HD
ENDBRANCH  22  23
ENDBRANCH  15  22
BRANCH   4  25
ATOM     25  C   UNL     1     -32.886  27.474   1.581  0.00  0.00    +0.096 C 
ATOM     26  C   UNL     1     -31.457  27.179   1.172  0.00  0.00    +0.024 C 
ENDBRANCH   4  25
BRANCH   6  27
ATOM     27  C   UNL     1     -34.196  25.250   1.243  0.00  0.00    +0.031 C 
BRANCH  27  28
ATOM     28  C   UNL     1     -35.607  25.397   0.665  0.00  0.00    +0.005 C 
ATOM     29  C   UNL     1     -36.339  26.584   1.269  0.00  0.00    +0.000 C 
ENDBRANCH  27  28
ENDBRANCH   6  27
TORSDOF 7
ENDMDL
MODEL 9
REMARK VINA RESULT:      -5.9      3.844      6.759
REMARK  Name = 50294
REMARK  7 active torsions:
REMARK  status: ('A' for Active; 'I' for Inactive)
REMARK    1  A    between atoms: N_4  and  C_25
REMARK    2  A    between atoms: C_6  and  C_27
REMARK    3  A    between atoms: C_11  and  C_18
REMARK    4  A    between atoms: C_15  and  C_22
REMARK    5  A    between atoms: C_18  and  O_19
REMARK    6  A    between atoms: C_22  and  O_23
REMARK    7  A    between atoms: C_27  and  C_28
REMARK                            x       y       z     vdW  Elec       q    Type
REMARK                         _______ _______ _______ _____ _____    ______ ____
ROOT
ATOM      1  O   UNL     1     -36.131  23.817   3.744  0.00  0.00    -0.447 OA
ATOM      2  O   UNL     1     -34.721  29.846   2.261  0.00  0.00    -0.286 OA
ATOM      3  O   UNL     1     -33.268  26.174   5.434  0.00  0.00    -0.286 OA
ATOM      4  N   UNL     1     -37.526  27.334   0.696  0.00  0.00    -0.282 N 
ATOM      5  C   UNL     1     -36.700  26.848   1.750  0.00  0.00    +0.054 C 
ATOM      6  C   UNL     1     -36.799  25.544   2.273  0.00  0.00    +0.026 C 
ATOM      7  C   UNL     1     -35.726  27.698   2.325  0.00  0.00    +0.053 C 
ATOM      8  C   UNL     1     -35.958  25.107   3.303  0.00  0.00    +0.146 C 
ATOM      9  C   UNL     1     -35.001  25.962   3.837  0.00  0.00    +0.073 C 
ATOM     10  C   UNL     1     -34.879  27.263   3.355  0.00  0.00    +0.011 C 
ATOM     11  C   UNL     1     -37.453  28.679   0.349  0.00  0.00    +0.131 C 
ATOM     12  C   UNL     1     -35.591  29.093   1.842  0.00  0.00    +0.198 C 
ATOM     13  C   UNL     1     -36.571  29.561   0.838  0.00  0.00    +0.063 C 
ATOM     14  C   UNL     1     -34.130  25.474   4.920  0.00  0.00    +0.202 C 
ATOM     15  C   UNL     1     -35.311  23.367   4.756  0.00  0.00    +0.223 C 
ATOM     16  C   UNL     1     -34.351  24.081   5.357  0.00  0.00    +0.086 C 
ENDROOT
BRANCH  11  18
ATOM     17  O   UNL     1     -38.193  29.426  -1.782  0.00  0.00    -0.244 OA
ATOM     18  C   UNL     1     -38.406  29.282  -0.596  0.00  0.00    +0.352 C 
BRANCH  18  19
ATOM     19  O   UNL     1     -39.525  29.636   0.065  0.00  0.00    -0.476 OA
ATOM     20  H   UNL     1     -39.491  29.810   0.984  0.00  0.00    +0.295 HD
ENDBRANCH  18  19
ENDBRANCH  11  18
BRANCH  15  22
ATOM     21  O   UNL     1     -35.149  21.001   4.596  0.00  0.00    -0.242 OA
ATOM     22  C   UNL     1     -35.509  21.989   5.210  0.00  0.00    +0.373 C 
BRANCH  22  23
ATOM     23  O   UNL     1     -36.146  21.993   6.400  0.00  0.00    -0.475 OA
ATOM     24  H   UNL     1     -36.576  22.769   6.699  0.00  0.00    +0.296 HD
ENDBRANCH  22  23
ENDBRANCH  15  22
BRANCH   4  25
ATOM     25  C   UNL     1     -38.397  26.358   0.037  0.00  0.00    +0.096 C 
ATOM     26  C   UNL     1     -37.817  25.965  -1.308  0.00  0.00    +0.024 C 
ENDBRANCH   4  25
BRANCH   6  27
ATOM     27  C   UNL     1     -37.722  24.495   1.725  0.00  0.00    +0.031 C 
BRANCH  27  28
ATOM     28  C   UNL     1     -38.938  24.273   2.629  0.00  0.00    +0.005 C 
ATOM     29  C   UNL     1     -39.720  23.035   2.224  0.00  0.00    +0.000 C 
ENDBRANCH  27  28
ENDBRANCH   6  27
TORSDOF 7
ENDMDL
