MODEL 1
REMARK VINA RESULT:      -6.1      0.000      0.000
REMARK  Name = 57486087
REMARK  9 active torsions:
REMARK  status: ('A' for Active; 'I' for Inactive)
REMARK    1  A    between atoms: C_7  and  C_26
REMARK    2  A    between atoms: C_7  and  O_30
REMARK    3  A    between atoms: C_11  and  O_23
REMARK    4  A    between atoms: C_26  and  C_27
REMARK    5  A    between atoms: C_27  and  O_28
REMARK    6  A    between atoms: O_30  and  C_32
REMARK    7  A    between atoms: C_32  and  C_33
REMARK    8  A    between atoms: C_33  and  C_34
REMARK    9  A    between atoms: C_34  and  C_35
REMARK                            x       y       z     vdW  Elec       q    Type
REMARK                         _______ _______ _______ _____ _____    ______ ____
ROOT
ATOM      1  F   UNL     1     -33.241  26.761   3.841  0.00  0.00    -0.237 F 
ATOM      2  O   UNL     1     -29.727  29.856   5.279  0.00  0.00    -0.287 OA
ATOM      3  C   UNL     1     -35.525  25.274   1.581  0.00  0.00    +0.043 C 
ATOM      4  C   UNL     1     -34.019  24.974   1.745  0.00  0.00    +0.007 C 
ATOM      5  C   UNL     1     -33.133  26.213   1.546  0.00  0.00    +0.033 C 
ATOM      6  C   UNL     1     -33.513  27.313   2.604  0.00  0.00    +0.164 C 
ATOM      7  C   UNL     1     -36.092  23.837   1.752  0.00  0.00    +0.188 C 
ATOM      8  C   UNL     1     -33.788  23.759   0.847  0.00  0.00    +0.004 C 
ATOM      9  C   UNL     1     -35.903  26.290   2.668  0.00  0.00    +0.036 C 
ATOM     10  C   UNL     1     -35.116  22.959   0.914  0.00  0.00    +0.044 C 
ATOM     11  C   UNL     1     -35.053  27.575   2.593  0.00  0.00    +0.141 C 
ATOM     12  C   UNL     1     -32.584  28.589   2.473  0.00  0.00    +0.064 C 
ATOM     13  C   UNL     1     -31.645  25.836   1.639  0.00  0.00    +0.007 C 
ATOM     14  C   UNL     1     -35.892  25.846   0.184  0.00  0.00    +0.004 C 
ATOM     15  C   UNL     1     -30.746  27.056   1.491  0.00  0.00    +0.023 C 
ATOM     16  C   UNL     1     -31.126  28.106   2.503  0.00  0.00    -0.035 C 
ATOM     17  C   UNL     1     -34.907  21.543   1.443  0.00  0.00    +0.004 C 
ATOM     18  C   UNL     1     -32.838  29.352   1.151  0.00  0.00    +0.011 C 
ATOM     19  C   UNL     1     -32.833  29.606   3.579  0.00  0.00    -0.017 C 
ATOM     20  C   UNL     1     -30.217  28.519   3.401  0.00  0.00    +0.034 C 
ATOM     21  C   UNL     1     -31.935  30.019   4.477  0.00  0.00    +0.038 C 
ATOM     22  C   UNL     1     -30.560  29.494   4.454  0.00  0.00    +0.195 C 
ENDROOT
BRANCH  11  23
ATOM     23  O   UNL     1     -35.432  28.373   3.711  0.00  0.00    -0.382 OA
ATOM     24  H   UNL     1     -36.258  28.032   4.087  0.00  0.00    +0.210 HD
ENDBRANCH  11  23
BRANCH   7  26
ATOM     25  O   UNL     1     -38.209  24.653   1.028  0.00  0.00    -0.290 OA
ATOM     26  C   UNL     1     -37.514  23.678   1.306  0.00  0.00    +0.216 C 
BRANCH  26  27
ATOM     27  C   UNL     1     -38.034  22.259   1.222  0.00  0.00    +0.206 C 
BRANCH  27  28
ATOM     28  O   UNL     1     -38.488  21.818   2.483  0.00  0.00    -0.375 OA
ATOM     29  H   UNL     1     -38.144  22.405   3.175  0.00  0.00    +0.211 HD
ENDBRANCH  27  28
ENDBRANCH  26  27
ENDBRANCH   7  26
BRANCH   7  30
ATOM     30  O   UNL     1     -36.160  23.436   3.115  0.00  0.00    -0.449 OA
BRANCH  30  32
ATOM     31  O   UNL     1     -38.064  24.545   3.797  0.00  0.00    -0.250 OA
ATOM     32  C   UNL     1     -36.886  24.253   3.941  0.00  0.00    +0.317 C 
BRANCH  32  33
ATOM     33  C   UNL     1     -35.997  24.738   5.065  0.00  0.00    +0.110 C 
BRANCH  33  34
ATOM     34  C   UNL     1     -34.807  23.808   5.294  0.00  0.00    +0.012 C 
BRANCH  34  35
ATOM     35  C   UNL     1     -35.154  22.696   6.284  0.00  0.00    +0.001 C 
ATOM     36  C   UNL     1     -35.113  21.329   5.621  0.00  0.00    +0.000 C 
ENDBRANCH  34  35
ENDBRANCH  33  34
ENDBRANCH  32  33
ENDBRANCH  30  32
ENDBRANCH   7  30
TORSDOF 9
ENDMDL
MODEL 2
REMARK VINA RESULT:      -6.1      3.164      5.529
REMARK  Name = 57486087
REMARK  9 active torsions:
REMARK  status: ('A' for Active; 'I' for Inactive)
REMARK    1  A    between atoms: C_7  and  C_26
REMARK    2  A    between atoms: C_7  and  O_30
REMARK    3  A    between atoms: C_11  and  O_23
REMARK    4  A    between atoms: C_26  and  C_27
REMARK    5  A    between atoms: C_27  and  O_28
REMARK    6  A    between atoms: O_30  and  C_32
REMARK    7  A    between atoms: C_32  and  C_33
REMARK    8  A    between atoms: C_33  and  C_34
REMARK    9  A    between atoms: C_34  and  C_35
REMARK                            x       y       z     vdW  Elec       q    Type
REMARK                         _______ _______ _______ _____ _____    ______ ____
ROOT
ATOM      1  F   UNL     1     -34.448  23.336   2.860  0.00  0.00    -0.237 F 
ATOM      2  O   UNL     1     -33.202  26.982   5.884  0.00  0.00    -0.287 OA
ATOM      3  C   UNL     1     -36.580  21.475   0.732  0.00  0.00    +0.043 C 
ATOM      4  C   UNL     1     -35.766  22.742   0.390  0.00  0.00    +0.007 C 
ATOM      5  C   UNL     1     -36.107  23.939   1.290  0.00  0.00    +0.033 C 
ATOM      6  C   UNL     1     -35.807  23.576   2.791  0.00  0.00    +0.164 C 
ATOM      7  C   UNL     1     -36.065  20.529  -0.389  0.00  0.00    +0.188 C 
ATOM      8  C   UNL     1     -35.941  22.892  -1.121  0.00  0.00    +0.004 C 
ATOM      9  C   UNL     1     -36.221  21.084   2.172  0.00  0.00    +0.036 C 
ATOM     10  C   UNL     1     -36.051  21.438  -1.653  0.00  0.00    +0.044 C 
ATOM     11  C   UNL     1     -36.491  22.225   3.175  0.00  0.00    +0.141 C 
ATOM     12  C   UNL     1     -36.091  24.804   3.751  0.00  0.00    +0.064 C 
ATOM     13  C   UNL     1     -35.328  25.189   0.849  0.00  0.00    +0.007 C 
ATOM     14  C   UNL     1     -38.116  21.678   0.616  0.00  0.00    +0.004 C 
ATOM     15  C   UNL     1     -35.614  26.378   1.756  0.00  0.00    +0.023 C 
ATOM     16  C   UNL     1     -35.333  26.016   3.191  0.00  0.00    -0.035 C 
ATOM     17  C   UNL     1     -34.958  21.114  -2.668  0.00  0.00    +0.004 C 
ATOM     18  C   UNL     1     -37.599  25.139   3.826  0.00  0.00    +0.011 C 
ATOM     19  C   UNL     1     -35.669  24.527   5.188  0.00  0.00    -0.017 C 
ATOM     20  C   UNL     1     -34.412  26.710   3.881  0.00  0.00    +0.034 C 
ATOM     21  C   UNL     1     -34.753  25.211   5.880  0.00  0.00    +0.038 C 
ATOM     22  C   UNL     1     -34.052  26.351   5.266  0.00  0.00    +0.195 C 
ENDROOT
BRANCH  11  23
ATOM     23  O   UNL     1     -36.017  21.768   4.440  0.00  0.00    -0.382 OA
ATOM     24  H   UNL     1     -35.744  20.840   4.368  0.00  0.00    +0.210 HD
ENDBRANCH  11  23
BRANCH   7  26
ATOM     25  O   UNL     1     -36.989  18.440   0.285  0.00  0.00    -0.290 OA
ATOM     26  C   UNL     1     -36.898  19.300  -0.590  0.00  0.00    +0.216 C 
BRANCH  26  27
ATOM     27  C   UNL     1     -37.610  19.184  -1.920  0.00  0.00    +0.206 C 
BRANCH  27  28
ATOM     28  O   UNL     1     -37.412  17.905  -2.482  0.00  0.00    -0.375 OA
ATOM     29  H   UNL     1     -37.992  17.264  -2.042  0.00  0.00    +0.211 HD
ENDBRANCH  27  28
ENDBRANCH  26  27
ENDBRANCH   7  26
BRANCH   7  30
ATOM     30  O   UNL     1     -34.787  19.979  -0.092  0.00  0.00    -0.449 OA
BRANCH  30  32
ATOM     31  O   UNL     1     -34.633  18.498  -1.854  0.00  0.00    -0.250 OA
ATOM     32  C   UNL     1     -34.512  18.767  -0.667  0.00  0.00    +0.317 C 
BRANCH  32  33
ATOM     33  C   UNL     1     -34.033  17.809   0.400  0.00  0.00    +0.110 C 
BRANCH  33  34
ATOM     34  C   UNL     1     -33.043  18.469   1.358  0.00  0.00    +0.012 C 
BRANCH  34  35
ATOM     35  C   UNL     1     -31.601  18.271   0.890  0.00  0.00    +0.001 C 
ATOM     36  C   UNL     1     -31.081  19.497   0.156  0.00  0.00    +0.000 C 
ENDBRANCH  34  35
ENDBRANCH  33  34
ENDBRANCH  32  33
ENDBRANCH  30  32
ENDBRANCH   7  30
TORSDOF 9
ENDMDL
MODEL 3
REMARK VINA RESULT:      -6.0      3.730      6.650
REMARK  Name = 57486087
REMARK  9 active torsions:
REMARK  status: ('A' for Active; 'I' for Inactive)
REMARK    1  A    between atoms: C_7  and  C_26
REMARK    2  A    between atoms: C_7  and  O_30
REMARK    3  A    between atoms: C_11  and  O_23
REMARK    4  A    between atoms: C_26  and  C_27
REMARK    5  A    between atoms: C_27  and  O_28
REMARK    6  A    between atoms: O_30  and  C_32
REMARK    7  A    between atoms: C_32  and  C_33
REMARK    8  A    between atoms: C_33  and  C_34
REMARK    9  A    between atoms: C_34  and  C_35
REMARK                            x       y       z     vdW  Elec       q    Type
REMARK                         _______ _______ _______ _____ _____    ______ ____
ROOT
ATOM      1  F   UNL     1     -34.303  21.181   1.603  0.00  0.00    -0.237 F 
ATOM      2  O   UNL     1     -31.177  17.412   1.525  0.00  0.00    -0.287 OA
ATOM      3  C   UNL     1     -36.706  23.427   0.292  0.00  0.00    +0.043 C 
ATOM      4  C   UNL     1     -36.937  22.004   0.845  0.00  0.00    +0.007 C 
ATOM      5  C   UNL     1     -36.118  20.932   0.111  0.00  0.00    +0.033 C 
ATOM      6  C   UNL     1     -34.584  21.249   0.251  0.00  0.00    +0.164 C 
ATOM      7  C   UNL     1     -37.721  24.211   1.171  0.00  0.00    +0.188 C 
ATOM      8  C   UNL     1     -38.460  21.866   0.874  0.00  0.00    +0.004 C 
ATOM      9  C   UNL     1     -35.222  23.757   0.505  0.00  0.00    +0.036 C 
ATOM     10  C   UNL     1     -38.981  23.297   1.174  0.00  0.00    +0.044 C 
ATOM     11  C   UNL     1     -34.289  22.726  -0.163  0.00  0.00    +0.141 C 
ATOM     12  C   UNL     1     -33.696  20.136  -0.443  0.00  0.00    +0.064 C 
ATOM     13  C   UNL     1     -36.452  19.531   0.649  0.00  0.00    +0.007 C 
ATOM     14  C   UNL     1     -37.060  23.570  -1.214  0.00  0.00    +0.004 C 
ATOM     15  C   UNL     1     -35.617  18.454  -0.031  0.00  0.00    +0.023 C 
ATOM     16  C   UNL     1     -34.151  18.774   0.101  0.00  0.00    -0.035 C 
ATOM     17  C   UNL     1     -39.811  23.348   2.454  0.00  0.00    +0.004 C 
ATOM     18  C   UNL     1     -33.859  20.147  -1.981  0.00  0.00    +0.011 C 
ATOM     19  C   UNL     1     -32.207  20.341  -0.194  0.00  0.00    -0.017 C 
ATOM     20  C   UNL     1     -33.338  17.906   0.727  0.00  0.00    +0.034 C 
ATOM     21  C   UNL     1     -31.394  19.484   0.429  0.00  0.00    +0.038 C 
ATOM     22  C   UNL     1     -31.909  18.204   0.942  0.00  0.00    +0.195 C 
ENDROOT
BRANCH  11  23
ATOM     23  O   UNL     1     -32.960  23.092   0.201  0.00  0.00    -0.382 OA
ATOM     24  H   UNL     1     -32.944  24.022   0.475  0.00  0.00    +0.210 HD
ENDBRANCH  11  23
BRANCH   7  26
ATOM     25  O   UNL     1     -37.380  26.103  -0.236  0.00  0.00    -0.290 OA
ATOM     26  C   UNL     1     -38.030  25.591   0.675  0.00  0.00    +0.216 C 
BRANCH  26  27
ATOM     27  C   UNL     1     -39.177  26.306   1.356  0.00  0.00    +0.206 C 
BRANCH  27  28
ATOM     28  O   UNL     1     -38.812  26.706   2.659  0.00  0.00    -0.375 OA
ATOM     29  H   UNL     1     -39.257  26.139   3.309  0.00  0.00    +0.211 HD
ENDBRANCH  27  28
ENDBRANCH  26  27
ENDBRANCH   7  26
BRANCH   7  30
ATOM     30  O   UNL     1     -37.224  24.468   2.479  0.00  0.00    -0.449 OA
BRANCH  30  32
ATOM     31  O   UNL     1     -35.783  26.228   2.097  0.00  0.00    -0.250 OA
ATOM     32  C   UNL     1     -36.018  25.114   2.542  0.00  0.00    +0.317 C 
BRANCH  32  33
ATOM     33  C   UNL     1     -35.018  24.229   3.252  0.00  0.00    +0.110 C 
BRANCH  33  34
ATOM     34  C   UNL     1     -35.702  23.191   4.139  0.00  0.00    +0.012 C 
BRANCH  34  35
ATOM     35  C   UNL     1     -35.314  23.371   5.607  0.00  0.00    +0.001 C 
ATOM     36  C   UNL     1     -35.367  22.052   6.362  0.00  0.00    +0.000 C 
ENDBRANCH  34  35
ENDBRANCH  33  34
ENDBRANCH  32  33
ENDBRANCH  30  32
ENDBRANCH   7  30
TORSDOF 9
ENDMDL
MODEL 4
REMARK VINA RESULT:      -6.0      3.227      6.921
REMARK  Name = 57486087
REMARK  9 active torsions:
REMARK  status: ('A' for Active; 'I' for Inactive)
REMARK    1  A    between atoms: C_7  and  C_26
REMARK    2  A    between atoms: C_7  and  O_30
REMARK    3  A    between atoms: C_11  and  O_23
REMARK    4  A    between atoms: C_26  and  C_27
REMARK    5  A    between atoms: C_27  and  O_28
REMARK    6  A    between atoms: O_30  and  C_32
REMARK    7  A    between atoms: C_32  and  C_33
REMARK    8  A    between atoms: C_33  and  C_34
REMARK    9  A    between atoms: C_34  and  C_35
REMARK                            x       y       z     vdW  Elec       q    Type
REMARK                         _______ _______ _______ _____ _____    ______ ____
ROOT
ATOM      1  F   UNL     1     -33.536  21.087   1.494  0.00  0.00    -0.237 F 
ATOM      2  O   UNL     1     -32.130  16.482   0.595  0.00  0.00    -0.287 OA
ATOM      3  C   UNL     1     -35.240  24.131   0.894  0.00  0.00    +0.043 C 
ATOM      4  C   UNL     1     -35.799  22.838   1.527  0.00  0.00    +0.007 C 
ATOM      5  C   UNL     1     -35.663  21.612   0.612  0.00  0.00    +0.033 C 
ATOM      6  C   UNL     1     -34.146  21.360   0.284  0.00  0.00    +0.164 C 
ATOM      7  C   UNL     1     -35.611  25.145   2.012  0.00  0.00    +0.188 C 
ATOM      8  C   UNL     1     -37.193  23.240   2.008  0.00  0.00    +0.004 C 
ATOM      9  C   UNL     1     -33.742  23.903   0.650  0.00  0.00    +0.036 C 
ATOM     10  C   UNL     1     -37.059  24.732   2.411  0.00  0.00    +0.044 C 
ATOM     11  C   UNL     1     -33.473  22.669  -0.237  0.00  0.00    +0.141 C 
ATOM     12  C   UNL     1     -33.953  20.068  -0.612  0.00  0.00    +0.064 C 
ATOM     13  C   UNL     1     -36.310  20.377   1.261  0.00  0.00    +0.007 C 
ATOM     14  C   UNL     1     -35.933  24.513  -0.445  0.00  0.00    +0.004 C 
ATOM     15  C   UNL     1     -36.147  19.136   0.392  0.00  0.00    +0.023 C 
ATOM     16  C   UNL     1     -34.691  18.910   0.078  0.00  0.00    -0.035 C 
ATOM     17  C   UNL     1     -37.414  24.965   3.877  0.00  0.00    +0.004 C 
ATOM     18  C   UNL     1     -34.532  20.262  -2.033  0.00  0.00    +0.011 C 
ATOM     19  C   UNL     1     -32.486  19.718  -0.819  0.00  0.00    -0.017 C 
ATOM     20  C   UNL     1     -34.102  17.765   0.458  0.00  0.00    +0.034 C 
ATOM     21  C   UNL     1     -31.892  18.582  -0.442  0.00  0.00    +0.038 C 
ATOM     22  C   UNL     1     -32.663  17.525   0.233  0.00  0.00    +0.195 C 
ENDROOT
BRANCH  11  23
ATOM     23  O   UNL     1     -32.056  22.516  -0.291  0.00  0.00    -0.382 OA
ATOM     24  H   UNL     1     -31.808  22.087  -1.125  0.00  0.00    +0.210 HD
ENDBRANCH  11  23
BRANCH   7  26
ATOM     25  O   UNL     1     -34.453  27.117   1.346  0.00  0.00    -0.290 OA
ATOM     26  C   UNL     1     -35.532  26.582   1.593  0.00  0.00    +0.216 C 
BRANCH  26  27
ATOM     27  C   UNL     1     -36.848  27.324   1.496  0.00  0.00    +0.206 C 
BRANCH  27  28
ATOM     28  O   UNL     1     -36.688  28.674   1.875  0.00  0.00    -0.375 OA
ATOM     29  H   UNL     1     -36.584  29.223   1.082  0.00  0.00    +0.211 HD
ENDBRANCH  27  28
ENDBRANCH  26  27
ENDBRANCH   7  26
BRANCH   7  30
ATOM     30  O   UNL     1     -34.705  25.103   3.108  0.00  0.00    -0.449 OA
BRANCH  30  32
ATOM     31  O   UNL     1     -35.189  27.134   4.088  0.00  0.00    -0.250 OA
ATOM     32  C   UNL     1     -35.003  25.927   4.160  0.00  0.00    +0.317 C 
BRANCH  32  33
ATOM     33  C   UNL     1     -35.066  25.109   5.430  0.00  0.00    +0.110 C 
BRANCH  33  34
ATOM     34  C   UNL     1     -34.391  23.748   5.266  0.00  0.00    +0.012 C 
BRANCH  34  35
ATOM     35  C   UNL     1     -35.259  22.625   5.835  0.00  0.00    +0.001 C 
ATOM     36  C   UNL     1     -35.187  21.375   4.972  0.00  0.00    +0.000 C 
ENDBRANCH  34  35
ENDBRANCH  33  34
ENDBRANCH  32  33
ENDBRANCH  30  32
ENDBRANCH   7  30
TORSDOF 9
ENDMDL
MODEL 5
REMARK VINA RESULT:      -6.0      4.239      6.641
REMARK  Name = 57486087
REMARK  9 active torsions:
REMARK  status: ('A' for Active; 'I' for Inactive)
REMARK    1  A    between atoms: C_7  and  C_26
REMARK    2  A    between atoms: C_7  and  O_30
REMARK    3  A    between atoms: C_11  and  O_23
REMARK    4  A    between atoms: C_26  and  C_27
REMARK    5  A    between atoms: C_27  and  O_28
REMARK    6  A    between atoms: O_30  and  C_32
REMARK    7  A    between atoms: C_32  and  C_33
REMARK    8  A    between atoms: C_33  and  C_34
REMARK    9  A    between atoms: C_34  and  C_35
REMARK                            x       y       z     vdW  Elec       q    Type
REMARK                         _______ _______ _______ _____ _____    ______ ____
ROOT
ATOM      1  F   UNL     1     -36.646  31.759   2.524  0.00  0.00    -0.237 F 
ATOM      2  O   UNL     1     -39.678  35.575   2.041  0.00  0.00    -0.287 OA
ATOM      3  C   UNL     1     -34.075  29.521   1.567  0.00  0.00    +0.043 C 
ATOM      4  C   UNL     1     -33.929  30.923   2.199  0.00  0.00    +0.007 C 
ATOM      5  C   UNL     1     -34.601  32.029   1.373  0.00  0.00    +0.033 C 
ATOM      6  C   UNL     1     -36.139  31.730   1.238  0.00  0.00    +0.164 C 
ATOM      7  C   UNL     1     -33.232  28.695   2.579  0.00  0.00    +0.188 C 
ATOM      8  C   UNL     1     -32.432  31.037   2.492  0.00  0.00    +0.004 C 
ATOM      9  C   UNL     1     -35.576  29.206   1.513  0.00  0.00    +0.036 C 
ATOM     10  C   UNL     1     -31.983  29.590   2.828  0.00  0.00    +0.044 C 
ATOM     11  C   UNL     1     -36.372  30.272   0.731  0.00  0.00    +0.141 C 
ATOM     12  C   UNL     1     -36.885  32.878   0.441  0.00  0.00    +0.064 C 
ATOM     13  C   UNL     1     -34.351  33.407   2.007  0.00  0.00    +0.007 C 
ATOM     14  C   UNL     1     -33.470  29.421   0.139  0.00  0.00    +0.004 C 
ATOM     15  C   UNL     1     -35.047  34.517   1.230  0.00  0.00    +0.023 C 
ATOM     16  C   UNL     1     -36.518  34.215   1.100  0.00  0.00    -0.035 C 
ATOM     17  C   UNL     1     -31.384  29.486   4.228  0.00  0.00    +0.004 C 
ATOM     18  C   UNL     1     -36.462  32.913  -1.046  0.00  0.00    +0.011 C 
ATOM     19  C   UNL     1     -38.396  32.687   0.425  0.00  0.00    -0.017 C 
ATOM     20  C   UNL     1     -37.417  35.074   1.607  0.00  0.00    +0.034 C 
ATOM     21  C   UNL     1     -39.296  33.536   0.929  0.00  0.00    +0.038 C 
ATOM     22  C   UNL     1     -38.864  34.791   1.565  0.00  0.00    +0.195 C 
ENDROOT
BRANCH  11  23
ATOM     23  O   UNL     1     -37.747  29.914   0.851  0.00  0.00    -0.382 OA
ATOM     24  H   UNL     1     -38.170  30.474   1.519  0.00  0.00    +0.210 HD
ENDBRANCH  11  23
BRANCH   7  26
ATOM     25  O   UNL     1     -33.710  26.471   1.872  0.00  0.00    -0.290 OA
ATOM     26  C   UNL     1     -32.856  27.327   2.097  0.00  0.00    +0.216 C 
BRANCH  26  27
ATOM     27  C   UNL     1     -31.377  27.067   1.907  0.00  0.00    +0.206 C 
BRANCH  27  28
ATOM     28  O   UNL     1     -30.998  25.861   2.534  0.00  0.00    -0.375 OA
ATOM     29  H   UNL     1     -31.300  25.866   3.456  0.00  0.00    +0.211 HD
ENDBRANCH  27  28
ENDBRANCH  26  27
ENDBRANCH   7  26
BRANCH   7  30
ATOM     30  O   UNL     1     -33.948  28.404   3.774  0.00  0.00    -0.449 OA
BRANCH  30  32
ATOM     31  O   UNL     1     -32.506  26.901   4.765  0.00  0.00    -0.250 OA
ATOM     32  C   UNL     1     -33.624  27.225   4.391  0.00  0.00    +0.317 C 
BRANCH  32  33
ATOM     33  C   UNL     1     -34.871  26.382   4.538  0.00  0.00    +0.110 C 
BRANCH  33  34
ATOM     34  C   UNL     1     -34.685  25.259   5.556  0.00  0.00    +0.012 C 
BRANCH  34  35
ATOM     35  C   UNL     1     -35.675  24.119   5.313  0.00  0.00    +0.001 C 
ATOM     36  C   UNL     1     -35.216  22.832   5.978  0.00  0.00    +0.000 C 
ENDBRANCH  34  35
ENDBRANCH  33  34
ENDBRANCH  32  33
ENDBRANCH  30  32
ENDBRANCH   7  30
TORSDOF 9
ENDMDL
MODEL 6
REMARK VINA RESULT:      -5.9      3.385      7.596
REMARK  Name = 57486087
REMARK  9 active torsions:
REMARK  status: ('A' for Active; 'I' for Inactive)
REMARK    1  A    between atoms: C_7  and  C_26
REMARK    2  A    between atoms: C_7  and  O_30
REMARK    3  A    between atoms: C_11  and  O_23
REMARK    4  A    between atoms: C_26  and  C_27
REMARK    5  A    between atoms: C_27  and  O_28
REMARK    6  A    between atoms: O_30  and  C_32
REMARK    7  A    between atoms: C_32  and  C_33
REMARK    8  A    between atoms: C_33  and  C_34
REMARK    9  A    between atoms: C_34  and  C_35
REMARK                            x       y       z     vdW  Elec       q    Type
REMARK                         _______ _______ _______ _____ _____    ______ ____
ROOT
ATOM      1  F   UNL     1     -35.758  20.916  -0.428  0.00  0.00    -0.237 F 
ATOM      2  O   UNL     1     -34.195  17.382  -3.438  0.00  0.00    -0.287 OA
ATOM      3  C   UNL     1     -35.784  22.900   2.504  0.00  0.00    +0.043 C 
ATOM      4  C   UNL     1     -34.885  23.057   1.257  0.00  0.00    +0.007 C 
ATOM      5  C   UNL     1     -34.057  21.801   0.950  0.00  0.00    +0.033 C 
ATOM      6  C   UNL     1     -35.017  20.583   0.689  0.00  0.00    +0.164 C 
ATOM      7  C   UNL     1     -36.385  24.332   2.569  0.00  0.00    +0.188 C 
ATOM      8  C   UNL     1     -34.151  24.376   1.501  0.00  0.00    +0.004 C 
ATOM      9  C   UNL     1     -36.768  21.760   2.209  0.00  0.00    +0.036 C 
ATOM     10  C   UNL     1     -35.161  25.253   2.287  0.00  0.00    +0.044 C 
ATOM     11  C   UNL     1     -36.051  20.442   1.851  0.00  0.00    +0.141 C 
ATOM     12  C   UNL     1     -34.205  19.276   0.311  0.00  0.00    +0.064 C 
ATOM     13  C   UNL     1     -33.124  22.047  -0.248  0.00  0.00    +0.007 C 
ATOM     14  C   UNL     1     -34.990  22.579   3.801  0.00  0.00    +0.004 C 
ATOM     15  C   UNL     1     -32.325  20.800  -0.602  0.00  0.00    +0.023 C 
ATOM     16  C   UNL     1     -33.254  19.638  -0.840  0.00  0.00    -0.035 C 
ATOM     17  C   UNL     1     -35.486  26.551   1.554  0.00  0.00    +0.004 C 
ATOM     18  C   UNL     1     -33.377  18.747   1.505  0.00  0.00    +0.011 C 
ATOM     19  C   UNL     1     -35.115  18.123  -0.090  0.00  0.00    -0.017 C 
ATOM     20  C   UNL     1     -33.255  19.025  -2.035  0.00  0.00    +0.034 C 
ATOM     21  C   UNL     1     -35.123  17.510  -1.277  0.00  0.00    +0.038 C 
ATOM     22  C   UNL     1     -34.193  17.928  -2.340  0.00  0.00    +0.195 C 
ENDROOT
BRANCH  11  23
ATOM     23  O   UNL     1     -37.073  19.511   1.500  0.00  0.00    -0.382 OA
ATOM     24  H   UNL     1     -37.334  19.006   2.285  0.00  0.00    +0.210 HD
ENDBRANCH  11  23
BRANCH   7  26
ATOM     25  O   UNL     1     -38.234  24.398   4.069  0.00  0.00    -0.290 OA
ATOM     26  C   UNL     1     -37.049  24.664   3.870  0.00  0.00    +0.216 C 
BRANCH  26  27
ATOM     27  C   UNL     1     -36.183  25.339   4.912  0.00  0.00    +0.206 C 
BRANCH  27  28
ATOM     28  O   UNL     1     -36.701  26.609   5.244  0.00  0.00    -0.375 OA
ATOM     29  H   UNL     1     -37.574  26.506   5.655  0.00  0.00    +0.211 HD
ENDBRANCH  27  28
ENDBRANCH  26  27
ENDBRANCH   7  26
BRANCH   7  30
ATOM     30  O   UNL     1     -37.442  24.522   1.636  0.00  0.00    -0.449 OA
BRANCH  30  32
ATOM     31  O   UNL     1     -38.070  26.608   2.395  0.00  0.00    -0.250 OA
ATOM     32  C   UNL     1     -37.881  25.811   1.487  0.00  0.00    +0.317 C 
BRANCH  32  33
ATOM     33  C   UNL     1     -38.099  26.094   0.018  0.00  0.00    +0.110 C 
BRANCH  33  34
ATOM     34  C   UNL     1     -37.763  24.884  -0.853  0.00  0.00    +0.012 C 
BRANCH  34  35
ATOM     35  C   UNL     1     -36.540  25.153  -1.730  0.00  0.00    +0.001 C 
ATOM     36  C   UNL     1     -35.834  23.861  -2.110  0.00  0.00    +0.000 C 
ENDBRANCH  34  35
ENDBRANCH  33  34
ENDBRANCH  32  33
ENDBRANCH  30  32
ENDBRANCH   7  30
TORSDOF 9
ENDMDL
MODEL 7
REMARK VINA RESULT:      -5.9      3.957      6.465
REMARK  Name = 57486087
REMARK  9 active torsions:
REMARK  status: ('A' for Active; 'I' for Inactive)
REMARK    1  A    between atoms: C_7  and  C_26
REMARK    2  A    between atoms: C_7  and  O_30
REMARK    3  A    between atoms: C_11  and  O_23
REMARK    4  A    between atoms: C_26  and  C_27
REMARK    5  A    between atoms: C_27  and  O_28
REMARK    6  A    between atoms: O_30  and  C_32
REMARK    7  A    between atoms: C_32  and  C_33
REMARK    8  A    between atoms: C_33  and  C_34
REMARK    9  A    between atoms: C_34  and  C_35
REMARK                            x       y       z     vdW  Elec       q    Type
REMARK                         _______ _______ _______ _____ _____    ______ ____
ROOT
ATOM      1  F   UNL     1     -34.517  21.729   2.202  0.00  0.00    -0.237 F 
ATOM      2  O   UNL     1     -33.390  25.775   4.723  0.00  0.00    -0.287 OA
ATOM      3  C   UNL     1     -36.074  19.826  -0.345  0.00  0.00    +0.043 C 
ATOM      4  C   UNL     1     -34.779  20.662  -0.440  0.00  0.00    +0.007 C 
ATOM      5  C   UNL     1     -34.987  22.139  -0.076  0.00  0.00    +0.033 C 
ATOM      6  C   UNL     1     -35.514  22.252   1.401  0.00  0.00    +0.164 C 
ATOM      7  C   UNL     1     -35.535  18.458  -0.849  0.00  0.00    +0.188 C 
ATOM      8  C   UNL     1     -34.225  20.320  -1.823  0.00  0.00    +0.004 C 
ATOM      9  C   UNL     1     -36.538  19.879   1.117  0.00  0.00    +0.036 C 
ATOM     10  C   UNL     1     -34.642  18.845  -2.065  0.00  0.00    +0.044 C 
ATOM     11  C   UNL     1     -36.752  21.324   1.614  0.00  0.00    +0.141 C 
ATOM     12  C   UNL     1     -35.688  23.765   1.840  0.00  0.00    +0.064 C 
ATOM     13  C   UNL     1     -33.684  22.933  -0.269  0.00  0.00    +0.007 C 
ATOM     14  C   UNL     1     -37.211  20.342  -1.270  0.00  0.00    +0.004 C 
ATOM     15  C   UNL     1     -33.853  24.393   0.130  0.00  0.00    +0.023 C 
ATOM     16  C   UNL     1     -34.367  24.489   1.543  0.00  0.00    -0.035 C 
ATOM     17  C   UNL     1     -33.437  17.939  -2.294  0.00  0.00    +0.004 C 
ATOM     18  C   UNL     1     -36.833  24.460   1.065  0.00  0.00    +0.011 C 
ATOM     19  C   UNL     1     -36.056  23.904   3.311  0.00  0.00    -0.017 C 
ATOM     20  C   UNL     1     -33.640  25.133   2.470  0.00  0.00    +0.034 C 
ATOM     21  C   UNL     1     -35.336  24.541   4.239  0.00  0.00    +0.038 C 
ATOM     22  C   UNL     1     -34.067  25.196   3.880  0.00  0.00    +0.195 C 
ENDROOT
BRANCH  11  23
ATOM     23  O   UNL     1     -37.073  21.229   3.000  0.00  0.00    -0.382 OA
ATOM     24  H   UNL     1     -36.259  21.109   3.513  0.00  0.00    +0.210 HD
ENDBRANCH  11  23
BRANCH   7  26
ATOM     25  O   UNL     1     -36.734  17.090  -2.386  0.00  0.00    -0.290 OA
ATOM     26  C   UNL     1     -36.601  17.475  -1.226  0.00  0.00    +0.216 C 
BRANCH  26  27
ATOM     27  C   UNL     1     -37.493  16.992  -0.103  0.00  0.00    +0.206 C 
BRANCH  27  28
ATOM     28  O   UNL     1     -37.058  15.737   0.375  0.00  0.00    -0.375 OA
ATOM     29  H   UNL     1     -36.477  15.866   1.141  0.00  0.00    +0.211 HD
ENDBRANCH  27  28
ENDBRANCH  26  27
ENDBRANCH   7  26
BRANCH   7  30
ATOM     30  O   UNL     1     -34.818  17.751   0.156  0.00  0.00    -0.449 OA
BRANCH  30  32
ATOM     31  O   UNL     1     -34.426  15.773  -0.964  0.00  0.00    -0.250 OA
ATOM     32  C   UNL     1     -34.040  16.713  -0.284  0.00  0.00    +0.317 C 
BRANCH  32  33
ATOM     33  C   UNL     1     -32.623  16.913   0.205  0.00  0.00    +0.110 C 
BRANCH  33  34
ATOM     34  C   UNL     1     -32.536  18.000   1.275  0.00  0.00    +0.012 C 
BRANCH  34  35
ATOM     35  C   UNL     1     -31.813  19.240   0.750  0.00  0.00    +0.001 C 
ATOM     36  C   UNL     1     -30.546  18.867  -0.004  0.00  0.00    +0.000 C 
ENDBRANCH  34  35
ENDBRANCH  33  34
ENDBRANCH  32  33
ENDBRANCH  30  32
ENDBRANCH   7  30
TORSDOF 9
ENDMDL
MODEL 8
REMARK VINA RESULT:      -5.9      3.120      7.984
REMARK  Name = 57486087
REMARK  9 active torsions:
REMARK  status: ('A' for Active; 'I' for Inactive)
REMARK    1  A    between atoms: C_7  and  C_26
REMARK    2  A    between atoms: C_7  and  O_30
REMARK    3  A    between atoms: C_11  and  O_23
REMARK    4  A    between atoms: C_26  and  C_27
REMARK    5  A    between atoms: C_27  and  O_28
REMARK    6  A    between atoms: O_30  and  C_32
REMARK    7  A    between atoms: C_32  and  C_33
REMARK    8  A    between atoms: C_33  and  C_34
REMARK    9  A    between atoms: C_34  and  C_35
REMARK                            x       y       z     vdW  Elec       q    Type
REMARK                         _______ _______ _______ _____ _____    ______ ____
ROOT
ATOM      1  F   UNL     1     -38.107  22.325  -0.285  0.00  0.00    -0.237 F 
ATOM      2  O   UNL     1     -39.606  19.785  -4.195  0.00  0.00    -0.287 OA
ATOM      3  C   UNL     1     -36.306  22.907   2.707  0.00  0.00    +0.043 C 
ATOM      4  C   UNL     1     -35.801  23.036   1.253  0.00  0.00    +0.007 C 
ATOM      5  C   UNL     1     -35.941  21.735   0.450  0.00  0.00    +0.033 C 
ATOM      6  C   UNL     1     -37.454  21.310   0.388  0.00  0.00    +0.164 C 
ATOM      7  C   UNL     1     -35.943  24.324   3.232  0.00  0.00    +0.188 C 
ATOM      8  C   UNL     1     -34.412  23.656   1.403  0.00  0.00    +0.004 C 
ATOM      9  C   UNL     1     -37.802  22.569   2.636  0.00  0.00    +0.036 C 
ATOM     10  C   UNL     1     -34.520  24.573   2.651  0.00  0.00    +0.044 C 
ATOM     11  C   UNL     1     -38.077  21.289   1.820  0.00  0.00    +0.141 C 
ATOM     12  C   UNL     1     -37.654  20.001  -0.483  0.00  0.00    +0.064 C 
ATOM     13  C   UNL     1     -35.348  21.902  -0.959  0.00  0.00    +0.007 C 
ATOM     14  C   UNL     1     -35.564  21.813   3.524  0.00  0.00    +0.004 C 
ATOM     15  C   UNL     1     -35.516  20.638  -1.793  0.00  0.00    +0.023 C 
ATOM     16  C   UNL     1     -36.968  20.236  -1.837  0.00  0.00    -0.035 C 
ATOM     17  C   UNL     1     -34.203  26.029   2.322  0.00  0.00    +0.004 C 
ATOM     18  C   UNL     1     -37.027  18.760   0.194  0.00  0.00    +0.011 C 
ATOM     19  C   UNL     1     -39.123  19.653  -0.681  0.00  0.00    -0.017 C 
ATOM     20  C   UNL     1     -37.598  20.161  -3.020  0.00  0.00    +0.034 C 
ATOM     21  C   UNL     1     -39.757  19.579  -1.854  0.00  0.00    +0.038 C 
ATOM     22  C   UNL     1     -39.035  19.838  -3.111  0.00  0.00    +0.195 C 
ENDROOT
BRANCH  11  23
ATOM     23  O   UNL     1     -39.495  21.156   1.747  0.00  0.00    -0.382 OA
ATOM     24  H   UNL     1     -39.914  21.895   2.215  0.00  0.00    +0.210 HD
ENDBRANCH  11  23
BRANCH   7  26
ATOM     25  O   UNL     1     -36.312  23.518   5.442  0.00  0.00    -0.290 OA
ATOM     26  C   UNL     1     -35.971  24.456   4.724  0.00  0.00    +0.216 C 
BRANCH  26  27
ATOM     27  C   UNL     1     -35.559  25.801   5.285  0.00  0.00    +0.206 C 
BRANCH  27  28
ATOM     28  O   UNL     1     -36.688  26.625   5.484  0.00  0.00    -0.375 OA
ATOM     29  H   UNL     1     -36.541  27.483   5.056  0.00  0.00    +0.211 HD
ENDBRANCH  27  28
ENDBRANCH  26  27
ENDBRANCH   7  26
BRANCH   7  30
ATOM     30  O   UNL     1     -36.883  25.312   2.826  0.00  0.00    -0.449 OA
BRANCH  30  32
ATOM     31  O   UNL     1     -38.704  24.750   4.126  0.00  0.00    -0.250 OA
ATOM     32  C   UNL     1     -38.200  25.006   3.041  0.00  0.00    +0.317 C 
BRANCH  32  33
ATOM     33  C   UNL     1     -38.938  25.033   1.721  0.00  0.00    +0.110 C 
BRANCH  33  34
ATOM     34  C   UNL     1     -38.396  26.113   0.786  0.00  0.00    +0.012 C 
BRANCH  34  35
ATOM     35  C   UNL     1     -37.813  25.502  -0.489  0.00  0.00    +0.001 C 
ATOM     36  C   UNL     1     -36.412  26.024  -0.765  0.00  0.00    +0.000 C 
ENDBRANCH  34  35
ENDBRANCH  33  34
ENDBRANCH  32  33
ENDBRANCH  30  32
ENDBRANCH   7  30
TORSDOF 9
ENDMDL
MODEL 9
REMARK VINA RESULT:      -5.9      1.786      2.552
REMARK  Name = 57486087
REMARK  9 active torsions:
REMARK  status: ('A' for Active; 'I' for Inactive)
REMARK    1  A    between atoms: C_7  and  C_26
REMARK    2  A    between atoms: C_7  and  O_30
REMARK    3  A    between atoms: C_11  and  O_23
REMARK    4  A    between atoms: C_26  and  C_27
REMARK    5  A    between atoms: C_27  and  O_28
REMARK    6  A    between atoms: O_30  and  C_32
REMARK    7  A    between atoms: C_32  and  C_33
REMARK    8  A    between atoms: C_33  and  C_34
REMARK    9  A    between atoms: C_34  and  C_35
REMARK                            x       y       z     vdW  Elec       q    Type
REMARK                         _______ _______ _______ _____ _____    ______ ____
ROOT
ATOM      1  F   UNL     1     -35.702  26.533   3.103  0.00  0.00    -0.237 F 
ATOM      2  O   UNL     1     -33.478  30.798   4.023  0.00  0.00    -0.287 OA
ATOM      3  C   UNL     1     -36.807  23.814   1.122  0.00  0.00    +0.043 C 
ATOM      4  C   UNL     1     -35.410  24.030   1.746  0.00  0.00    +0.007 C 
ATOM      5  C   UNL     1     -34.748  25.342   1.300  0.00  0.00    +0.033 C 
ATOM      6  C   UNL     1     -35.647  26.561   1.723  0.00  0.00    +0.164 C 
ATOM      7  C   UNL     1     -37.129  22.406   1.696  0.00  0.00    +0.188 C 
ATOM      8  C   UNL     1     -34.682  22.714   1.474  0.00  0.00    +0.004 C 
ATOM      9  C   UNL     1     -37.698  24.967   1.604  0.00  0.00    +0.036 C 
ATOM     10  C   UNL     1     -35.790  21.629   1.526  0.00  0.00    +0.044 C 
ATOM     11  C   UNL     1     -37.118  26.350   1.242  0.00  0.00    +0.141 C 
ATOM     12  C   UNL     1     -34.973  27.940   1.333  0.00  0.00    +0.064 C 
ATOM     13  C   UNL     1     -33.331  25.460   1.887  0.00  0.00    +0.007 C 
ATOM     14  C   UNL     1     -36.791  23.783  -0.432  0.00  0.00    +0.004 C 
ATOM     15  C   UNL     1     -32.670  26.775   1.496  0.00  0.00    +0.023 C 
ATOM     16  C   UNL     1     -33.545  27.935   1.897  0.00  0.00    -0.035 C 
ATOM     17  C   UNL     1     -35.514  20.577   2.596  0.00  0.00    +0.004 C 
ATOM     18  C   UNL     1     -34.912  28.138  -0.200  0.00  0.00    +0.011 C 
ATOM     19  C   UNL     1     -35.752  29.137   1.863  0.00  0.00    -0.017 C 
ATOM     20  C   UNL     1     -33.073  28.854   2.755  0.00  0.00    +0.034 C 
ATOM     21  C   UNL     1     -35.290  30.055   2.717  0.00  0.00    +0.038 C 
ATOM     22  C   UNL     1     -33.913  29.970   3.230  0.00  0.00    +0.195 C 
ENDROOT
BRANCH  11  23
ATOM     23  O   UNL     1     -37.982  27.316   1.836  0.00  0.00    -0.382 OA
ATOM     24  H   UNL     1     -38.075  27.129   2.783  0.00  0.00    +0.210 HD
ENDBRANCH  11  23
BRANCH   7  26
ATOM     25  O   UNL     1     -38.081  20.903   0.112  0.00  0.00    -0.290 OA
ATOM     26  C   UNL     1     -38.271  21.711   1.020  0.00  0.00    +0.216 C 
BRANCH  26  27
ATOM     27  C   UNL     1     -39.657  22.060   1.519  0.00  0.00    +0.206 C 
BRANCH  27  28
ATOM     28  O   UNL     1     -40.201  20.995   2.267  0.00  0.00    -0.375 OA
ATOM     29  H   UNL     1     -40.661  20.381   1.672  0.00  0.00    +0.211 HD
ENDBRANCH  27  28
ENDBRANCH  26  27
ENDBRANCH   7  26
BRANCH   7  30
ATOM     30  O   UNL     1     -37.567  22.456   3.048  0.00  0.00    -0.449 OA
BRANCH  30  32
ATOM     31  O   UNL     1     -37.786  24.620   3.817  0.00  0.00    -0.250 OA
ATOM     32  C   UNL     1     -37.179  23.560   3.761  0.00  0.00    +0.317 C 
BRANCH  32  33
ATOM     33  C   UNL     1     -35.876  23.261   4.468  0.00  0.00    +0.110 C 
BRANCH  33  34
ATOM     34  C   UNL     1     -35.532  24.328   5.506  0.00  0.00    +0.012 C 
BRANCH  34  35
ATOM     35  C   UNL     1     -34.110  24.854   5.311  0.00  0.00    +0.001 C 
ATOM     36  C   UNL     1     -33.967  26.277   5.826  0.00  0.00    +0.000 C 
ENDBRANCH  34  35
ENDBRANCH  33  34
ENDBRANCH  32  33
ENDBRANCH  30  32
ENDBRANCH   7  30
TORSDOF 9
ENDMDL
