MODEL 1
REMARK VINA RESULT:      -6.8      0.000      0.000
REMARK  Name = 5334
REMARK  5 active torsions:
REMARK  status: ('A' for Active; 'I' for Inactive)
REMARK    1  A    between atoms: S_1  and  C_4
REMARK    2  A    between atoms: S_1  and  N_15
REMARK    3  A    between atoms: C_7  and  N_11
REMARK    4  A    between atoms: N_15  and  C_17
REMARK    5  A    between atoms: C_20  and  N_25
REMARK                            x       y       z     vdW  Elec       q    Type
REMARK                         _______ _______ _______ _____ _____    ______ ____
ROOT
ATOM      1  S   UNL     1     -37.286  22.469   2.223  0.00  0.00    +0.074 S 
ATOM      2  O   UNL     1     -38.385  21.524   2.071  0.00  0.00    -0.150 OA
ATOM      3  O   UNL     1     -37.380  23.768   1.568  0.00  0.00    -0.150 OA
ENDROOT
BRANCH   1   4
ATOM      4  C   UNL     1     -35.825  21.678   1.685  0.00  0.00    +0.125 C 
ATOM      5  C   UNL     1     -34.945  22.341   0.831  0.00  0.00    +0.021 C 
ATOM      6  C   UNL     1     -35.538  20.381   2.111  0.00  0.00    +0.021 C 
ATOM      7  C   UNL     1     -33.491  20.412   0.827  0.00  0.00    +0.050 C 
ATOM      8  C   UNL     1     -33.778  21.709   0.402  0.00  0.00    +0.016 C 
ATOM      9  C   UNL     1     -34.371  19.748   1.682  0.00  0.00    +0.016 C 
BRANCH   7  11
ATOM     10  O   UNL     1     -32.209  17.846   1.741  0.00  0.00    -0.275 OA
ATOM     11  N   UNL     1     -32.324  19.780   0.399  0.00  0.00    -0.284 N 
ATOM     12  C   UNL     1     -31.769  18.580   0.863  0.00  0.00    +0.227 C 
ATOM     13  C   UNL     1     -30.492  18.236   0.136  0.00  0.00    +0.095 C 
ATOM     14  H   UNL     1     -31.828  20.235  -0.320  0.00  0.00    +0.155 HD
ENDBRANCH   7  11
ENDBRANCH   1   4
BRANCH   1  15
ATOM     15  N   UNL     1     -37.001  22.693   3.907  0.00  0.00    -0.215 N 
ATOM     16  H   UNL     1     -37.429  22.109   4.574  0.00  0.00    +0.174 HD
BRANCH  15  17
ATOM     17  C   UNL     1     -36.120  23.755   4.310  0.00  0.00    +0.065 C 
ATOM     18  C   UNL     1     -36.652  24.984   4.682  0.00  0.00    +0.018 C 
ATOM     19  C   UNL     1     -34.747  23.542   4.323  0.00  0.00    +0.018 C 
ATOM     20  C   UNL     1     -34.419  25.810   5.089  0.00  0.00    +0.143 C 
ATOM     21  C   UNL     1     -35.798  26.015   5.073  0.00  0.00    +0.025 C 
ATOM     22  C   UNL     1     -33.893  24.574   4.713  0.00  0.00    +0.025 C 
BRANCH  20  25
ATOM     23  O   UNL     1     -33.441  27.871   4.750  0.00  0.00    -0.126 OA
ATOM     24  O   UNL     1     -32.913  26.749   6.562  0.00  0.00    -0.126 OA
ATOM     25  N   UNL     1     -33.548  26.860   5.486  0.00  0.00    +0.058 N 
ENDBRANCH  20  25
ENDBRANCH  15  17
ENDBRANCH   1  15
TORSDOF 5
ENDMDL
MODEL 2
REMARK VINA RESULT:      -6.8      0.094      1.425
REMARK  Name = 5334
REMARK  5 active torsions:
REMARK  status: ('A' for Active; 'I' for Inactive)
REMARK    1  A    between atoms: S_1  and  C_4
REMARK    2  A    between atoms: S_1  and  N_15
REMARK    3  A    between atoms: C_7  and  N_11
REMARK    4  A    between atoms: N_15  and  C_17
REMARK    5  A    between atoms: C_20  and  N_25
REMARK                            x       y       z     vdW  Elec       q    Type
REMARK                         _______ _______ _______ _____ _____    ______ ____
ROOT
ATOM      1  S   UNL     1     -37.318  22.450   2.146  0.00  0.00    +0.074 S 
ATOM      2  O   UNL     1     -38.407  21.495   1.979  0.00  0.00    -0.150 OA
ATOM      3  O   UNL     1     -37.409  23.743   1.478  0.00  0.00    -0.150 OA
ENDROOT
BRANCH   1   4
ATOM      4  C   UNL     1     -35.841  21.666   1.645  0.00  0.00    +0.125 C 
ATOM      5  C   UNL     1     -35.484  20.435   2.193  0.00  0.00    +0.021 C 
ATOM      6  C   UNL     1     -35.017  22.273   0.697  0.00  0.00    +0.021 C 
ATOM      7  C   UNL     1     -33.480  20.415   0.844  0.00  0.00    +0.050 C 
ATOM      8  C   UNL     1     -34.303  19.808   1.792  0.00  0.00    +0.016 C 
ATOM      9  C   UNL     1     -33.837  21.646   0.296  0.00  0.00    +0.016 C 
BRANCH   7  11
ATOM     10  O   UNL     1     -32.264  17.799   1.709  0.00  0.00    -0.275 OA
ATOM     11  N   UNL     1     -32.300  19.788   0.443  0.00  0.00    -0.284 N 
ATOM     12  C   UNL     1     -31.777  18.564   0.882  0.00  0.00    +0.227 C 
ATOM     13  C   UNL     1     -30.472  18.236   0.200  0.00  0.00    +0.095 C 
ATOM     14  H   UNL     1     -31.767  20.266  -0.234  0.00  0.00    +0.155 HD
ENDBRANCH   7  11
ENDBRANCH   1   4
BRANCH   1  15
ATOM     15  N   UNL     1     -37.070  22.690   3.834  0.00  0.00    -0.215 N 
ATOM     16  H   UNL     1     -37.522  22.120   4.497  0.00  0.00    +0.174 HD
BRANCH  15  17
ATOM     17  C   UNL     1     -36.185  23.746   4.245  0.00  0.00    +0.065 C 
ATOM     18  C   UNL     1     -34.814  23.522   4.268  0.00  0.00    +0.018 C 
ATOM     19  C   UNL     1     -36.710  24.978   4.614  0.00  0.00    +0.018 C 
ATOM     20  C   UNL     1     -34.473  25.786   5.039  0.00  0.00    +0.143 C 
ATOM     21  C   UNL     1     -33.955  24.546   4.666  0.00  0.00    +0.025 C 
ATOM     22  C   UNL     1     -35.850  26.002   5.014  0.00  0.00    +0.025 C 
BRANCH  20  25
ATOM     23  O   UNL     1     -33.538  27.875   4.754  0.00  0.00    -0.126 OA
ATOM     24  O   UNL     1     -32.911  26.676   6.484  0.00  0.00    -0.126 OA
ATOM     25  N   UNL     1     -33.598  26.829   5.445  0.00  0.00    +0.058 N 
ENDBRANCH  20  25
ENDBRANCH  15  17
ENDBRANCH   1  15
TORSDOF 5
ENDMDL
MODEL 3
REMARK VINA RESULT:      -6.5      1.776      7.402
REMARK  Name = 5334
REMARK  5 active torsions:
REMARK  status: ('A' for Active; 'I' for Inactive)
REMARK    1  A    between atoms: S_1  and  C_4
REMARK    2  A    between atoms: S_1  and  N_15
REMARK    3  A    between atoms: C_7  and  N_11
REMARK    4  A    between atoms: N_15  and  C_17
REMARK    5  A    between atoms: C_20  and  N_25
REMARK                            x       y       z     vdW  Elec       q    Type
REMARK                         _______ _______ _______ _____ _____    ______ ____
ROOT
ATOM      1  S   UNL     1     -37.146  23.105   2.703  0.00  0.00    +0.074 S 
ATOM      2  O   UNL     1     -36.716  23.261   1.318  0.00  0.00    -0.150 OA
ATOM      3  O   UNL     1     -38.544  23.352   3.036  0.00  0.00    -0.150 OA
ENDROOT
BRANCH   1   4
ATOM      4  C   UNL     1     -36.145  24.140   3.691  0.00  0.00    +0.125 C 
ATOM      5  C   UNL     1     -36.729  25.132   4.477  0.00  0.00    +0.021 C 
ATOM      6  C   UNL     1     -34.761  23.972   3.694  0.00  0.00    +0.021 C 
ATOM      7  C   UNL     1     -34.545  25.791   5.270  0.00  0.00    +0.050 C 
ATOM      8  C   UNL     1     -35.929  25.958   5.267  0.00  0.00    +0.016 C 
ATOM      9  C   UNL     1     -33.961  24.798   4.484  0.00  0.00    +0.016 C 
BRANCH   7  11
ATOM     10  O   UNL     1     -32.215  27.549   4.528  0.00  0.00    -0.275 OA
ATOM     11  N   UNL     1     -33.745  26.616   6.061  0.00  0.00    -0.284 N 
ATOM     12  C   UNL     1     -32.666  27.416   5.662  0.00  0.00    +0.227 C 
ATOM     13  C   UNL     1     -32.062  28.162   6.826  0.00  0.00    +0.095 C 
ATOM     14  H   UNL     1     -33.967  26.639   7.020  0.00  0.00    +0.155 HD
ENDBRANCH   7  11
ENDBRANCH   1   4
BRANCH   1  15
ATOM     15  N   UNL     1     -36.699  21.526   3.227  0.00  0.00    -0.215 N 
ATOM     16  H   UNL     1     -36.862  21.236   4.154  0.00  0.00    +0.174 HD
BRANCH  15  17
ATOM     17  C   UNL     1     -36.082  20.645   2.273  0.00  0.00    +0.065 C 
ATOM     18  C   UNL     1     -34.721  20.379   2.364  0.00  0.00    +0.018 C 
ATOM     19  C   UNL     1     -36.853  20.069   1.270  0.00  0.00    +0.018 C 
ATOM     20  C   UNL     1     -34.888  18.942   0.430  0.00  0.00    +0.143 C 
ATOM     21  C   UNL     1     -34.122  19.524   1.439  0.00  0.00    +0.025 C 
ATOM     22  C   UNL     1     -36.253  19.215   0.344  0.00  0.00    +0.025 C 
BRANCH  20  25
ATOM     23  O   UNL     1     -34.089  18.482  -1.684  0.00  0.00    -0.126 OA
ATOM     24  O   UNL     1     -33.945  16.918  -0.149  0.00  0.00    -0.126 OA
ATOM     25  N   UNL     1     -34.278  18.072  -0.513  0.00  0.00    +0.058 N 
ENDBRANCH  20  25
ENDBRANCH  15  17
ENDBRANCH   1  15
TORSDOF 5
ENDMDL
MODEL 4
REMARK VINA RESULT:      -6.5      3.820      6.588
REMARK  Name = 5334
REMARK  5 active torsions:
REMARK  status: ('A' for Active; 'I' for Inactive)
REMARK    1  A    between atoms: S_1  and  C_4
REMARK    2  A    between atoms: S_1  and  N_15
REMARK    3  A    between atoms: C_7  and  N_11
REMARK    4  A    between atoms: N_15  and  C_17
REMARK    5  A    between atoms: C_20  and  N_25
REMARK                            x       y       z     vdW  Elec       q    Type
REMARK                         _______ _______ _______ _____ _____    ______ ____
ROOT
ATOM      1  S   UNL     1     -35.545  22.487   3.838  0.00  0.00    +0.074 S 
ATOM      2  O   UNL     1     -35.304  21.625   4.989  0.00  0.00    -0.150 OA
ATOM      3  O   UNL     1     -35.065  22.060   2.529  0.00  0.00    -0.150 OA
ENDROOT
BRANCH   1   4
ATOM      4  C   UNL     1     -34.867  24.056   4.196  0.00  0.00    +0.125 C 
ATOM      5  C   UNL     1     -34.208  24.776   3.201  0.00  0.00    +0.021 C 
ATOM      6  C   UNL     1     -34.986  24.588   5.480  0.00  0.00    +0.021 C 
ATOM      7  C   UNL     1     -33.786  26.562   4.771  0.00  0.00    +0.050 C 
ATOM      8  C   UNL     1     -33.667  26.029   3.488  0.00  0.00    +0.016 C 
ATOM      9  C   UNL     1     -34.445  25.842   5.767  0.00  0.00    +0.016 C 
BRANCH   7  11
ATOM     10  O   UNL     1     -31.393  27.328   6.432  0.00  0.00    -0.275 OA
ATOM     11  N   UNL     1     -33.246  27.816   5.057  0.00  0.00    -0.284 N 
ATOM     12  C   UNL     1     -32.125  28.117   5.842  0.00  0.00    +0.227 C 
ATOM     13  C   UNL     1     -31.867  29.602   5.904  0.00  0.00    +0.095 C 
ATOM     14  H   UNL     1     -33.711  28.586   4.657  0.00  0.00    +0.155 HD
ENDBRANCH   7  11
ENDBRANCH   1   4
BRANCH   1  15
ATOM     15  N   UNL     1     -37.235  22.811   3.755  0.00  0.00    -0.215 N 
ATOM     16  H   UNL     1     -37.879  22.270   4.267  0.00  0.00    +0.174 HD
BRANCH  15  17
ATOM     17  C   UNL     1     -37.677  23.893   2.918  0.00  0.00    +0.065 C 
ATOM     18  C   UNL     1     -38.123  25.074   3.501  0.00  0.00    +0.018 C 
ATOM     19  C   UNL     1     -37.652  23.748   1.536  0.00  0.00    +0.018 C 
ATOM     20  C   UNL     1     -38.530  25.987   1.302  0.00  0.00    +0.143 C 
ATOM     21  C   UNL     1     -38.551  26.124   2.690  0.00  0.00    +0.025 C 
ATOM     22  C   UNL     1     -38.082  24.799   0.725  0.00  0.00    +0.025 C 
BRANCH  20  25
ATOM     23  O   UNL     1     -40.033  27.652   0.766  0.00  0.00    -0.126 OA
ATOM     24  O   UNL     1     -38.275  27.376  -0.521  0.00  0.00    -0.126 OA
ATOM     25  N   UNL     1     -38.967  27.056   0.475  0.00  0.00    +0.058 N 
ENDBRANCH  20  25
ENDBRANCH  15  17
ENDBRANCH   1  15
TORSDOF 5
ENDMDL
MODEL 5
REMARK VINA RESULT:      -6.4      1.682      2.105
REMARK  Name = 5334
REMARK  5 active torsions:
REMARK  status: ('A' for Active; 'I' for Inactive)
REMARK    1  A    between atoms: S_1  and  C_4
REMARK    2  A    between atoms: S_1  and  N_15
REMARK    3  A    between atoms: C_7  and  N_11
REMARK    4  A    between atoms: N_15  and  C_17
REMARK    5  A    between atoms: C_20  and  N_25
REMARK                            x       y       z     vdW  Elec       q    Type
REMARK                         _______ _______ _______ _____ _____    ______ ____
ROOT
ATOM      1  S   UNL     1     -37.456  22.814   2.449  0.00  0.00    +0.074 S 
ATOM      2  O   UNL     1     -38.890  22.549   2.447  0.00  0.00    -0.150 OA
ATOM      3  O   UNL     1     -36.959  23.992   1.748  0.00  0.00    -0.150 OA
ENDROOT
BRANCH   1   4
ATOM      4  C   UNL     1     -36.653  21.403   1.808  0.00  0.00    +0.125 C 
ATOM      5  C   UNL     1     -37.279  20.625   0.834  0.00  0.00    +0.021 C 
ATOM      6  C   UNL     1     -35.385  21.053   2.271  0.00  0.00    +0.021 C 
ATOM      7  C   UNL     1     -35.368  19.148   0.784  0.00  0.00    +0.050 C 
ATOM      8  C   UNL     1     -36.636  19.498   0.322  0.00  0.00    +0.016 C 
ATOM      9  C   UNL     1     -34.742  19.926   1.759  0.00  0.00    +0.016 C 
BRANCH   7  11
ATOM     10  O   UNL     1     -33.939  18.734  -1.834  0.00  0.00    -0.275 OA
ATOM     11  N   UNL     1     -34.725  18.022   0.272  0.00  0.00    -0.284 N 
ATOM     12  C   UNL     1     -34.074  17.882  -0.961  0.00  0.00    +0.227 C 
ATOM     13  C   UNL     1     -33.504  16.496  -1.140  0.00  0.00    +0.095 C 
ATOM     14  H   UNL     1     -34.731  17.223   0.849  0.00  0.00    +0.155 HD
ENDBRANCH   7  11
ENDBRANCH   1   4
BRANCH   1  15
ATOM     15  N   UNL     1     -36.920  22.849   4.086  0.00  0.00    -0.215 N 
ATOM     16  H   UNL     1     -37.224  22.171   4.732  0.00  0.00    +0.174 HD
BRANCH  15  17
ATOM     17  C   UNL     1     -36.016  23.895   4.480  0.00  0.00    +0.065 C 
ATOM     18  C   UNL     1     -34.654  23.753   4.242  0.00  0.00    +0.018 C 
ATOM     19  C   UNL     1     -36.514  25.038   5.096  0.00  0.00    +0.018 C 
ATOM     20  C   UNL     1     -34.268  25.917   5.242  0.00  0.00    +0.143 C 
ATOM     21  C   UNL     1     -33.778  24.768   4.623  0.00  0.00    +0.025 C 
ATOM     22  C   UNL     1     -35.636  26.052   5.479  0.00  0.00    +0.025 C 
BRANCH  20  25
ATOM     23  O   UNL     1     -33.182  27.913   4.850  0.00  0.00    -0.126 OA
ATOM     24  O   UNL     1     -32.806  26.874   6.748  0.00  0.00    -0.126 OA
ATOM     25  N   UNL     1     -33.375  26.951   5.632  0.00  0.00    +0.058 N 
ENDBRANCH  20  25
ENDBRANCH  15  17
ENDBRANCH   1  15
TORSDOF 5
ENDMDL
MODEL 6
REMARK VINA RESULT:      -6.4      3.913      7.562
REMARK  Name = 5334
REMARK  5 active torsions:
REMARK  status: ('A' for Active; 'I' for Inactive)
REMARK    1  A    between atoms: S_1  and  C_4
REMARK    2  A    between atoms: S_1  and  N_15
REMARK    3  A    between atoms: C_7  and  N_11
REMARK    4  A    between atoms: N_15  and  C_17
REMARK    5  A    between atoms: C_20  and  N_25
REMARK                            x       y       z     vdW  Elec       q    Type
REMARK                         _______ _______ _______ _____ _____    ______ ____
ROOT
ATOM      1  S   UNL     1     -34.246  27.821   3.394  0.00  0.00    +0.074 S 
ATOM      2  O   UNL     1     -33.915  26.904   2.310  0.00  0.00    -0.150 OA
ATOM      3  O   UNL     1     -34.766  29.142   3.063  0.00  0.00    -0.150 OA
ENDROOT
BRANCH   1   4
ATOM      4  C   UNL     1     -32.819  28.015   4.382  0.00  0.00    +0.125 C 
ATOM      5  C   UNL     1     -31.626  28.452   3.806  0.00  0.00    +0.021 C 
ATOM      6  C   UNL     1     -32.873  27.734   5.746  0.00  0.00    +0.021 C 
ATOM      7  C   UNL     1     -30.540  28.325   5.960  0.00  0.00    +0.050 C 
ATOM      8  C   UNL     1     -30.486  28.607   4.596  0.00  0.00    +0.016 C 
ATOM      9  C   UNL     1     -31.733  27.889   6.536  0.00  0.00    +0.016 C 
BRANCH   7  11
ATOM     10  O   UNL     1     -28.097  26.585   6.233  0.00  0.00    -0.275 OA
ATOM     11  N   UNL     1     -29.400  28.481   6.749  0.00  0.00    -0.284 N 
ATOM     12  C   UNL     1     -28.287  27.635   6.839  0.00  0.00    +0.227 C 
ATOM     13  C   UNL     1     -27.261  28.161   7.812  0.00  0.00    +0.095 C 
ATOM     14  H   UNL     1     -29.375  29.288   7.314  0.00  0.00    +0.155 HD
ENDBRANCH   7  11
ENDBRANCH   1   4
BRANCH   1  15
ATOM     15  N   UNL     1     -35.340  27.021   4.458  0.00  0.00    -0.215 N 
ATOM     16  H   UNL     1     -35.938  27.535   5.047  0.00  0.00    +0.174 HD
BRANCH  15  17
ATOM     17  C   UNL     1     -35.354  25.583   4.458  0.00  0.00    +0.065 C 
ATOM     18  C   UNL     1     -34.518  24.888   5.323  0.00  0.00    +0.018 C 
ATOM     19  C   UNL     1     -36.205  24.905   3.594  0.00  0.00    +0.018 C 
ATOM     20  C   UNL     1     -35.382  22.804   4.460  0.00  0.00    +0.143 C 
ATOM     21  C   UNL     1     -34.533  23.494   5.324  0.00  0.00    +0.025 C 
ATOM     22  C   UNL     1     -36.218  23.509   3.594  0.00  0.00    +0.025 C 
BRANCH  20  25
ATOM     23  O   UNL     1     -35.523  20.778   3.368  0.00  0.00    -0.126 OA
ATOM     24  O   UNL     1     -35.280  20.775   5.551  0.00  0.00    -0.126 OA
ATOM     25  N   UNL     1     -35.396  21.384   4.460  0.00  0.00    +0.058 N 
ENDBRANCH  20  25
ENDBRANCH  15  17
ENDBRANCH   1  15
TORSDOF 5
ENDMDL
MODEL 7
REMARK VINA RESULT:      -6.4      4.991      8.945
REMARK  Name = 5334
REMARK  5 active torsions:
REMARK  status: ('A' for Active; 'I' for Inactive)
REMARK    1  A    between atoms: S_1  and  C_4
REMARK    2  A    between atoms: S_1  and  N_15
REMARK    3  A    between atoms: C_7  and  N_11
REMARK    4  A    between atoms: N_15  and  C_17
REMARK    5  A    between atoms: C_20  and  N_25
REMARK                            x       y       z     vdW  Elec       q    Type
REMARK                         _______ _______ _______ _____ _____    ______ ____
ROOT
ATOM      1  S   UNL     1     -34.342  27.848   3.319  0.00  0.00    +0.074 S 
ATOM      2  O   UNL     1     -33.476  28.504   4.291  0.00  0.00    -0.150 OA
ATOM      3  O   UNL     1     -33.744  26.951   2.338  0.00  0.00    -0.150 OA
ENDROOT
BRANCH   1   4
ATOM      4  C   UNL     1     -35.228  29.091   2.471  0.00  0.00    +0.125 C 
ATOM      5  C   UNL     1     -35.982  28.766   1.343  0.00  0.00    +0.021 C 
ATOM      6  C   UNL     1     -35.182  30.410   2.922  0.00  0.00    +0.021 C 
ATOM      7  C   UNL     1     -36.644  31.078   1.118  0.00  0.00    +0.050 C 
ATOM      8  C   UNL     1     -36.690  29.759   0.667  0.00  0.00    +0.016 C 
ATOM      9  C   UNL     1     -35.891  31.403   2.245  0.00  0.00    +0.016 C 
BRANCH   7  11
ATOM     10  O   UNL     1     -39.547  31.863   1.279  0.00  0.00    -0.275 OA
ATOM     11  N   UNL     1     -37.353  32.071   0.442  0.00  0.00    -0.284 N 
ATOM     12  C   UNL     1     -38.712  32.394   0.554  0.00  0.00    +0.227 C 
ATOM     13  C   UNL     1     -39.093  33.537  -0.353  0.00  0.00    +0.095 C 
ATOM     14  H   UNL     1     -36.833  32.612  -0.196  0.00  0.00    +0.155 HD
ENDBRANCH   7  11
ENDBRANCH   1   4
BRANCH   1  15
ATOM     15  N   UNL     1     -35.580  27.017   4.180  0.00  0.00    -0.215 N 
ATOM     16  H   UNL     1     -36.315  27.510   4.613  0.00  0.00    +0.174 HD
BRANCH  15  17
ATOM     17  C   UNL     1     -35.511  25.582   4.249  0.00  0.00    +0.065 C 
ATOM     18  C   UNL     1     -34.818  24.977   5.291  0.00  0.00    +0.018 C 
ATOM     19  C   UNL     1     -36.138  24.816   3.274  0.00  0.00    +0.018 C 
ATOM     20  C   UNL     1     -35.377  22.809   4.383  0.00  0.00    +0.143 C 
ATOM     21  C   UNL     1     -34.751  23.586   5.358  0.00  0.00    +0.025 C 
ATOM     22  C   UNL     1     -36.070  23.424   3.341  0.00  0.00    +0.025 C 
BRANCH  20  25
ATOM     23  O   UNL     1     -35.452  20.726   3.397  0.00  0.00    -0.126 OA
ATOM     24  O   UNL     1     -35.104  20.845   5.562  0.00  0.00    -0.126 OA
ATOM     25  N   UNL     1     -35.308  21.392   4.451  0.00  0.00    +0.058 N 
ENDBRANCH  20  25
ENDBRANCH  15  17
ENDBRANCH   1  15
TORSDOF 5
ENDMDL
MODEL 8
REMARK VINA RESULT:      -6.3      1.840      2.281
REMARK  Name = 5334
REMARK  5 active torsions:
REMARK  status: ('A' for Active; 'I' for Inactive)
REMARK    1  A    between atoms: S_1  and  C_4
REMARK    2  A    between atoms: S_1  and  N_15
REMARK    3  A    between atoms: C_7  and  N_11
REMARK    4  A    between atoms: N_15  and  C_17
REMARK    5  A    between atoms: C_20  and  N_25
REMARK                            x       y       z     vdW  Elec       q    Type
REMARK                         _______ _______ _______ _____ _____    ______ ____
ROOT
ATOM      1  S   UNL     1     -37.993  24.356   3.001  0.00  0.00    +0.074 S 
ATOM      2  O   UNL     1     -39.360  23.885   3.188  0.00  0.00    -0.150 OA
ATOM      3  O   UNL     1     -37.727  25.348   1.966  0.00  0.00    -0.150 OA
ENDROOT
BRANCH   1   4
ATOM      4  C   UNL     1     -36.984  22.961   2.709  0.00  0.00    +0.125 C 
ATOM      5  C   UNL     1     -36.950  22.377   1.443  0.00  0.00    +0.021 C 
ATOM      6  C   UNL     1     -36.212  22.431   3.742  0.00  0.00    +0.021 C 
ATOM      7  C   UNL     1     -35.371  20.733   2.243  0.00  0.00    +0.050 C 
ATOM      8  C   UNL     1     -36.143  21.262   1.210  0.00  0.00    +0.016 C 
ATOM      9  C   UNL     1     -35.406  21.317   3.509  0.00  0.00    +0.016 C 
BRANCH   7  11
ATOM     10  O   UNL     1     -32.904  20.427   0.544  0.00  0.00    -0.275 OA
ATOM     11  N   UNL     1     -34.565  19.619   2.010  0.00  0.00    -0.284 N 
ATOM     12  C   UNL     1     -33.422  19.531   1.204  0.00  0.00    +0.227 C 
ATOM     13  C   UNL     1     -32.832  18.143   1.217  0.00  0.00    +0.095 C 
ATOM     14  H   UNL     1     -34.832  18.790   2.469  0.00  0.00    +0.155 HD
ENDBRANCH   7  11
ENDBRANCH   1   4
BRANCH   1  15
ATOM     15  N   UNL     1     -37.414  24.935   4.516  0.00  0.00    -0.215 N 
ATOM     16  H   UNL     1     -37.923  24.780   5.345  0.00  0.00    +0.174 HD
BRANCH  15  17
ATOM     17  C   UNL     1     -36.166  25.650   4.536  0.00  0.00    +0.065 C 
ATOM     18  C   UNL     1     -35.858  26.522   3.499  0.00  0.00    +0.018 C 
ATOM     19  C   UNL     1     -35.283  25.461   5.592  0.00  0.00    +0.018 C 
ATOM     20  C   UNL     1     -33.756  27.032   4.574  0.00  0.00    +0.143 C 
ATOM     21  C   UNL     1     -34.648  27.216   3.519  0.00  0.00    +0.025 C 
ATOM     22  C   UNL     1     -34.072  26.154   5.611  0.00  0.00    +0.025 C 
BRANCH  20  25
ATOM     23  O   UNL     1     -31.555  27.288   3.933  0.00  0.00    -0.126 OA
ATOM     24  O   UNL     1     -32.436  28.791   5.270  0.00  0.00    -0.126 OA
ATOM     25  N   UNL     1     -32.523  27.738   4.594  0.00  0.00    +0.058 N 
ENDBRANCH  20  25
ENDBRANCH  15  17
ENDBRANCH   1  15
TORSDOF 5
ENDMDL
MODEL 9
REMARK VINA RESULT:      -6.2      2.351      7.832
REMARK  Name = 5334
REMARK  5 active torsions:
REMARK  status: ('A' for Active; 'I' for Inactive)
REMARK    1  A    between atoms: S_1  and  C_4
REMARK    2  A    between atoms: S_1  and  N_15
REMARK    3  A    between atoms: C_7  and  N_11
REMARK    4  A    between atoms: N_15  and  C_17
REMARK    5  A    between atoms: C_20  and  N_25
REMARK                            x       y       z     vdW  Elec       q    Type
REMARK                         _______ _______ _______ _____ _____    ______ ____
ROOT
ATOM      1  S   UNL     1     -35.946  22.674   3.485  0.00  0.00    +0.074 S 
ATOM      2  O   UNL     1     -37.384  22.912   3.503  0.00  0.00    -0.150 OA
ATOM      3  O   UNL     1     -35.407  21.573   4.275  0.00  0.00    -0.150 OA
ENDROOT
BRANCH   1   4
ATOM      4  C   UNL     1     -35.156  24.152   3.975  0.00  0.00    +0.125 C 
ATOM      5  C   UNL     1     -35.335  24.645   5.266  0.00  0.00    +0.021 C 
ATOM      6  C   UNL     1     -34.344  24.839   3.072  0.00  0.00    +0.021 C 
ATOM      7  C   UNL     1     -33.891  26.513   4.755  0.00  0.00    +0.050 C 
ATOM      8  C   UNL     1     -34.703  25.826   5.657  0.00  0.00    +0.016 C 
ATOM      9  C   UNL     1     -33.712  26.020   3.463  0.00  0.00    +0.016 C 
BRANCH   7  11
ATOM     10  O   UNL     1     -31.717  26.986   6.784  0.00  0.00    -0.275 OA
ATOM     11  N   UNL     1     -33.259  27.693   5.146  0.00  0.00    -0.284 N 
ATOM     12  C   UNL     1     -32.247  27.858   6.102  0.00  0.00    +0.227 C 
ATOM     13  C   UNL     1     -31.829  29.302   6.232  0.00  0.00    +0.095 C 
ATOM     14  H   UNL     1     -33.561  28.514   4.693  0.00  0.00    +0.155 HD
ENDBRANCH   7  11
ENDBRANCH   1   4
BRANCH   1  15
ATOM     15  N   UNL     1     -35.452  22.502   1.844  0.00  0.00    -0.215 N 
ATOM     16  H   UNL     1     -35.264  23.291   1.287  0.00  0.00    +0.174 HD
BRANCH  15  17
ATOM     17  C   UNL     1     -35.321  21.172   1.312  0.00  0.00    +0.065 C 
ATOM     18  C   UNL     1     -34.061  20.596   1.205  0.00  0.00    +0.018 C 
ATOM     19  C   UNL     1     -36.456  20.477   0.912  0.00  0.00    +0.018 C 
ATOM     20  C   UNL     1     -35.068  18.602   0.285  0.00  0.00    +0.143 C 
ATOM     21  C   UNL     1     -33.934  19.306   0.690  0.00  0.00    +0.025 C 
ATOM     22  C   UNL     1     -36.329  19.187   0.396  0.00  0.00    +0.025 C 
BRANCH  20  25
ATOM     23  O   UNL     1     -35.951  16.727  -0.726  0.00  0.00    -0.126 OA
ATOM     24  O   UNL     1     -33.817  16.727  -0.206  0.00  0.00    -0.126 OA
ATOM     25  N   UNL     1     -34.939  17.289  -0.240  0.00  0.00    +0.058 N 
ENDBRANCH  20  25
ENDBRANCH  15  17
ENDBRANCH   1  15
TORSDOF 5
ENDMDL
