MODEL 1
REMARK VINA RESULT:      -4.8      0.000      0.000
REMARK  Name = 54693469
REMARK  7 active torsions:
REMARK  status: ('A' for Active; 'I' for Inactive)
REMARK    1  A    between atoms: C_3  and  C_11
REMARK    2  A    between atoms: C_4  and  O_7
REMARK    3  A    between atoms: C_5  and  O_9
REMARK    4  A    between atoms: C_11  and  O_12
REMARK    5  A    between atoms: C_11  and  C_14
REMARK    6  A    between atoms: C_14  and  O_15
REMARK    7  A    between atoms: O_15  and  C_17
REMARK                            x       y       z     vdW  Elec       q    Type
REMARK                         _______ _______ _______ _____ _____    ______ ____
ROOT
ATOM      1  O   UNL     1     -33.349  25.133   4.489  0.00  0.00    -0.436 OA
ATOM      2  O   UNL     1     -32.749  26.736   2.944  0.00  0.00    -0.241 OA
ATOM      3  C   UNL     1     -34.517  24.868   5.293  0.00  0.00    +0.258 C 
ATOM      4  C   UNL     1     -35.421  25.978   4.935  0.00  0.00    +0.195 C 
ATOM      5  C   UNL     1     -34.876  26.790   4.035  0.00  0.00    +0.244 C 
ATOM      6  C   UNL     1     -33.546  26.256   3.732  0.00  0.00    +0.379 C 
ENDROOT
BRANCH   4   7
ATOM      7  O   UNL     1     -36.648  26.125   5.513  0.00  0.00    -0.504 OA
ATOM      8  H   UNL     1     -37.414  25.818   5.070  0.00  0.00    +0.292 HD
ENDBRANCH   4   7
BRANCH   5   9
ATOM      9  O   UNL     1     -35.402  27.912   3.480  0.00  0.00    -0.499 OA
ATOM     10  H   UNL     1     -35.757  27.882   2.614  0.00  0.00    +0.293 HD
ENDBRANCH   5   9
BRANCH   3  11
ATOM     11  C   UNL     1     -35.055  23.492   4.932  0.00  0.00    +0.202 C 
BRANCH  11  12
ATOM     12  O   UNL     1     -36.058  23.124   5.878  0.00  0.00    -0.377 OA
ATOM     13  H   UNL     1     -36.928  23.147   5.451  0.00  0.00    +0.211 HD
ENDBRANCH  11  12
BRANCH  11  14
ATOM     14  C   UNL     1     -35.681  23.486   3.543  0.00  0.00    +0.242 C 
BRANCH  14  15
ATOM     15  O   UNL     1     -37.034  23.054   3.648  0.00  0.00    -0.446 OA
BRANCH  15  17
ATOM     16  O   UNL     1     -38.683  24.670   3.731  0.00  0.00    -0.250 OA
ATOM     17  C   UNL     1     -37.968  23.895   3.110  0.00  0.00    +0.318 C 
ATOM     18  C   UNL     1     -38.000  23.734   1.620  0.00  0.00    +0.121 C 
ENDBRANCH  15  17
ENDBRANCH  14  15
ENDBRANCH  11  14
ENDBRANCH   3  11
TORSDOF 7
ENDMDL
MODEL 2
REMARK VINA RESULT:      -4.8      1.822      4.901
REMARK  Name = 54693469
REMARK  7 active torsions:
REMARK  status: ('A' for Active; 'I' for Inactive)
REMARK    1  A    between atoms: C_3  and  C_11
REMARK    2  A    between atoms: C_4  and  O_7
REMARK    3  A    between atoms: C_5  and  O_9
REMARK    4  A    between atoms: C_11  and  O_12
REMARK    5  A    between atoms: C_11  and  C_14
REMARK    6  A    between atoms: C_14  and  O_15
REMARK    7  A    between atoms: O_15  and  C_17
REMARK                            x       y       z     vdW  Elec       q    Type
REMARK                         _______ _______ _______ _____ _____    ______ ____
ROOT
ATOM      1  O   UNL     1     -35.236  23.223   3.863  0.00  0.00    -0.436 OA
ATOM      2  O   UNL     1     -35.284  20.946   4.220  0.00  0.00    -0.241 OA
ATOM      3  C   UNL     1     -36.028  24.162   3.105  0.00  0.00    +0.258 C 
ATOM      4  C   UNL     1     -37.036  23.296   2.463  0.00  0.00    +0.195 C 
ATOM      5  C   UNL     1     -36.878  22.019   2.797  0.00  0.00    +0.244 C 
ATOM      6  C   UNL     1     -35.729  21.956   3.703  0.00  0.00    +0.379 C 
ENDROOT
BRANCH   4   7
ATOM      7  O   UNL     1     -37.978  23.794   1.611  0.00  0.00    -0.504 OA
ATOM      8  H   UNL     1     -37.954  23.569   0.702  0.00  0.00    +0.292 HD
ENDBRANCH   4   7
BRANCH   5   9
ATOM      9  O   UNL     1     -37.605  20.945   2.397  0.00  0.00    -0.499 OA
ATOM     10  H   UNL     1     -38.278  21.049   1.755  0.00  0.00    +0.293 HD
ENDBRANCH   5   9
BRANCH   3  11
ATOM     11  C   UNL     1     -36.614  25.189   4.062  0.00  0.00    +0.202 C 
BRANCH  11  12
ATOM     12  O   UNL     1     -37.979  24.859   4.315  0.00  0.00    -0.377 OA
ATOM     13  H   UNL     1     -38.532  25.192   3.591  0.00  0.00    +0.211 HD
ENDBRANCH  11  12
BRANCH  11  14
ATOM     14  C   UNL     1     -35.870  25.200   5.392  0.00  0.00    +0.242 C 
BRANCH  14  15
ATOM     15  O   UNL     1     -35.138  26.416   5.501  0.00  0.00    -0.446 OA
BRANCH  15  17
ATOM     16  O   UNL     1     -33.175  25.834   4.431  0.00  0.00    -0.250 OA
ATOM     17  C   UNL     1     -33.781  26.303   5.385  0.00  0.00    +0.318 C 
ATOM     18  C   UNL     1     -33.118  26.845   6.615  0.00  0.00    +0.121 C 
ENDBRANCH  15  17
ENDBRANCH  14  15
ENDBRANCH  11  14
ENDBRANCH   3  11
TORSDOF 7
ENDMDL
MODEL 3
REMARK VINA RESULT:      -4.8      2.288      5.316
REMARK  Name = 54693469
REMARK  7 active torsions:
REMARK  status: ('A' for Active; 'I' for Inactive)
REMARK    1  A    between atoms: C_3  and  C_11
REMARK    2  A    between atoms: C_4  and  O_7
REMARK    3  A    between atoms: C_5  and  O_9
REMARK    4  A    between atoms: C_11  and  O_12
REMARK    5  A    between atoms: C_11  and  C_14
REMARK    6  A    between atoms: C_14  and  O_15
REMARK    7  A    between atoms: O_15  and  C_17
REMARK                            x       y       z     vdW  Elec       q    Type
REMARK                         _______ _______ _______ _____ _____    ______ ____
ROOT
ATOM      1  O   UNL     1     -37.326  23.294   1.941  0.00  0.00    -0.436 OA
ATOM      2  O   UNL     1     -37.144  21.016   2.245  0.00  0.00    -0.241 OA
ATOM      3  C   UNL     1     -38.416  24.226   1.787  0.00  0.00    +0.258 C 
ATOM      4  C   UNL     1     -39.605  23.352   1.842  0.00  0.00    +0.195 C 
ATOM      5  C   UNL     1     -39.274  22.077   2.015  0.00  0.00    +0.244 C 
ATOM      6  C   UNL     1     -37.812  22.023   2.088  0.00  0.00    +0.379 C 
ENDROOT
BRANCH   4   7
ATOM      7  O   UNL     1     -40.870  23.843   1.696  0.00  0.00    -0.504 OA
ATOM      8  H   UNL     1     -41.170  24.121   0.853  0.00  0.00    +0.292 HD
ENDBRANCH   4   7
BRANCH   5   9
ATOM      9  O   UNL     1     -40.091  20.996   2.103  0.00  0.00    -0.499 OA
ATOM     10  H   UNL     1     -39.932  20.341   2.753  0.00  0.00    +0.293 HD
ENDBRANCH   5   9
BRANCH   3  11
ATOM     11  C   UNL     1     -38.347  25.247   2.913  0.00  0.00    +0.202 C 
BRANCH  11  12
ATOM     12  O   UNL     1     -39.224  24.838   3.962  0.00  0.00    -0.377 OA
ATOM     13  H   UNL     1     -39.262  25.531   4.640  0.00  0.00    +0.211 HD
ENDBRANCH  11  12
BRANCH  11  14
ATOM     14  C   UNL     1     -36.937  25.354   3.482  0.00  0.00    +0.242 C 
BRANCH  14  15
ATOM     15  O   UNL     1     -36.940  24.868   4.820  0.00  0.00    -0.446 OA
BRANCH  15  17
ATOM     16  O   UNL     1     -36.149  22.743   5.259  0.00  0.00    -0.250 OA
ATOM     17  C   UNL     1     -35.977  23.946   5.118  0.00  0.00    +0.318 C 
ATOM     18  C   UNL     1     -34.647  24.625   5.252  0.00  0.00    +0.121 C 
ENDBRANCH  15  17
ENDBRANCH  14  15
ENDBRANCH  11  14
ENDBRANCH   3  11
TORSDOF 7
ENDMDL
MODEL 4
REMARK VINA RESULT:      -4.8      2.291      5.456
REMARK  Name = 54693469
REMARK  7 active torsions:
REMARK  status: ('A' for Active; 'I' for Inactive)
REMARK    1  A    between atoms: C_3  and  C_11
REMARK    2  A    between atoms: C_4  and  O_7
REMARK    3  A    between atoms: C_5  and  O_9
REMARK    4  A    between atoms: C_11  and  O_12
REMARK    5  A    between atoms: C_11  and  C_14
REMARK    6  A    between atoms: C_14  and  O_15
REMARK    7  A    between atoms: O_15  and  C_17
REMARK                            x       y       z     vdW  Elec       q    Type
REMARK                         _______ _______ _______ _____ _____    ______ ____
ROOT
ATOM      1  O   UNL     1     -34.478  24.090   5.426  0.00  0.00    -0.436 OA
ATOM      2  O   UNL     1     -35.908  22.477   6.240  0.00  0.00    -0.241 OA
ATOM      3  C   UNL     1     -34.386  24.864   4.212  0.00  0.00    +0.258 C 
ATOM      4  C   UNL     1     -35.530  24.370   3.421  0.00  0.00    +0.195 C 
ATOM      5  C   UNL     1     -36.218  23.439   4.074  0.00  0.00    +0.244 C 
ATOM      6  C   UNL     1     -35.558  23.252   5.368  0.00  0.00    +0.379 C 
ENDROOT
BRANCH   4   7
ATOM      7  O   UNL     1     -35.788  24.828   2.162  0.00  0.00    -0.504 OA
ATOM      8  H   UNL     1     -35.707  24.251   1.428  0.00  0.00    +0.292 HD
ENDBRANCH   4   7
BRANCH   5   9
ATOM      9  O   UNL     1     -37.316  22.756   3.662  0.00  0.00    -0.499 OA
ATOM     10  H   UNL     1     -38.167  23.023   3.949  0.00  0.00    +0.293 HD
ENDBRANCH   5   9
BRANCH   3  11
ATOM     11  C   UNL     1     -34.471  26.341   4.568  0.00  0.00    +0.202 C 
BRANCH  11  12
ATOM     12  O   UNL     1     -35.809  26.645   4.959  0.00  0.00    -0.377 OA
ATOM     13  H   UNL     1     -36.109  27.441   4.493  0.00  0.00    +0.211 HD
ENDBRANCH  11  12
BRANCH  11  14
ATOM     14  C   UNL     1     -33.543  26.689   5.726  0.00  0.00    +0.242 C 
BRANCH  14  15
ATOM     15  O   UNL     1     -32.912  27.936   5.453  0.00  0.00    -0.446 OA
BRANCH  15  17
ATOM     16  O   UNL     1     -30.925  27.414   6.509  0.00  0.00    -0.250 OA
ATOM     17  C   UNL     1     -31.798  28.212   6.195  0.00  0.00    +0.318 C 
ATOM     18  C   UNL     1     -31.790  29.660   6.582  0.00  0.00    +0.121 C 
ENDBRANCH  15  17
ENDBRANCH  14  15
ENDBRANCH  11  14
ENDBRANCH   3  11
TORSDOF 7
ENDMDL
MODEL 5
REMARK VINA RESULT:      -4.7      1.526      2.089
REMARK  Name = 54693469
REMARK  7 active torsions:
REMARK  status: ('A' for Active; 'I' for Inactive)
REMARK    1  A    between atoms: C_3  and  C_11
REMARK    2  A    between atoms: C_4  and  O_7
REMARK    3  A    between atoms: C_5  and  O_9
REMARK    4  A    between atoms: C_11  and  O_12
REMARK    5  A    between atoms: C_11  and  C_14
REMARK    6  A    between atoms: C_14  and  O_15
REMARK    7  A    between atoms: O_15  and  C_17
REMARK                            x       y       z     vdW  Elec       q    Type
REMARK                         _______ _______ _______ _____ _____    ______ ____
ROOT
ATOM      1  O   UNL     1     -33.786  24.674   4.774  0.00  0.00    -0.436 OA
ATOM      2  O   UNL     1     -32.739  25.961   3.174  0.00  0.00    -0.241 OA
ATOM      3  C   UNL     1     -34.991  24.789   5.559  0.00  0.00    +0.258 C 
ATOM      4  C   UNL     1     -35.541  26.089   5.125  0.00  0.00    +0.195 C 
ATOM      5  C   UNL     1     -34.778  26.667   4.203  0.00  0.00    +0.244 C 
ATOM      6  C   UNL     1     -33.648  25.766   3.961  0.00  0.00    +0.379 C 
ENDROOT
BRANCH   4   7
ATOM      7  O   UNL     1     -36.684  26.605   5.663  0.00  0.00    -0.504 OA
ATOM      8  H   UNL     1     -37.400  26.839   5.106  0.00  0.00    +0.292 HD
ENDBRANCH   4   7
BRANCH   5   9
ATOM      9  O   UNL     1     -34.959  27.861   3.583  0.00  0.00    -0.499 OA
ATOM     10  H   UNL     1     -35.822  28.136   3.344  0.00  0.00    +0.293 HD
ENDBRANCH   5   9
BRANCH   3  11
ATOM     11  C   UNL     1     -35.891  23.603   5.247  0.00  0.00    +0.202 C 
BRANCH  11  12
ATOM     12  O   UNL     1     -36.964  24.042   4.415  0.00  0.00    -0.377 OA
ATOM     13  H   UNL     1     -36.616  24.610   3.710  0.00  0.00    +0.211 HD
ENDBRANCH  11  12
BRANCH  11  14
ATOM     14  C   UNL     1     -35.132  22.507   4.509  0.00  0.00    +0.242 C 
BRANCH  14  15
ATOM     15  O   UNL     1     -35.616  22.428   3.173  0.00  0.00    -0.446 OA
BRANCH  15  17
ATOM     16  O   UNL     1     -35.082  20.202   2.865  0.00  0.00    -0.250 OA
ATOM     17  C   UNL     1     -35.814  21.167   2.687  0.00  0.00    +0.318 C 
ATOM     18  C   UNL     1     -37.080  21.123   1.887  0.00  0.00    +0.121 C 
ENDBRANCH  15  17
ENDBRANCH  14  15
ENDBRANCH  11  14
ENDBRANCH   3  11
TORSDOF 7
ENDMDL
MODEL 6
REMARK VINA RESULT:      -4.7      1.615      4.510
REMARK  Name = 54693469
REMARK  7 active torsions:
REMARK  status: ('A' for Active; 'I' for Inactive)
REMARK    1  A    between atoms: C_3  and  C_11
REMARK    2  A    between atoms: C_4  and  O_7
REMARK    3  A    between atoms: C_5  and  O_9
REMARK    4  A    between atoms: C_11  and  O_12
REMARK    5  A    between atoms: C_11  and  C_14
REMARK    6  A    between atoms: C_14  and  O_15
REMARK    7  A    between atoms: O_15  and  C_17
REMARK                            x       y       z     vdW  Elec       q    Type
REMARK                         _______ _______ _______ _____ _____    ______ ____
ROOT
ATOM      1  O   UNL     1     -36.693  23.904   4.387  0.00  0.00    -0.436 OA
ATOM      2  O   UNL     1     -37.225  22.752   2.463  0.00  0.00    -0.241 OA
ATOM      3  C   UNL     1     -35.850  23.658   5.532  0.00  0.00    +0.258 C 
ATOM      4  C   UNL     1     -35.298  22.318   5.251  0.00  0.00    +0.195 C 
ATOM      5  C   UNL     1     -35.740  21.833   4.095  0.00  0.00    +0.244 C 
ATOM      6  C   UNL     1     -36.633  22.844   3.524  0.00  0.00    +0.379 C 
ENDROOT
BRANCH   4   7
ATOM      7  O   UNL     1     -34.461  21.684   6.122  0.00  0.00    -0.504 OA
ATOM      8  H   UNL     1     -34.752  20.919   6.578  0.00  0.00    +0.292 HD
ENDBRANCH   4   7
BRANCH   5   9
ATOM      9  O   UNL     1     -35.458  20.637   3.517  0.00  0.00    -0.499 OA
ATOM     10  H   UNL     1     -35.732  19.843   3.930  0.00  0.00    +0.293 HD
ENDBRANCH   5   9
BRANCH   3  11
ATOM     11  C   UNL     1     -34.799  24.755   5.608  0.00  0.00    +0.202 C 
BRANCH  11  12
ATOM     12  O   UNL     1     -33.734  24.439   4.713  0.00  0.00    -0.377 OA
ATOM     13  H   UNL     1     -33.260  23.658   5.039  0.00  0.00    +0.211 HD
ENDBRANCH  11  12
BRANCH  11  14
ATOM     14  C   UNL     1     -35.376  26.107   5.205  0.00  0.00    +0.242 C 
BRANCH  14  15
ATOM     15  O   UNL     1     -34.370  26.858   4.535  0.00  0.00    -0.446 OA
BRANCH  15  17
ATOM     16  O   UNL     1     -34.760  28.784   3.319  0.00  0.00    -0.250 OA
ATOM     17  C   UNL     1     -34.787  27.567   3.443  0.00  0.00    +0.318 C 
ATOM     18  C   UNL     1     -35.296  26.628   2.391  0.00  0.00    +0.121 C 
ENDBRANCH  15  17
ENDBRANCH  14  15
ENDBRANCH  11  14
ENDBRANCH   3  11
TORSDOF 7
ENDMDL
MODEL 7
REMARK VINA RESULT:      -4.7      2.888      4.550
REMARK  Name = 54693469
REMARK  7 active torsions:
REMARK  status: ('A' for Active; 'I' for Inactive)
REMARK    1  A    between atoms: C_3  and  C_11
REMARK    2  A    between atoms: C_4  and  O_7
REMARK    3  A    between atoms: C_5  and  O_9
REMARK    4  A    between atoms: C_11  and  O_12
REMARK    5  A    between atoms: C_11  and  C_14
REMARK    6  A    between atoms: C_14  and  O_15
REMARK    7  A    between atoms: O_15  and  C_17
REMARK                            x       y       z     vdW  Elec       q    Type
REMARK                         _______ _______ _______ _____ _____    ______ ____
ROOT
ATOM      1  O   UNL     1     -36.270  23.257   3.107  0.00  0.00    -0.436 OA
ATOM      2  O   UNL     1     -36.164  23.593   5.385  0.00  0.00    -0.241 OA
ATOM      3  C   UNL     1     -35.980  22.160   2.216  0.00  0.00    +0.258 C 
ATOM      4  C   UNL     1     -35.501  21.109   3.135  0.00  0.00    +0.195 C 
ATOM      5  C   UNL     1     -35.513  21.514   4.400  0.00  0.00    +0.244 C 
ATOM      6  C   UNL     1     -36.012  22.891   4.401  0.00  0.00    +0.379 C 
ENDROOT
BRANCH   4   7
ATOM      7  O   UNL     1     -35.079  19.893   2.683  0.00  0.00    -0.504 OA
ATOM      8  H   UNL     1     -34.447  19.404   3.172  0.00  0.00    +0.292 HD
ENDBRANCH   4   7
BRANCH   5   9
ATOM      9  O   UNL     1     -35.138  20.829   5.510  0.00  0.00    -0.499 OA
ATOM     10  H   UNL     1     -35.709  20.792   6.252  0.00  0.00    +0.293 HD
ENDBRANCH   5   9
BRANCH   3  11
ATOM     11  C   UNL     1     -37.250  21.794   1.465  0.00  0.00    +0.202 C 
BRANCH  11  12
ATOM     12  O   UNL     1     -37.974  20.827   2.225  0.00  0.00    -0.377 OA
ATOM     13  H   UNL     1     -37.908  19.961   1.794  0.00  0.00    +0.211 HD
ENDBRANCH  11  12
BRANCH  11  14
ATOM     14  C   UNL     1     -38.146  23.009   1.258  0.00  0.00    +0.242 C 
BRANCH  14  15
ATOM     15  O   UNL     1     -39.279  22.899   2.113  0.00  0.00    -0.446 OA
BRANCH  15  17
ATOM     16  O   UNL     1     -39.387  24.553   3.723  0.00  0.00    -0.250 OA
ATOM     17  C   UNL     1     -39.732  24.070   2.652  0.00  0.00    +0.318 C 
ATOM     18  C   UNL     1     -40.733  24.700   1.732  0.00  0.00    +0.121 C 
ENDBRANCH  15  17
ENDBRANCH  14  15
ENDBRANCH  11  14
ENDBRANCH   3  11
TORSDOF 7
ENDMDL
MODEL 8
REMARK VINA RESULT:      -4.7      4.324      6.459
REMARK  Name = 54693469
REMARK  7 active torsions:
REMARK  status: ('A' for Active; 'I' for Inactive)
REMARK    1  A    between atoms: C_3  and  C_11
REMARK    2  A    between atoms: C_4  and  O_7
REMARK    3  A    between atoms: C_5  and  O_9
REMARK    4  A    between atoms: C_11  and  O_12
REMARK    5  A    between atoms: C_11  and  C_14
REMARK    6  A    between atoms: C_14  and  O_15
REMARK    7  A    between atoms: O_15  and  C_17
REMARK                            x       y       z     vdW  Elec       q    Type
REMARK                         _______ _______ _______ _____ _____    ______ ____
ROOT
ATOM      1  O   UNL     1     -34.407  20.927   0.777  0.00  0.00    -0.436 OA
ATOM      2  O   UNL     1     -32.393  19.805   0.758  0.00  0.00    -0.241 OA
ATOM      3  C   UNL     1     -35.797  20.544   0.726  0.00  0.00    +0.258 C 
ATOM      4  C   UNL     1     -35.728  19.073   0.621  0.00  0.00    +0.195 C 
ATOM      5  C   UNL     1     -34.473  18.635   0.620  0.00  0.00    +0.244 C 
ATOM      6  C   UNL     1     -33.611  19.814   0.727  0.00  0.00    +0.379 C 
ENDROOT
BRANCH   4   7
ATOM      7  O   UNL     1     -36.850  18.305   0.511  0.00  0.00    -0.504 OA
ATOM      8  H   UNL     1     -36.931  17.693  -0.194  0.00  0.00    +0.292 HD
ENDBRANCH   4   7
BRANCH   5   9
ATOM      9  O   UNL     1     -34.025  17.357   0.529  0.00  0.00    -0.499 OA
ATOM     10  H   UNL     1     -33.135  17.158   0.743  0.00  0.00    +0.293 HD
ENDBRANCH   5   9
BRANCH   3  11
ATOM     11  C   UNL     1     -36.486  21.043   1.988  0.00  0.00    +0.202 C 
BRANCH  11  12
ATOM     12  O   UNL     1     -36.729  19.933   2.851  0.00  0.00    -0.377 OA
ATOM     13  H   UNL     1     -36.456  20.159   3.754  0.00  0.00    +0.211 HD
ENDBRANCH  11  12
BRANCH  11  14
ATOM     14  C   UNL     1     -35.619  22.049   2.735  0.00  0.00    +0.242 C 
BRANCH  14  15
ATOM     15  O   UNL     1     -35.445  21.603   4.076  0.00  0.00    -0.446 OA
BRANCH  15  17
ATOM     16  O   UNL     1     -36.433  23.520   4.904  0.00  0.00    -0.250 OA
ATOM     17  C   UNL     1     -35.753  22.513   5.048  0.00  0.00    +0.318 C 
ATOM     18  C   UNL     1     -35.131  22.100   6.348  0.00  0.00    +0.121 C 
ENDBRANCH  15  17
ENDBRANCH  14  15
ENDBRANCH  11  14
ENDBRANCH   3  11
TORSDOF 7
ENDMDL
MODEL 9
REMARK VINA RESULT:      -4.7      2.579      5.175
REMARK  Name = 54693469
REMARK  7 active torsions:
REMARK  status: ('A' for Active; 'I' for Inactive)
REMARK    1  A    between atoms: C_3  and  C_11
REMARK    2  A    between atoms: C_4  and  O_7
REMARK    3  A    between atoms: C_5  and  O_9
REMARK    4  A    between atoms: C_11  and  O_12
REMARK    5  A    between atoms: C_11  and  C_14
REMARK    6  A    between atoms: C_14  and  O_15
REMARK    7  A    between atoms: O_15  and  C_17
REMARK                            x       y       z     vdW  Elec       q    Type
REMARK                         _______ _______ _______ _____ _____    ______ ____
ROOT
ATOM      1  O   UNL     1     -35.049  22.309   1.869  0.00  0.00    -0.436 OA
ATOM      2  O   UNL     1     -34.014  20.352   1.225  0.00  0.00    -0.241 OA
ATOM      3  C   UNL     1     -36.383  22.682   2.272  0.00  0.00    +0.258 C 
ATOM      4  C   UNL     1     -37.122  21.408   2.175  0.00  0.00    +0.195 C 
ATOM      5  C   UNL     1     -36.339  20.410   1.779  0.00  0.00    +0.244 C 
ATOM      6  C   UNL     1     -35.000  20.971   1.585  0.00  0.00    +0.379 C 
ENDROOT
BRANCH   4   7
ATOM      7  O   UNL     1     -38.458  21.326   2.441  0.00  0.00    -0.504 OA
ATOM      8  H   UNL     1     -39.054  21.057   1.771  0.00  0.00    +0.292 HD
ENDBRANCH   4   7
BRANCH   5   9
ATOM      9  O   UNL     1     -36.668  19.109   1.571  0.00  0.00    -0.499 OA
ATOM     10  H   UNL     1     -36.164  18.589   0.977  0.00  0.00    +0.293 HD
ENDBRANCH   5   9
BRANCH   3  11
ATOM     11  C   UNL     1     -36.324  23.257   3.679  0.00  0.00    +0.202 C 
BRANCH  11  12
ATOM     12  O   UNL     1     -36.426  22.189   4.619  0.00  0.00    -0.377 OA
ATOM     13  H   UNL     1     -37.106  21.563   4.326  0.00  0.00    +0.211 HD
ENDBRANCH  11  12
BRANCH  11  14
ATOM     14  C   UNL     1     -35.011  23.989   3.927  0.00  0.00    +0.242 C 
BRANCH  14  15
ATOM     15  O   UNL     1     -34.943  24.367   5.298  0.00  0.00    -0.446 OA
BRANCH  15  17
ATOM     16  O   UNL     1     -36.116  26.352   5.438  0.00  0.00    -0.250 OA
ATOM     17  C   UNL     1     -35.086  25.701   5.553  0.00  0.00    +0.318 C 
ATOM     18  C   UNL     1     -33.777  26.275   6.004  0.00  0.00    +0.121 C 
ENDBRANCH  15  17
ENDBRANCH  14  15
ENDBRANCH  11  14
ENDBRANCH   3  11
TORSDOF 7
ENDMDL
