MODEL 1
REMARK VINA RESULT:      -6.6      0.000      0.000
REMARK  Name = 54729460
REMARK  13 active torsions:
REMARK  status: ('A' for Active; 'I' for Inactive)
REMARK    1  A    between atoms: N_2  and  O_20
REMARK    2  A    between atoms: C_3  and  C_8
REMARK    3  A    between atoms: C_4  and  O_18
REMARK    4  A    between atoms: C_6  and  C_23
REMARK    5  A    between atoms: C_8  and  O_14
REMARK    6  A    between atoms: C_13  and  O_16
REMARK    7  A    between atoms: C_23  and  C_24
REMARK    8  A    between atoms: C_25  and  C_26
REMARK    9  A    between atoms: C_27  and  C_29
REMARK   10  A    between atoms: C_28  and  C_30
REMARK   11  A    between atoms: C_30  and  C_31
REMARK   12  A    between atoms: C_30  and  C_33
REMARK   13  A    between atoms: C_33  and  O_34
REMARK                            x       y       z     vdW  Elec       q    Type
REMARK                         _______ _______ _______ _____ _____    ______ ____
ROOT
ATOM      1  O   UNL     1     -32.911  28.320   0.744  0.00  0.00    -0.267 OA
ATOM      2  N   UNL     1     -33.565  26.128   1.033  0.00  0.00    -0.145 N 
ATOM      3  C   UNL     1     -34.669  25.389   2.960  0.00  0.00    +0.053 C 
ATOM      4  C   UNL     1     -34.662  26.768   3.450  0.00  0.00    +0.141 C 
ATOM      5  C   UNL     1     -34.116  25.122   1.767  0.00  0.00    +0.098 C 
ATOM      6  C   UNL     1     -34.095  27.768   2.737  0.00  0.00    +0.128 C 
ATOM      7  C   UNL     1     -33.462  27.443   1.406  0.00  0.00    +0.281 C 
ENDROOT
BRANCH   3   8
ATOM      8  C   UNL     1     -35.278  24.285   3.775  0.00  0.00    +0.111 C 
ATOM      9  C   UNL     1     -34.552  24.134   5.123  0.00  0.00    +0.034 C 
ATOM     10  C   UNL     1     -35.253  22.963   2.992  0.00  0.00    +0.034 C 
ATOM     11  C   UNL     1     -35.088  22.959   5.940  0.00  0.00    +0.032 C 
ATOM     12  C   UNL     1     -35.784  21.790   3.817  0.00  0.00    +0.032 C 
ATOM     13  C   UNL     1     -35.046  21.655   5.146  0.00  0.00    +0.111 C 
BRANCH   8  14
ATOM     14  O   UNL     1     -36.645  24.629   4.017  0.00  0.00    -0.383 OA
ATOM     15  H   UNL     1     -36.686  25.417   4.580  0.00  0.00    +0.211 HD
ENDBRANCH   8  14
BRANCH  13  16
ATOM     16  O   UNL     1     -35.655  20.614   5.901  0.00  0.00    -0.384 OA
ATOM     17  H   UNL     1     -35.155  19.792   5.779  0.00  0.00    +0.210 HD
ENDBRANCH  13  16
ENDBRANCH   3   8
BRANCH   4  18
ATOM     18  O   UNL     1     -35.253  27.024   4.675  0.00  0.00    -0.505 OA
ATOM     19  H   UNL     1     -36.186  27.001   4.758  0.00  0.00    +0.292 HD
ENDBRANCH   4  18
BRANCH   2  20
ATOM     20  O   UNL     1     -33.054  25.785  -0.226  0.00  0.00    -0.287 OA
ATOM     21  H   UNL     1     -32.128  25.780  -0.370  0.00  0.00    +0.242 HD
ENDBRANCH   2  20
BRANCH   6  23
ATOM     22  O   UNL     1     -33.278  29.510   4.093  0.00  0.00    -0.286 OA
ATOM     23  C   UNL     1     -34.101  29.145   3.262  0.00  0.00    +0.203 C 
BRANCH  23  24
ATOM     24  C   UNL     1     -35.165  30.016   2.707  0.00  0.00    +0.042 C 
ATOM     25  C   UNL     1     -34.913  31.310   2.465  0.00  0.00    +0.003 C 
BRANCH  25  26
ATOM     26  C   UNL     1     -35.907  32.212   1.926  0.00  0.00    +0.000 C 
ATOM     27  C   UNL     1     -37.214  31.913   1.873  0.00  0.00    -0.000 C 
BRANCH  27  29
ATOM     28  C   UNL     1     -38.559  33.963   1.932  0.00  0.00    -0.024 C 
ATOM     29  C   UNL     1     -38.208  32.816   1.331  0.00  0.00    -0.005 C 
BRANCH  28  30
ATOM     30  C   UNL     1     -39.580  34.978   1.452  0.00  0.00    +0.051 C 
BRANCH  30  31
ATOM     31  C   UNL     1     -39.062  36.098   0.525  0.00  0.00    +0.007 C 
ATOM     32  C   UNL     1     -37.613  36.486   0.802  0.00  0.00    +0.000 C 
ENDBRANCH  30  31
BRANCH  30  33
ATOM     33  C   UNL     1     -40.309  35.572   2.669  0.00  0.00    +0.141 C 
BRANCH  33  34
ATOM     34  O   UNL     1     -41.462  34.803   2.989  0.00  0.00    -0.382 OA
ATOM     35  H   UNL     1     -41.978  34.645   2.183  0.00  0.00    +0.210 HD
ENDBRANCH  33  34
ENDBRANCH  30  33
ENDBRANCH  28  30
ENDBRANCH  27  29
ENDBRANCH  25  26
ENDBRANCH  23  24
ENDBRANCH   6  23
TORSDOF 13
ENDMDL
MODEL 2
REMARK VINA RESULT:      -6.4      5.925      7.810
REMARK  Name = 54729460
REMARK  13 active torsions:
REMARK  status: ('A' for Active; 'I' for Inactive)
REMARK    1  A    between atoms: N_2  and  O_20
REMARK    2  A    between atoms: C_3  and  C_8
REMARK    3  A    between atoms: C_4  and  O_18
REMARK    4  A    between atoms: C_6  and  C_23
REMARK    5  A    between atoms: C_8  and  O_14
REMARK    6  A    between atoms: C_13  and  O_16
REMARK    7  A    between atoms: C_23  and  C_24
REMARK    8  A    between atoms: C_25  and  C_26
REMARK    9  A    between atoms: C_27  and  C_29
REMARK   10  A    between atoms: C_28  and  C_30
REMARK   11  A    between atoms: C_30  and  C_31
REMARK   12  A    between atoms: C_30  and  C_33
REMARK   13  A    between atoms: C_33  and  O_34
REMARK                            x       y       z     vdW  Elec       q    Type
REMARK                         _______ _______ _______ _____ _____    ______ ____
ROOT
ATOM      1  O   UNL     1     -37.476  24.884   4.026  0.00  0.00    -0.267 OA
ATOM      2  N   UNL     1     -37.809  23.578   2.156  0.00  0.00    -0.145 N 
ATOM      3  C   UNL     1     -36.688  21.551   1.822  0.00  0.00    +0.053 C 
ATOM      4  C   UNL     1     -36.062  21.722   3.134  0.00  0.00    +0.141 C 
ATOM      5  C   UNL     1     -37.539  22.490   1.382  0.00  0.00    +0.098 C 
ATOM      6  C   UNL     1     -36.307  22.812   3.897  0.00  0.00    +0.128 C 
ATOM      7  C   UNL     1     -37.253  23.866   3.374  0.00  0.00    +0.281 C 
ENDROOT
BRANCH   3   8
ATOM      8  C   UNL     1     -36.385  20.349   0.975  0.00  0.00    +0.111 C 
ATOM      9  C   UNL     1     -34.896  20.311   0.590  0.00  0.00    +0.034 C 
ATOM     10  C   UNL     1     -37.273  20.339  -0.280  0.00  0.00    +0.034 C 
ATOM     11  C   UNL     1     -34.571  19.148  -0.348  0.00  0.00    +0.032 C 
ATOM     12  C   UNL     1     -36.938  19.179  -1.218  0.00  0.00    +0.032 C 
ATOM     13  C   UNL     1     -35.458  19.164  -1.591  0.00  0.00    +0.111 C 
BRANCH   8  14
ATOM     14  O   UNL     1     -36.699  19.185   1.746  0.00  0.00    -0.383 OA
ATOM     15  H   UNL     1     -37.147  18.536   1.183  0.00  0.00    +0.211 HD
ENDBRANCH   8  14
BRANCH  13  16
ATOM     16  O   UNL     1     -35.200  18.007  -2.379  0.00  0.00    -0.384 OA
ATOM     17  H   UNL     1     -35.519  17.220  -1.911  0.00  0.00    +0.210 HD
ENDBRANCH  13  16
ENDBRANCH   3   8
BRANCH   4  18
ATOM     18  O   UNL     1     -35.200  20.732   3.576  0.00  0.00    -0.505 OA
ATOM     19  H   UNL     1     -35.113  19.937   3.088  0.00  0.00    +0.292 HD
ENDBRANCH   4  18
BRANCH   2  20
ATOM     20  O   UNL     1     -38.747  24.491   1.656  0.00  0.00    -0.287 OA
ATOM     21  H   UNL     1     -38.513  25.067   0.955  0.00  0.00    +0.242 HD
ENDBRANCH   2  20
BRANCH   6  23
ATOM     22  O   UNL     1     -35.978  22.254   6.159  0.00  0.00    -0.286 OA
ATOM     23  C   UNL     1     -35.654  22.956   5.210  0.00  0.00    +0.203 C 
BRANCH  23  24
ATOM     24  C   UNL     1     -34.603  24.002   5.268  0.00  0.00    +0.042 C 
ATOM     25  C   UNL     1     -34.830  25.143   5.933  0.00  0.00    +0.003 C 
BRANCH  25  26
ATOM     26  C   UNL     1     -33.848  26.201   6.027  0.00  0.00    +0.000 C 
ATOM     27  C   UNL     1     -33.458  26.932   4.972  0.00  0.00    -0.000 C 
BRANCH  27  29
ATOM     28  C   UNL     1     -31.932  28.383   6.229  0.00  0.00    -0.024 C 
ATOM     29  C   UNL     1     -32.474  27.990   5.067  0.00  0.00    -0.005 C 
BRANCH  28  30
ATOM     30  C   UNL     1     -30.897  29.472   6.440  0.00  0.00    +0.051 C 
BRANCH  30  31
ATOM     31  C   UNL     1     -30.890  30.630   5.419  0.00  0.00    +0.007 C 
ATOM     32  C   UNL     1     -29.487  31.107   5.060  0.00  0.00    +0.000 C 
ENDBRANCH  30  31
BRANCH  30  33
ATOM     33  C   UNL     1     -29.503  28.829   6.542  0.00  0.00    +0.141 C 
BRANCH  33  34
ATOM     34  O   UNL     1     -29.610  27.446   6.859  0.00  0.00    -0.382 OA
ATOM     35  H   UNL     1     -28.879  27.192   7.444  0.00  0.00    +0.210 HD
ENDBRANCH  33  34
ENDBRANCH  30  33
ENDBRANCH  28  30
ENDBRANCH  27  29
ENDBRANCH  25  26
ENDBRANCH  23  24
ENDBRANCH   6  23
TORSDOF 13
ENDMDL
MODEL 3
REMARK VINA RESULT:      -6.4      6.274      7.576
REMARK  Name = 54729460
REMARK  13 active torsions:
REMARK  status: ('A' for Active; 'I' for Inactive)
REMARK    1  A    between atoms: N_2  and  O_20
REMARK    2  A    between atoms: C_3  and  C_8
REMARK    3  A    between atoms: C_4  and  O_18
REMARK    4  A    between atoms: C_6  and  C_23
REMARK    5  A    between atoms: C_8  and  O_14
REMARK    6  A    between atoms: C_13  and  O_16
REMARK    7  A    between atoms: C_23  and  C_24
REMARK    8  A    between atoms: C_25  and  C_26
REMARK    9  A    between atoms: C_27  and  C_29
REMARK   10  A    between atoms: C_28  and  C_30
REMARK   11  A    between atoms: C_30  and  C_31
REMARK   12  A    between atoms: C_30  and  C_33
REMARK   13  A    between atoms: C_33  and  O_34
REMARK                            x       y       z     vdW  Elec       q    Type
REMARK                         _______ _______ _______ _____ _____    ______ ____
ROOT
ATOM      1  O   UNL     1     -40.601  23.065   1.612  0.00  0.00    -0.267 OA
ATOM      2  N   UNL     1     -38.549  22.533   2.518  0.00  0.00    -0.145 N 
ATOM      3  C   UNL     1     -37.088  24.156   3.362  0.00  0.00    +0.053 C 
ATOM      4  C   UNL     1     -38.102  25.169   3.068  0.00  0.00    +0.141 C 
ATOM      5  C   UNL     1     -37.352  22.872   3.072  0.00  0.00    +0.098 C 
ATOM      6  C   UNL     1     -39.283  24.842   2.496  0.00  0.00    +0.128 C 
ATOM      7  C   UNL     1     -39.552  23.395   2.160  0.00  0.00    +0.281 C 
ENDROOT
BRANCH   3   8
ATOM      8  C   UNL     1     -35.771  24.538   3.972  0.00  0.00    +0.111 C 
ATOM      9  C   UNL     1     -35.979  25.360   5.255  0.00  0.00    +0.034 C 
ATOM     10  C   UNL     1     -34.915  25.315   2.959  0.00  0.00    +0.034 C 
ATOM     11  C   UNL     1     -34.658  25.844   5.853  0.00  0.00    +0.032 C 
ATOM     12  C   UNL     1     -33.598  25.803   3.565  0.00  0.00    +0.032 C 
ATOM     13  C   UNL     1     -33.830  26.621   4.833  0.00  0.00    +0.111 C 
BRANCH   8  14
ATOM     14  O   UNL     1     -35.078  23.330   4.299  0.00  0.00    -0.383 OA
ATOM     15  H   UNL     1     -35.415  22.605   3.750  0.00  0.00    +0.211 HD
ENDBRANCH   8  14
BRANCH  13  16
ATOM     16  O   UNL     1     -32.566  26.954   5.396  0.00  0.00    -0.384 OA
ATOM     17  H   UNL     1     -32.467  27.918   5.422  0.00  0.00    +0.210 HD
ENDBRANCH  13  16
ENDBRANCH   3   8
BRANCH   4  18
ATOM     18  O   UNL     1     -37.816  26.485   3.391  0.00  0.00    -0.505 OA
ATOM     19  H   UNL     1     -37.583  27.092   2.716  0.00  0.00    +0.292 HD
ENDBRANCH   4  18
BRANCH   2  20
ATOM     20  O   UNL     1     -38.776  21.169   2.291  0.00  0.00    -0.287 OA
ATOM     21  H   UNL     1     -39.461  20.725   2.750  0.00  0.00    +0.242 HD
ENDBRANCH   2  20
BRANCH   6  23
ATOM     22  O   UNL     1     -40.271  26.498   1.145  0.00  0.00    -0.286 OA
ATOM     23  C   UNL     1     -40.279  25.889   2.208  0.00  0.00    +0.203 C 
BRANCH  23  24
ATOM     24  C   UNL     1     -41.260  26.127   3.295  0.00  0.00    +0.042 C 
ATOM     25  C   UNL     1     -42.244  27.021   3.126  0.00  0.00    +0.003 C 
BRANCH  25  26
ATOM     26  C   UNL     1     -43.231  27.300   4.147  0.00  0.00    +0.000 C 
ATOM     27  C   UNL     1     -44.423  26.687   4.199  0.00  0.00    -0.000 C 
BRANCH  27  29
ATOM     28  C   UNL     1     -45.259  27.936   6.136  0.00  0.00    -0.024 C 
ATOM     29  C   UNL     1     -45.409  26.968   5.220  0.00  0.00    -0.005 C 
BRANCH  28  30
ATOM     30  C   UNL     1     -46.227  28.315   7.242  0.00  0.00    +0.051 C 
BRANCH  30  31
ATOM     31  C   UNL     1     -45.798  29.468   8.175  0.00  0.00    +0.007 C 
ATOM     32  C   UNL     1     -44.343  29.885   7.984  0.00  0.00    +0.000 C 
ENDBRANCH  30  31
BRANCH  30  33
ATOM     33  C   UNL     1     -46.579  27.059   8.055  0.00  0.00    +0.141 C 
BRANCH  33  34
ATOM     34  O   UNL     1     -45.415  26.511   8.663  0.00  0.00    -0.382 OA
ATOM     35  H   UNL     1     -45.652  26.116   9.516  0.00  0.00    +0.210 HD
ENDBRANCH  33  34
ENDBRANCH  30  33
ENDBRANCH  28  30
ENDBRANCH  27  29
ENDBRANCH  25  26
ENDBRANCH  23  24
ENDBRANCH   6  23
TORSDOF 13
ENDMDL
MODEL 4
REMARK VINA RESULT:      -6.4      5.361      6.803
REMARK  Name = 54729460
REMARK  13 active torsions:
REMARK  status: ('A' for Active; 'I' for Inactive)
REMARK    1  A    between atoms: N_2  and  O_20
REMARK    2  A    between atoms: C_3  and  C_8
REMARK    3  A    between atoms: C_4  and  O_18
REMARK    4  A    between atoms: C_6  and  C_23
REMARK    5  A    between atoms: C_8  and  O_14
REMARK    6  A    between atoms: C_13  and  O_16
REMARK    7  A    between atoms: C_23  and  C_24
REMARK    8  A    between atoms: C_25  and  C_26
REMARK    9  A    between atoms: C_27  and  C_29
REMARK   10  A    between atoms: C_28  and  C_30
REMARK   11  A    between atoms: C_30  and  C_31
REMARK   12  A    between atoms: C_30  and  C_33
REMARK   13  A    between atoms: C_33  and  O_34
REMARK                            x       y       z     vdW  Elec       q    Type
REMARK                         _______ _______ _______ _____ _____    ______ ____
ROOT
ATOM      1  O   UNL     1     -40.429  22.416   0.914  0.00  0.00    -0.267 OA
ATOM      2  N   UNL     1     -38.594  22.514   2.307  0.00  0.00    -0.145 N 
ATOM      3  C   UNL     1     -37.695  24.538   3.062  0.00  0.00    +0.053 C 
ATOM      4  C   UNL     1     -38.773  25.237   2.362  0.00  0.00    +0.141 C 
ATOM      5  C   UNL     1     -37.647  23.198   3.006  0.00  0.00    +0.098 C 
ATOM      6  C   UNL     1     -39.703  24.564   1.645  0.00  0.00    +0.128 C 
ATOM      7  C   UNL     1     -39.619  23.059   1.579  0.00  0.00    +0.281 C 
ENDROOT
BRANCH   3   8
ATOM      8  C   UNL     1     -36.654  25.300   3.830  0.00  0.00    +0.111 C 
ATOM      9  C   UNL     1     -35.725  26.072   2.877  0.00  0.00    +0.034 C 
ATOM     10  C   UNL     1     -35.846  24.350   4.728  0.00  0.00    +0.034 C 
ATOM     11  C   UNL     1     -34.598  26.787   3.622  0.00  0.00    +0.032 C 
ATOM     12  C   UNL     1     -34.715  25.069   5.464  0.00  0.00    +0.032 C 
ATOM     13  C   UNL     1     -33.803  25.823   4.499  0.00  0.00    +0.111 C 
BRANCH   8  14
ATOM     14  O   UNL     1     -37.335  26.232   4.676  0.00  0.00    -0.383 OA
ATOM     15  H   UNL     1     -36.990  27.124   4.517  0.00  0.00    +0.211 HD
ENDBRANCH   8  14
BRANCH  13  16
ATOM     16  O   UNL     1     -32.840  26.546   5.256  0.00  0.00    -0.384 OA
ATOM     17  H   UNL     1     -32.613  27.367   4.792  0.00  0.00    +0.210 HD
ENDBRANCH  13  16
ENDBRANCH   3   8
BRANCH   4  18
ATOM     18  O   UNL     1     -38.814  26.619   2.447  0.00  0.00    -0.505 OA
ATOM     19  H   UNL     1     -39.638  27.063   2.437  0.00  0.00    +0.292 HD
ENDBRANCH   4  18
BRANCH   2  20
ATOM     20  O   UNL     1     -38.511  21.115   2.335  0.00  0.00    -0.287 OA
ATOM     21  H   UNL     1     -38.491  20.663   3.155  0.00  0.00    +0.242 HD
ENDBRANCH   2  20
BRANCH   6  23
ATOM     22  O   UNL     1     -40.710  25.516  -0.257  0.00  0.00    -0.286 OA
ATOM     23  C   UNL     1     -40.771  25.300   0.947  0.00  0.00    +0.203 C 
BRANCH  23  24
ATOM     24  C   UNL     1     -41.891  25.741   1.815  0.00  0.00    +0.042 C 
ATOM     25  C   UNL     1     -42.058  27.044   2.082  0.00  0.00    +0.003 C 
BRANCH  25  26
ATOM     26  C   UNL     1     -43.128  27.538   2.922  0.00  0.00    +0.000 C 
ATOM     27  C   UNL     1     -42.912  28.250   4.037  0.00  0.00    -0.000 C 
BRANCH  27  29
ATOM     28  C   UNL     1     -43.845  29.795   5.698  0.00  0.00    -0.024 C 
ATOM     29  C   UNL     1     -43.983  28.743   4.877  0.00  0.00    -0.005 C 
BRANCH  28  30
ATOM     30  C   UNL     1     -44.897  30.393   6.613  0.00  0.00    +0.051 C 
BRANCH  30  31
ATOM     31  C   UNL     1     -45.133  31.914   6.499  0.00  0.00    +0.007 C 
ATOM     32  C   UNL     1     -44.269  32.577   5.431  0.00  0.00    +0.000 C 
ENDBRANCH  30  31
BRANCH  30  33
ATOM     33  C   UNL     1     -44.584  29.998   8.066  0.00  0.00    +0.141 C 
BRANCH  33  34
ATOM     34  O   UNL     1     -43.277  30.425   8.432  0.00  0.00    -0.382 OA
ATOM     35  H   UNL     1     -43.339  31.231   8.966  0.00  0.00    +0.210 HD
ENDBRANCH  33  34
ENDBRANCH  30  33
ENDBRANCH  28  30
ENDBRANCH  27  29
ENDBRANCH  25  26
ENDBRANCH  23  24
ENDBRANCH   6  23
TORSDOF 13
ENDMDL
MODEL 5
REMARK VINA RESULT:      -6.3      1.630      2.249
REMARK  Name = 54729460
REMARK  13 active torsions:
REMARK  status: ('A' for Active; 'I' for Inactive)
REMARK    1  A    between atoms: N_2  and  O_20
REMARK    2  A    between atoms: C_3  and  C_8
REMARK    3  A    between atoms: C_4  and  O_18
REMARK    4  A    between atoms: C_6  and  C_23
REMARK    5  A    between atoms: C_8  and  O_14
REMARK    6  A    between atoms: C_13  and  O_16
REMARK    7  A    between atoms: C_23  and  C_24
REMARK    8  A    between atoms: C_25  and  C_26
REMARK    9  A    between atoms: C_27  and  C_29
REMARK   10  A    between atoms: C_28  and  C_30
REMARK   11  A    between atoms: C_30  and  C_31
REMARK   12  A    between atoms: C_30  and  C_33
REMARK   13  A    between atoms: C_33  and  O_34
REMARK                            x       y       z     vdW  Elec       q    Type
REMARK                         _______ _______ _______ _____ _____    ______ ____
ROOT
ATOM      1  O   UNL     1     -33.222  29.976   2.713  0.00  0.00    -0.267 OA
ATOM      2  N   UNL     1     -33.241  28.076   4.018  0.00  0.00    -0.145 N 
ATOM      3  C   UNL     1     -34.807  26.361   3.720  0.00  0.00    +0.053 C 
ATOM      4  C   UNL     1     -35.347  27.102   2.579  0.00  0.00    +0.141 C 
ATOM      5  C   UNL     1     -33.772  26.881   4.399  0.00  0.00    +0.098 C 
ATOM      6  C   UNL     1     -34.840  28.301   2.211  0.00  0.00    +0.128 C 
ATOM      7  C   UNL     1     -33.689  28.876   3.000  0.00  0.00    +0.281 C 
ENDROOT
BRANCH   3   8
ATOM      8  C   UNL     1     -35.397  25.045   4.133  0.00  0.00    +0.111 C 
ATOM      9  C   UNL     1     -34.883  24.624   5.521  0.00  0.00    +0.034 C 
ATOM     10  C   UNL     1     -35.086  23.964   3.086  0.00  0.00    +0.034 C 
ATOM     11  C   UNL     1     -35.394  23.243   5.933  0.00  0.00    +0.032 C 
ATOM     12  C   UNL     1     -35.593  22.584   3.507  0.00  0.00    +0.032 C 
ATOM     13  C   UNL     1     -35.065  22.185   4.883  0.00  0.00    +0.111 C 
BRANCH   8  14
ATOM     14  O   UNL     1     -36.818  25.206   4.191  0.00  0.00    -0.383 OA
ATOM     15  H   UNL     1     -37.242  24.335   4.184  0.00  0.00    +0.211 HD
ENDBRANCH   8  14
BRANCH  13  16
ATOM     16  O   UNL     1     -35.655  20.944   5.253  0.00  0.00    -0.384 OA
ATOM     17  H   UNL     1     -35.766  20.913   6.216  0.00  0.00    +0.210 HD
ENDBRANCH  13  16
ENDBRANCH   3   8
BRANCH   4  18
ATOM     18  O   UNL     1     -36.403  26.540   1.882  0.00  0.00    -0.505 OA
ATOM     19  H   UNL     1     -36.605  26.840   1.018  0.00  0.00    +0.292 HD
ENDBRANCH   4  18
BRANCH   2  20
ATOM     20  O   UNL     1     -32.130  28.531   4.740  0.00  0.00    -0.287 OA
ATOM     21  H   UNL     1     -32.222  29.241   5.345  0.00  0.00    +0.242 HD
ENDBRANCH   2  20
BRANCH   6  23
ATOM     22  O   UNL     1     -35.164  28.682  -0.089  0.00  0.00    -0.286 OA
ATOM     23  C   UNL     1     -35.412  29.022   1.061  0.00  0.00    +0.203 C 
BRANCH  23  24
ATOM     24  C   UNL     1     -36.287  30.166   1.419  0.00  0.00    +0.042 C 
ATOM     25  C   UNL     1     -37.097  30.704   0.497  0.00  0.00    +0.003 C 
BRANCH  25  26
ATOM     26  C   UNL     1     -37.972  31.820   0.782  0.00  0.00    +0.000 C 
ATOM     27  C   UNL     1     -37.769  32.667   1.801  0.00  0.00    -0.000 C 
BRANCH  27  29
ATOM     28  C   UNL     1     -39.849  33.933   1.509  0.00  0.00    -0.024 C 
ATOM     29  C   UNL     1     -38.647  33.782   2.086  0.00  0.00    -0.005 C 
BRANCH  28  30
ATOM     30  C   UNL     1     -40.845  35.055   1.737  0.00  0.00    +0.051 C 
BRANCH  30  31
ATOM     31  C   UNL     1     -41.125  35.989   0.540  0.00  0.00    +0.007 C 
ATOM     32  C   UNL     1     -40.018  35.970  -0.508  0.00  0.00    +0.000 C 
ENDBRANCH  30  31
BRANCH  30  33
ATOM     33  C   UNL     1     -40.415  35.867   2.971  0.00  0.00    +0.141 C 
BRANCH  33  34
ATOM     34  O   UNL     1     -41.492  35.991   3.892  0.00  0.00    -0.382 OA
ATOM     35  H   UNL     1     -42.287  36.285   3.420  0.00  0.00    +0.210 HD
ENDBRANCH  33  34
ENDBRANCH  30  33
ENDBRANCH  28  30
ENDBRANCH  27  29
ENDBRANCH  25  26
ENDBRANCH  23  24
ENDBRANCH   6  23
TORSDOF 13
ENDMDL
MODEL 6
REMARK VINA RESULT:      -6.3      4.820     11.211
REMARK  Name = 54729460
REMARK  13 active torsions:
REMARK  status: ('A' for Active; 'I' for Inactive)
REMARK    1  A    between atoms: N_2  and  O_20
REMARK    2  A    between atoms: C_3  and  C_8
REMARK    3  A    between atoms: C_4  and  O_18
REMARK    4  A    between atoms: C_6  and  C_23
REMARK    5  A    between atoms: C_8  and  O_14
REMARK    6  A    between atoms: C_13  and  O_16
REMARK    7  A    between atoms: C_23  and  C_24
REMARK    8  A    between atoms: C_25  and  C_26
REMARK    9  A    between atoms: C_27  and  C_29
REMARK   10  A    between atoms: C_28  and  C_30
REMARK   11  A    between atoms: C_30  and  C_31
REMARK   12  A    between atoms: C_30  and  C_33
REMARK   13  A    between atoms: C_33  and  O_34
REMARK                            x       y       z     vdW  Elec       q    Type
REMARK                         _______ _______ _______ _____ _____    ______ ____
ROOT
ATOM      1  O   UNL     1     -38.076  24.155   3.748  0.00  0.00    -0.267 OA
ATOM      2  N   UNL     1     -36.851  26.054   3.289  0.00  0.00    -0.145 N 
ATOM      3  C   UNL     1     -34.612  26.292   3.929  0.00  0.00    +0.053 C 
ATOM      4  C   UNL     1     -34.655  24.928   4.456  0.00  0.00    +0.141 C 
ATOM      5  C   UNL     1     -35.717  26.804   3.365  0.00  0.00    +0.098 C 
ATOM      6  C   UNL     1     -35.786  24.186   4.406  0.00  0.00    +0.128 C 
ATOM      7  C   UNL     1     -37.023  24.788   3.785  0.00  0.00    +0.281 C 
ENDROOT
BRANCH   3   8
ATOM      8  C   UNL     1     -33.359  27.113   4.017  0.00  0.00    +0.111 C 
ATOM      9  C   UNL     1     -32.990  27.396   5.483  0.00  0.00    +0.034 C 
ATOM     10  C   UNL     1     -33.519  28.425   3.232  0.00  0.00    +0.034 C 
ATOM     11  C   UNL     1     -31.768  28.306   5.607  0.00  0.00    +0.032 C 
ATOM     12  C   UNL     1     -32.298  29.335   3.367  0.00  0.00    +0.032 C 
ATOM     13  C   UNL     1     -31.954  29.607   4.829  0.00  0.00    +0.111 C 
BRANCH   8  14
ATOM     14  O   UNL     1     -32.305  26.362   3.407  0.00  0.00    -0.383 OA
ATOM     15  H   UNL     1     -32.382  25.430   3.663  0.00  0.00    +0.211 HD
ENDBRANCH   8  14
BRANCH  13  16
ATOM     16  O   UNL     1     -30.755  30.371   4.880  0.00  0.00    -0.384 OA
ATOM     17  H   UNL     1     -30.020  29.802   5.158  0.00  0.00    +0.210 HD
ENDBRANCH  13  16
ENDBRANCH   3   8
BRANCH   4  18
ATOM     18  O   UNL     1     -33.499  24.413   5.018  0.00  0.00    -0.505 OA
ATOM     19  H   UNL     1     -33.518  23.579   5.444  0.00  0.00    +0.292 HD
ENDBRANCH   4  18
BRANCH   2  20
ATOM     20  O   UNL     1     -37.950  26.634   2.640  0.00  0.00    -0.287 OA
ATOM     21  H   UNL     1     -38.179  27.526   2.814  0.00  0.00    +0.242 HD
ENDBRANCH   2  20
BRANCH   6  23
ATOM     22  O   UNL     1     -35.908  22.616   6.155  0.00  0.00    -0.286 OA
ATOM     23  C   UNL     1     -35.796  22.818   4.952  0.00  0.00    +0.203 C 
BRANCH  23  24
ATOM     24  C   UNL     1     -35.660  21.744   3.938  0.00  0.00    +0.042 C 
ATOM     25  C   UNL     1     -35.304  22.050   2.682  0.00  0.00    +0.003 C 
BRANCH  25  26
ATOM     26  C   UNL     1     -35.155  21.050   1.647  0.00  0.00    +0.000 C 
ATOM     27  C   UNL     1     -34.474  19.908   1.825  0.00  0.00    -0.000 C 
BRANCH  27  29
ATOM     28  C   UNL     1     -33.299  18.046   0.746  0.00  0.00    -0.024 C 
ATOM     29  C   UNL     1     -34.325  18.910   0.788  0.00  0.00    -0.005 C 
BRANCH  28  30
ATOM     30  C   UNL     1     -33.049  16.963  -0.287  0.00  0.00    +0.051 C 
BRANCH  30  31
ATOM     31  C   UNL     1     -34.170  15.921  -0.485  0.00  0.00    +0.007 C 
ATOM     32  C   UNL     1     -34.733  15.906  -1.902  0.00  0.00    +0.000 C 
ENDBRANCH  30  31
BRANCH  30  33
ATOM     33  C   UNL     1     -31.711  16.271   0.022  0.00  0.00    +0.141 C 
BRANCH  33  34
ATOM     34  O   UNL     1     -31.911  14.892   0.303  0.00  0.00    -0.382 OA
ATOM     35  H   UNL     1     -32.858  14.687   0.257  0.00  0.00    +0.210 HD
ENDBRANCH  33  34
ENDBRANCH  30  33
ENDBRANCH  28  30
ENDBRANCH  27  29
ENDBRANCH  25  26
ENDBRANCH  23  24
ENDBRANCH   6  23
TORSDOF 13
ENDMDL
MODEL 7
REMARK VINA RESULT:      -6.2      5.300      7.938
REMARK  Name = 54729460
REMARK  13 active torsions:
REMARK  status: ('A' for Active; 'I' for Inactive)
REMARK    1  A    between atoms: N_2  and  O_20
REMARK    2  A    between atoms: C_3  and  C_8
REMARK    3  A    between atoms: C_4  and  O_18
REMARK    4  A    between atoms: C_6  and  C_23
REMARK    5  A    between atoms: C_8  and  O_14
REMARK    6  A    between atoms: C_13  and  O_16
REMARK    7  A    between atoms: C_23  and  C_24
REMARK    8  A    between atoms: C_25  and  C_26
REMARK    9  A    between atoms: C_27  and  C_29
REMARK   10  A    between atoms: C_28  and  C_30
REMARK   11  A    between atoms: C_30  and  C_31
REMARK   12  A    between atoms: C_30  and  C_33
REMARK   13  A    between atoms: C_33  and  O_34
REMARK                            x       y       z     vdW  Elec       q    Type
REMARK                         _______ _______ _______ _____ _____    ______ ____
ROOT
ATOM      1  O   UNL     1     -35.482  21.349   3.033  0.00  0.00    -0.267 OA
ATOM      2  N   UNL     1     -36.990  22.468   1.696  0.00  0.00    -0.145 N 
ATOM      3  C   UNL     1     -38.120  24.390   2.409  0.00  0.00    +0.053 C 
ATOM      4  C   UNL     1     -37.365  24.325   3.662  0.00  0.00    +0.141 C 
ATOM      5  C   UNL     1     -37.903  23.454   1.472  0.00  0.00    +0.098 C 
ATOM      6  C   UNL     1     -36.475  23.334   3.900  0.00  0.00    +0.128 C 
ATOM      7  C   UNL     1     -36.261  22.281   2.840  0.00  0.00    +0.281 C 
ENDROOT
BRANCH   3   8
ATOM      8  C   UNL     1     -39.124  25.480   2.171  0.00  0.00    +0.111 C 
ATOM      9  C   UNL     1     -40.361  25.291   3.065  0.00  0.00    +0.034 C 
ATOM     10  C   UNL     1     -39.525  25.526   0.688  0.00  0.00    +0.034 C 
ATOM     11  C   UNL     1     -41.444  26.332   2.782  0.00  0.00    +0.032 C 
ATOM     12  C   UNL     1     -40.613  26.565   0.413  0.00  0.00    +0.032 C 
ATOM     13  C   UNL     1     -41.833  26.354   1.306  0.00  0.00    +0.111 C 
BRANCH   8  14
ATOM     14  O   UNL     1     -38.498  26.725   2.497  0.00  0.00    -0.383 OA
ATOM     15  H   UNL     1     -39.170  27.422   2.544  0.00  0.00    +0.211 HD
ENDBRANCH   8  14
BRANCH  13  16
ATOM     16  O   UNL     1     -42.757  27.409   1.069  0.00  0.00    -0.384 OA
ATOM     17  H   UNL     1     -43.651  27.042   0.982  0.00  0.00    +0.210 HD
ENDBRANCH  13  16
ENDBRANCH   3   8
BRANCH   4  18
ATOM     18  O   UNL     1     -37.592  25.310   4.608  0.00  0.00    -0.505 OA
ATOM     19  H   UNL     1     -38.469  25.529   4.854  0.00  0.00    +0.292 HD
ENDBRANCH   4  18
BRANCH   2  20
ATOM     20  O   UNL     1     -36.778  21.557   0.653  0.00  0.00    -0.287 OA
ATOM     21  H   UNL     1     -36.104  20.910   0.725  0.00  0.00    +0.242 HD
ENDBRANCH   2  20
BRANCH   6  23
ATOM     22  O   UNL     1     -36.088  22.559   6.088  0.00  0.00    -0.286 OA
ATOM     23  C   UNL     1     -35.737  23.295   5.174  0.00  0.00    +0.203 C 
BRANCH  23  24
ATOM     24  C   UNL     1     -34.567  24.205   5.242  0.00  0.00    +0.042 C 
ATOM     25  C   UNL     1     -34.692  25.416   5.802  0.00  0.00    +0.003 C 
BRANCH  25  26
ATOM     26  C   UNL     1     -33.592  26.350   5.897  0.00  0.00    +0.000 C 
ATOM     27  C   UNL     1     -33.305  27.244   4.939  0.00  0.00    -0.000 C 
BRANCH  27  29
ATOM     28  C   UNL     1     -31.707  28.606   6.206  0.00  0.00    -0.024 C 
ATOM     29  C   UNL     1     -32.203  28.177   5.035  0.00  0.00    -0.005 C 
BRANCH  28  30
ATOM     30  C   UNL     1     -30.559  29.574   6.420  0.00  0.00    +0.051 C 
BRANCH  30  31
ATOM     31  C   UNL     1     -30.339  30.642   5.326  0.00  0.00    +0.007 C 
ATOM     32  C   UNL     1     -29.219  30.285   4.355  0.00  0.00    +0.000 C 
ENDBRANCH  30  31
BRANCH  30  33
ATOM     33  C   UNL     1     -29.268  28.776   6.669  0.00  0.00    +0.141 C 
BRANCH  33  34
ATOM     34  O   UNL     1     -29.554  27.392   6.824  0.00  0.00    -0.382 OA
ATOM     35  H   UNL     1     -28.940  27.005   7.468  0.00  0.00    +0.210 HD
ENDBRANCH  33  34
ENDBRANCH  30  33
ENDBRANCH  28  30
ENDBRANCH  27  29
ENDBRANCH  25  26
ENDBRANCH  23  24
ENDBRANCH   6  23
TORSDOF 13
ENDMDL
MODEL 8
REMARK VINA RESULT:      -6.1      0.907      1.175
REMARK  Name = 54729460
REMARK  13 active torsions:
REMARK  status: ('A' for Active; 'I' for Inactive)
REMARK    1  A    between atoms: N_2  and  O_20
REMARK    2  A    between atoms: C_3  and  C_8
REMARK    3  A    between atoms: C_4  and  O_18
REMARK    4  A    between atoms: C_6  and  C_23
REMARK    5  A    between atoms: C_8  and  O_14
REMARK    6  A    between atoms: C_13  and  O_16
REMARK    7  A    between atoms: C_23  and  C_24
REMARK    8  A    between atoms: C_25  and  C_26
REMARK    9  A    between atoms: C_27  and  C_29
REMARK   10  A    between atoms: C_28  and  C_30
REMARK   11  A    between atoms: C_30  and  C_31
REMARK   12  A    between atoms: C_30  and  C_33
REMARK   13  A    between atoms: C_33  and  O_34
REMARK                            x       y       z     vdW  Elec       q    Type
REMARK                         _______ _______ _______ _____ _____    ______ ____
ROOT
ATOM      1  O   UNL     1     -32.921  28.201   0.579  0.00  0.00    -0.267 OA
ATOM      2  N   UNL     1     -33.476  25.997   0.967  0.00  0.00    -0.145 N 
ATOM      3  C   UNL     1     -34.652  25.312   2.871  0.00  0.00    +0.053 C 
ATOM      4  C   UNL     1     -34.746  26.717   3.273  0.00  0.00    +0.141 C 
ATOM      5  C   UNL     1     -34.017  25.006   1.730  0.00  0.00    +0.098 C 
ATOM      6  C   UNL     1     -34.191  27.703   2.533  0.00  0.00    +0.128 C 
ATOM      7  C   UNL     1     -33.464  27.335   1.262  0.00  0.00    +0.281 C 
ENDROOT
BRANCH   3   8
ATOM      8  C   UNL     1     -35.250  24.227   3.718  0.00  0.00    +0.111 C 
ATOM      9  C   UNL     1     -34.483  24.080   5.043  0.00  0.00    +0.034 C 
ATOM     10  C   UNL     1     -35.270  22.895   2.949  0.00  0.00    +0.034 C 
ATOM     11  C   UNL     1     -35.009  22.921   5.891  0.00  0.00    +0.032 C 
ATOM     12  C   UNL     1     -35.790  21.740   3.805  0.00  0.00    +0.032 C 
ATOM     13  C   UNL     1     -35.011  21.609   5.111  0.00  0.00    +0.111 C 
BRANCH   8  14
ATOM     14  O   UNL     1     -36.604  24.593   4.000  0.00  0.00    -0.383 OA
ATOM     15  H   UNL     1     -36.622  25.217   4.742  0.00  0.00    +0.211 HD
ENDBRANCH   8  14
BRANCH  13  16
ATOM     16  O   UNL     1     -35.611  20.585   5.897  0.00  0.00    -0.384 OA
ATOM     17  H   UNL     1     -36.334  20.175   5.397  0.00  0.00    +0.210 HD
ENDBRANCH  13  16
ENDBRANCH   3   8
BRANCH   4  18
ATOM     18  O   UNL     1     -35.421  27.012   4.446  0.00  0.00    -0.505 OA
ATOM     19  H   UNL     1     -35.313  26.464   5.198  0.00  0.00    +0.292 HD
ENDBRANCH   4  18
BRANCH   2  20
ATOM     20  O   UNL     1     -32.874  25.608  -0.238  0.00  0.00    -0.287 OA
ATOM     21  H   UNL     1     -33.144  24.818  -0.663  0.00  0.00    +0.242 HD
ENDBRANCH   2  20
BRANCH   6  23
ATOM     22  O   UNL     1     -33.427  29.625   3.655  0.00  0.00    -0.286 OA
ATOM     23  C   UNL     1     -34.299  29.105   2.970  0.00  0.00    +0.203 C 
BRANCH  23  24
ATOM     24  C   UNL     1     -35.528  29.803   2.517  0.00  0.00    +0.042 C 
ATOM     25  C   UNL     1     -35.570  31.143   2.501  0.00  0.00    +0.003 C 
BRANCH  25  26
ATOM     26  C   UNL     1     -36.736  31.882   2.072  0.00  0.00    +0.000 C 
ATOM     27  C   UNL     1     -36.669  32.952   1.266  0.00  0.00    -0.000 C 
BRANCH  27  29
ATOM     28  C   UNL     1     -39.026  33.602   1.454  0.00  0.00    -0.024 C 
ATOM     29  C   UNL     1     -37.837  33.692   0.839  0.00  0.00    -0.005 C 
BRANCH  28  30
ATOM     30  C   UNL     1     -40.306  34.332   1.093  0.00  0.00    +0.051 C 
BRANCH  30  31
ATOM     31  C   UNL     1     -40.948  35.197   2.200  0.00  0.00    +0.007 C 
ATOM     32  C   UNL     1     -39.923  35.933   3.056  0.00  0.00    +0.000 C 
ENDBRANCH  30  31
BRANCH  30  33
ATOM     33  C   UNL     1     -41.322  33.321   0.535  0.00  0.00    +0.141 C 
BRANCH  33  34
ATOM     34  O   UNL     1     -42.386  33.116   1.456  0.00  0.00    -0.382 OA
ATOM     35  H   UNL     1     -42.674  32.191   1.417  0.00  0.00    +0.210 HD
ENDBRANCH  33  34
ENDBRANCH  30  33
ENDBRANCH  28  30
ENDBRANCH  27  29
ENDBRANCH  25  26
ENDBRANCH  23  24
ENDBRANCH   6  23
TORSDOF 13
ENDMDL
MODEL 9
REMARK VINA RESULT:      -6.1      5.523      7.767
REMARK  Name = 54729460
REMARK  13 active torsions:
REMARK  status: ('A' for Active; 'I' for Inactive)
REMARK    1  A    between atoms: N_2  and  O_20
REMARK    2  A    between atoms: C_3  and  C_8
REMARK    3  A    between atoms: C_4  and  O_18
REMARK    4  A    between atoms: C_6  and  C_23
REMARK    5  A    between atoms: C_8  and  O_14
REMARK    6  A    between atoms: C_13  and  O_16
REMARK    7  A    between atoms: C_23  and  C_24
REMARK    8  A    between atoms: C_25  and  C_26
REMARK    9  A    between atoms: C_27  and  C_29
REMARK   10  A    between atoms: C_28  and  C_30
REMARK   11  A    between atoms: C_30  and  C_31
REMARK   12  A    between atoms: C_30  and  C_33
REMARK   13  A    between atoms: C_33  and  O_34
REMARK                            x       y       z     vdW  Elec       q    Type
REMARK                         _______ _______ _______ _____ _____    ______ ____
ROOT
ATOM      1  O   UNL     1     -36.026  24.784   0.979  0.00  0.00    -0.267 OA
ATOM      2  N   UNL     1     -35.136  23.044  -0.244  0.00  0.00    -0.145 N 
ATOM      3  C   UNL     1     -34.925  20.879   0.619  0.00  0.00    +0.053 C 
ATOM      4  C   UNL     1     -35.580  21.342   1.844  0.00  0.00    +0.141 C 
ATOM      5  C   UNL     1     -34.727  21.752  -0.380  0.00  0.00    +0.098 C 
ATOM      6  C   UNL     1     -35.966  22.630   1.995  0.00  0.00    +0.128 C 
ATOM      7  C   UNL     1     -35.716  23.600   0.866  0.00  0.00    +0.281 C 
ENDROOT
BRANCH   3   8
ATOM      8  C   UNL     1     -34.477  19.454   0.478  0.00  0.00    +0.111 C 
ATOM      9  C   UNL     1     -33.267  19.166   1.383  0.00  0.00    +0.034 C 
ATOM     10  C   UNL     1     -34.147  19.137  -0.990  0.00  0.00    +0.034 C 
ATOM     11  C   UNL     1     -32.728  17.748   1.195  0.00  0.00    +0.032 C 
ATOM     12  C   UNL     1     -33.602  17.720  -1.170  0.00  0.00    +0.032 C 
ATOM     13  C   UNL     1     -32.398  17.460  -0.268  0.00  0.00    +0.111 C 
BRANCH   8  14
ATOM     14  O   UNL     1     -35.567  18.615   0.874  0.00  0.00    -0.383 OA
ATOM     15  H   UNL     1     -35.280  18.032   1.594  0.00  0.00    +0.211 HD
ENDBRANCH   8  14
BRANCH  13  16
ATOM     16  O   UNL     1     -32.008  16.099  -0.412  0.00  0.00    -0.384 OA
ATOM     17  H   UNL     1     -32.416  15.570   0.291  0.00  0.00    +0.210 HD
ENDBRANCH  13  16
ENDBRANCH   3   8
BRANCH   4  18
ATOM     18  O   UNL     1     -35.790  20.421   2.856  0.00  0.00    -0.505 OA
ATOM     19  H   UNL     1     -36.605  19.963   2.908  0.00  0.00    +0.292 HD
ENDBRANCH   4  18
BRANCH   2  20
ATOM     20  O   UNL     1     -34.944  23.887  -1.348  0.00  0.00    -0.287 OA
ATOM     21  H   UNL     1     -35.327  23.670  -2.174  0.00  0.00    +0.242 HD
ENDBRANCH   2  20
BRANCH   6  23
ATOM     22  O   UNL     1     -37.805  22.853   3.446  0.00  0.00    -0.286 OA
ATOM     23  C   UNL     1     -36.616  23.064   3.243  0.00  0.00    +0.203 C 
BRANCH  23  24
ATOM     24  C   UNL     1     -35.720  23.761   4.199  0.00  0.00    +0.042 C 
ATOM     25  C   UNL     1     -36.028  24.992   4.630  0.00  0.00    +0.003 C 
BRANCH  25  26
ATOM     26  C   UNL     1     -35.196  25.725   5.560  0.00  0.00    +0.000 C 
ATOM     27  C   UNL     1     -33.991  26.214   5.234  0.00  0.00    -0.000 C 
BRANCH  27  29
ATOM     28  C   UNL     1     -32.326  27.928   5.788  0.00  0.00    -0.024 C 
ATOM     29  C   UNL     1     -33.159  26.945   6.166  0.00  0.00    -0.005 C 
BRANCH  28  30
ATOM     30  C   UNL     1     -31.418  28.756   6.677  0.00  0.00    +0.051 C 
BRANCH  30  31
ATOM     31  C   UNL     1     -31.650  30.283   6.675  0.00  0.00    +0.007 C 
ATOM     32  C   UNL     1     -31.874  30.855   5.279  0.00  0.00    +0.000 C 
ENDBRANCH  30  31
BRANCH  30  33
ATOM     33  C   UNL     1     -29.953  28.428   6.345  0.00  0.00    +0.141 C 
BRANCH  33  34
ATOM     34  O   UNL     1     -29.592  27.156   6.870  0.00  0.00    -0.382 OA
ATOM     35  H   UNL     1     -30.208  26.912   7.578  0.00  0.00    +0.210 HD
ENDBRANCH  33  34
ENDBRANCH  30  33
ENDBRANCH  28  30
ENDBRANCH  27  29
ENDBRANCH  25  26
ENDBRANCH  23  24
ENDBRANCH   6  23
TORSDOF 13
ENDMDL
