MODEL 1
REMARK VINA RESULT:      -5.3      0.000      0.000
REMARK  Name = 5486800
REMARK  15 active torsions:
REMARK  status: ('A' for Active; 'I' for Inactive)
REMARK    1  A    between atoms: C_1  and  N_3
REMARK    2  A    between atoms: C_1  and  C_15
REMARK    3  A    between atoms: C_1  and  C_18
REMARK    4  A    between atoms: C_4  and  C_6
REMARK    5  A    between atoms: C_6  and  C_7
REMARK    6  A    between atoms: C_7  and  C_8
REMARK    7  A    between atoms: C_8  and  C_9
REMARK    8  A    between atoms: C_9  and  C_10
REMARK    9  A    between atoms: C_10  and  C_11
REMARK   10  A    between atoms: C_11  and  S_12
REMARK   11  A    between atoms: C_15  and  O_16
REMARK   12  A    between atoms: C_18  and  O_20
REMARK   13  A    between atoms: O_20  and  P_21
REMARK   14  A    between atoms: P_21  and  O_23
REMARK   15  A    between atoms: P_21  and  O_25
REMARK                            x       y       z     vdW  Elec       q    Type
REMARK                         _______ _______ _______ _____ _____    ______ ____
ROOT
ATOM      1  C   UNK A   1     -35.450  22.908   4.440  0.00  0.00    +0.199 C 
ENDROOT
BRANCH   1   3
ATOM      2  O   UNK A   0     -33.287  24.793   4.064  0.00  0.00    -0.275 OA
ATOM      3  N   UNK A   1     -35.295  24.199   5.072  0.00  0.00    -0.295 N 
ATOM      4  C   UNK A   0     -34.218  25.038   4.827  0.00  0.00    +0.223 C 
ATOM      5  H   UNK A   1     -35.988  24.497   5.705  0.00  0.00    +0.150 HD
BRANCH   4   6
ATOM      6  C   UNK A   0     -34.325  26.328   5.622  0.00  0.00    +0.085 C 
BRANCH   6   7
ATOM      7  C   UNK A   0     -33.089  27.213   5.463  0.00  0.00    +0.010 C 
BRANCH   7   8
ATOM      8  C   UNK A   0     -32.392  27.528   6.789  0.00  0.00    +0.001 C 
BRANCH   8   9
ATOM      9  C   UNK A   0     -31.801  28.939   6.845  0.00  0.00    +0.001 C 
BRANCH   9  10
ATOM     10  C   UNK A   0     -31.925  29.646   5.492  0.00  0.00    +0.011 C 
BRANCH  10  11
ATOM     11  C   UNK A   0     -30.569  30.169   5.025  0.00  0.00    +0.053 C 
BRANCH  11  12
ATOM     12  S   UNK A   0     -29.276  29.741   6.224  0.00  0.00    -0.168 S 
ATOM     13  H   UNK A   0     -28.056  29.841   5.631  0.00  0.00    +0.102 HD
ENDBRANCH  11  12
ENDBRANCH  10  11
ENDBRANCH   9  10
ENDBRANCH   8   9
ENDBRANCH   7   8
ENDBRANCH   6   7
ENDBRANCH   4   6
ENDBRANCH   1   3
BRANCH   1  15
ATOM     14  O   UNK A   1     -35.938  22.102   6.689  0.00  0.00    -0.248 OA
ATOM     15  C   UNK A   1     -35.553  21.876   5.548  0.00  0.00    +0.334 C 
BRANCH  15  16
ATOM     16  O   UNK A   1     -35.119  20.653   5.146  0.00  0.00    -0.479 OA
ATOM     17  H   UNK A   1     -35.719  20.048   4.755  0.00  0.00    +0.295 HD
ENDBRANCH  15  16
ENDBRANCH   1  15
BRANCH   1  18
ATOM     18  C   UNK A   1     -36.663  22.841   3.507  0.00  0.00    +0.155 C 
ATOM     19  C   UNK A   1     -37.299  24.206   3.268  0.00  0.00    +0.035 C 
BRANCH  18  20
ATOM     20  O   UNK A   1     -36.295  22.279   2.249  0.00  0.00    -0.274 OA
BRANCH  20  21
ATOM     21  P   UNK A   1     -37.103  20.983   1.726  0.00  0.00    +0.473 P 
ATOM     22  O   UNK A   1     -37.020  20.733   0.249  0.00  0.00    -0.227 OA
BRANCH  21  23
ATOM     23  O   UNK A   1     -36.508  19.799   2.653  0.00  0.00    -0.303 OA
ATOM     24  H   UNK A   1     -36.778  19.941   3.573  0.00  0.00    +0.222 HD
ENDBRANCH  21  23
BRANCH  21  25
ATOM     25  O   UNK A   1     -38.596  21.197   2.310  0.00  0.00    -0.303 OA
ATOM     26  H   UNK A   1     -39.244  20.873   1.665  0.00  0.00    +0.222 HD
ENDBRANCH  21  25
ENDBRANCH  20  21
ENDBRANCH  18  20
ENDBRANCH   1  18
TORSDOF 15
ENDMDL
MODEL 2
REMARK VINA RESULT:      -5.2      2.075      2.659
REMARK  Name = 5486800
REMARK  15 active torsions:
REMARK  status: ('A' for Active; 'I' for Inactive)
REMARK    1  A    between atoms: C_1  and  N_3
REMARK    2  A    between atoms: C_1  and  C_15
REMARK    3  A    between atoms: C_1  and  C_18
REMARK    4  A    between atoms: C_4  and  C_6
REMARK    5  A    between atoms: C_6  and  C_7
REMARK    6  A    between atoms: C_7  and  C_8
REMARK    7  A    between atoms: C_8  and  C_9
REMARK    8  A    between atoms: C_9  and  C_10
REMARK    9  A    between atoms: C_10  and  C_11
REMARK   10  A    between atoms: C_11  and  S_12
REMARK   11  A    between atoms: C_15  and  O_16
REMARK   12  A    between atoms: C_18  and  O_20
REMARK   13  A    between atoms: O_20  and  P_21
REMARK   14  A    between atoms: P_21  and  O_23
REMARK   15  A    between atoms: P_21  and  O_25
REMARK                            x       y       z     vdW  Elec       q    Type
REMARK                         _______ _______ _______ _____ _____    ______ ____
ROOT
ATOM      1  C   UNK A   1     -35.107  22.984   4.245  0.00  0.00    +0.199 C 
ENDROOT
BRANCH   1   3
ATOM      2  O   UNK A   0     -33.237  25.141   3.778  0.00  0.00    -0.275 OA
ATOM      3  N   UNK A   1     -34.901  24.155   5.066  0.00  0.00    -0.295 N 
ATOM      4  C   UNK A   0     -33.976  25.142   4.760  0.00  0.00    +0.223 C 
ATOM      5  H   UNK A   1     -35.444  24.257   5.881  0.00  0.00    +0.150 HD
BRANCH   4   6
ATOM      6  C   UNK A   0     -33.984  26.255   5.793  0.00  0.00    +0.085 C 
BRANCH   6   7
ATOM      7  C   UNK A   0     -32.992  27.367   5.459  0.00  0.00    +0.010 C 
BRANCH   7   8
ATOM      8  C   UNK A   0     -32.243  27.902   6.682  0.00  0.00    +0.001 C 
BRANCH   8   9
ATOM      9  C   UNK A   0     -31.209  28.978   6.340  0.00  0.00    +0.001 C 
BRANCH   9  10
ATOM     10  C   UNK A   0     -31.865  30.357   6.213  0.00  0.00    +0.011 C 
BRANCH  10  11
ATOM     11  C   UNK A   0     -32.034  30.747   4.748  0.00  0.00    +0.053 C 
BRANCH  11  12
ATOM     12  S   UNK A   0     -30.653  31.793   4.206  0.00  0.00    -0.168 S 
ATOM     13  H   UNK A   0     -30.980  32.406   3.036  0.00  0.00    +0.102 HD
ENDBRANCH  11  12
ENDBRANCH  10  11
ENDBRANCH   9  10
ENDBRANCH   8   9
ENDBRANCH   7   8
ENDBRANCH   6   7
ENDBRANCH   4   6
ENDBRANCH   1   3
BRANCH   1  15
ATOM     14  O   UNK A   1     -35.018  20.682   5.044  0.00  0.00    -0.248 OA
ATOM     15  C   UNK A   1     -35.421  21.831   5.180  0.00  0.00    +0.334 C 
BRANCH  15  16
ATOM     16  O   UNK A   1     -36.257  22.203   6.185  0.00  0.00    -0.479 OA
ATOM     17  H   UNK A   1     -36.580  23.081   6.223  0.00  0.00    +0.295 HD
ENDBRANCH  15  16
ENDBRANCH   1  15
BRANCH   1  18
ATOM     18  C   UNK A   1     -36.217  23.170   3.206  0.00  0.00    +0.155 C 
ATOM     19  C   UNK A   1     -36.502  21.899   2.414  0.00  0.00    +0.035 C 
BRANCH  18  20
ATOM     20  O   UNK A   1     -37.423  23.601   3.833  0.00  0.00    -0.274 OA
BRANCH  20  21
ATOM     21  P   UNK A   1     -38.089  24.986   3.338  0.00  0.00    +0.473 P 
ATOM     22  O   UNK A   1     -38.026  25.230   1.859  0.00  0.00    -0.227 OA
BRANCH  21  23
ATOM     23  O   UNK A   1     -39.581  24.900   3.953  0.00  0.00    -0.303 OA
ATOM     24  H   UNK A   1     -39.607  25.356   4.809  0.00  0.00    +0.222 HD
ENDBRANCH  21  23
BRANCH  21  25
ATOM     25  O   UNK A   1     -37.373  26.109   4.256  0.00  0.00    -0.303 OA
ATOM     26  H   UNK A   1     -37.950  26.884   4.328  0.00  0.00    +0.222 HD
ENDBRANCH  21  25
ENDBRANCH  20  21
ENDBRANCH  18  20
ENDBRANCH   1  18
TORSDOF 15
ENDMDL
MODEL 3
REMARK VINA RESULT:      -5.2      4.876      7.496
REMARK  Name = 5486800
REMARK  15 active torsions:
REMARK  status: ('A' for Active; 'I' for Inactive)
REMARK    1  A    between atoms: C_1  and  N_3
REMARK    2  A    between atoms: C_1  and  C_15
REMARK    3  A    between atoms: C_1  and  C_18
REMARK    4  A    between atoms: C_4  and  C_6
REMARK    5  A    between atoms: C_6  and  C_7
REMARK    6  A    between atoms: C_7  and  C_8
REMARK    7  A    between atoms: C_8  and  C_9
REMARK    8  A    between atoms: C_9  and  C_10
REMARK    9  A    between atoms: C_10  and  C_11
REMARK   10  A    between atoms: C_11  and  S_12
REMARK   11  A    between atoms: C_15  and  O_16
REMARK   12  A    between atoms: C_18  and  O_20
REMARK   13  A    between atoms: O_20  and  P_21
REMARK   14  A    between atoms: P_21  and  O_23
REMARK   15  A    between atoms: P_21  and  O_25
REMARK                            x       y       z     vdW  Elec       q    Type
REMARK                         _______ _______ _______ _____ _____    ______ ____
ROOT
ATOM      1  C   UNK A   1     -35.900  23.446   3.945  0.00  0.00    +0.199 C 
ENDROOT
BRANCH   1   3
ATOM      2  O   UNK A   0     -34.768  22.594   1.423  0.00  0.00    -0.275 OA
ATOM      3  N   UNK A   1     -35.682  22.090   3.499  0.00  0.00    -0.295 N 
ATOM      4  C   UNK A   0     -35.129  21.776   2.266  0.00  0.00    +0.223 C 
ATOM      5  H   UNK A   1     -35.937  21.352   4.100  0.00  0.00    +0.150 HD
BRANCH   4   6
ATOM      6  C   UNK A   0     -35.011  20.275   2.073  0.00  0.00    +0.085 C 
BRANCH   6   7
ATOM      7  C   UNK A   0     -33.884  19.899   1.112  0.00  0.00    +0.010 C 
BRANCH   7   8
ATOM      8  C   UNK A   0     -33.127  18.634   1.526  0.00  0.00    +0.001 C 
BRANCH   8   9
ATOM      9  C   UNK A   0     -31.790  18.460   0.802  0.00  0.00    +0.001 C 
BRANCH   9  10
ATOM     10  C   UNK A   0     -31.421  19.718   0.009  0.00  0.00    +0.011 C 
BRANCH  10  11
ATOM     11  C   UNK A   0     -29.951  19.693  -0.399  0.00  0.00    +0.053 C 
BRANCH  11  12
ATOM     12  S   UNK A   0     -29.185  18.120   0.083  0.00  0.00    -0.168 S 
ATOM     13  H   UNK A   0     -30.099  17.119  -0.024  0.00  0.00    +0.102 HD
ENDBRANCH  11  12
ENDBRANCH  10  11
ENDBRANCH   9  10
ENDBRANCH   8   9
ENDBRANCH   7   8
ENDBRANCH   6   7
ENDBRANCH   4   6
ENDBRANCH   1   3
BRANCH   1  15
ATOM     14  O   UNK A   1     -38.120  23.123   2.989  0.00  0.00    -0.248 OA
ATOM     15  C   UNK A   1     -37.364  23.767   3.706  0.00  0.00    +0.334 C 
BRANCH  15  16
ATOM     16  O   UNK A   1     -37.748  24.901   4.349  0.00  0.00    -0.479 OA
ATOM     17  H   UNK A   1     -38.659  25.106   4.432  0.00  0.00    +0.295 HD
ENDBRANCH  15  16
ENDBRANCH   1  15
BRANCH   1  18
ATOM     18  C   UNK A   1     -35.520  23.662   5.413  0.00  0.00    +0.155 C 
ATOM     19  C   UNK A   1     -35.455  22.359   6.202  0.00  0.00    +0.035 C 
BRANCH  18  20
ATOM     20  O   UNK A   1     -34.260  24.322   5.511  0.00  0.00    -0.274 OA
BRANCH  20  21
ATOM     21  P   UNK A   1     -34.198  25.903   5.189  0.00  0.00    +0.473 P 
ATOM     22  O   UNK A   1     -35.531  26.590   5.116  0.00  0.00    -0.227 OA
BRANCH  21  23
ATOM     23  O   UNK A   1     -33.205  26.459   6.336  0.00  0.00    -0.303 OA
ATOM     24  H   UNK A   1     -33.659  27.140   6.857  0.00  0.00    +0.222 HD
ENDBRANCH  21  23
BRANCH  21  25
ATOM     25  O   UNK A   1     -33.301  25.989   3.846  0.00  0.00    -0.303 OA
ATOM     26  H   UNK A   1     -32.461  25.527   3.989  0.00  0.00    +0.222 HD
ENDBRANCH  21  25
ENDBRANCH  20  21
ENDBRANCH  18  20
ENDBRANCH   1  18
TORSDOF 15
ENDMDL
MODEL 4
REMARK VINA RESULT:      -5.2      5.430      7.593
REMARK  Name = 5486800
REMARK  15 active torsions:
REMARK  status: ('A' for Active; 'I' for Inactive)
REMARK    1  A    between atoms: C_1  and  N_3
REMARK    2  A    between atoms: C_1  and  C_15
REMARK    3  A    between atoms: C_1  and  C_18
REMARK    4  A    between atoms: C_4  and  C_6
REMARK    5  A    between atoms: C_6  and  C_7
REMARK    6  A    between atoms: C_7  and  C_8
REMARK    7  A    between atoms: C_8  and  C_9
REMARK    8  A    between atoms: C_9  and  C_10
REMARK    9  A    between atoms: C_10  and  C_11
REMARK   10  A    between atoms: C_11  and  S_12
REMARK   11  A    between atoms: C_15  and  O_16
REMARK   12  A    between atoms: C_18  and  O_20
REMARK   13  A    between atoms: O_20  and  P_21
REMARK   14  A    between atoms: P_21  and  O_23
REMARK   15  A    between atoms: P_21  and  O_25
REMARK                            x       y       z     vdW  Elec       q    Type
REMARK                         _______ _______ _______ _____ _____    ______ ____
ROOT
ATOM      1  C   UNK A   1     -35.955  22.362   3.622  0.00  0.00    +0.199 C 
ENDROOT
BRANCH   1   3
ATOM      2  O   UNK A   0     -36.812  20.310   1.772  0.00  0.00    -0.275 OA
ATOM      3  N   UNK A   1     -35.120  21.415   2.919  0.00  0.00    -0.295 N 
ATOM      4  C   UNK A   0     -35.624  20.462   2.046  0.00  0.00    +0.223 C 
ATOM      5  H   UNK A   1     -34.147  21.448   3.066  0.00  0.00    +0.150 HD
BRANCH   4   6
ATOM      6  C   UNK A   0     -34.517  19.612   1.448  0.00  0.00    +0.085 C 
BRANCH   6   7
ATOM      7  C   UNK A   0     -33.550  20.432   0.596  0.00  0.00    +0.010 C 
BRANCH   7   8
ATOM      8  C   UNK A   0     -32.148  19.824   0.510  0.00  0.00    +0.001 C 
BRANCH   8   9
ATOM      9  C   UNK A   0     -32.067  18.401   1.068  0.00  0.00    +0.001 C 
BRANCH   9  10
ATOM     10  C   UNK A   0     -30.681  17.791   0.832  0.00  0.00    +0.011 C 
BRANCH  10  11
ATOM     11  C   UNK A   0     -30.752  16.654  -0.183  0.00  0.00    +0.053 C 
BRANCH  11  12
ATOM     12  S   UNK A   0     -32.413  15.922  -0.202  0.00  0.00    -0.168 S 
ATOM     13  H   UNK A   0     -32.681  15.436  -1.444  0.00  0.00    +0.102 HD
ENDBRANCH  11  12
ENDBRANCH  10  11
ENDBRANCH   9  10
ENDBRANCH   8   9
ENDBRANCH   7   8
ENDBRANCH   6   7
ENDBRANCH   4   6
ENDBRANCH   1   3
BRANCH   1  15
ATOM     14  O   UNK A   1     -35.831  23.053   5.957  0.00  0.00    -0.248 OA
ATOM     15  C   UNK A   1     -35.683  22.187   5.104  0.00  0.00    +0.334 C 
BRANCH  15  16
ATOM     16  O   UNK A   1     -35.200  20.949   5.390  0.00  0.00    -0.479 OA
ATOM     17  H   UNK A   1     -35.484  20.502   6.163  0.00  0.00    +0.295 HD
ENDBRANCH  15  16
ENDBRANCH   1  15
BRANCH   1  18
ATOM     18  C   UNK A   1     -35.715  23.810   3.184  0.00  0.00    +0.155 C 
ATOM     19  C   UNK A   1     -34.530  23.950   2.234  0.00  0.00    +0.035 C 
BRANCH  18  20
ATOM     20  O   UNK A   1     -36.877  24.340   2.550  0.00  0.00    -0.274 OA
BRANCH  20  21
ATOM     21  P   UNK A   1     -37.915  25.192   3.446  0.00  0.00    +0.473 P 
ATOM     22  O   UNK A   1     -39.236  24.526   3.697  0.00  0.00    -0.227 OA
BRANCH  21  23
ATOM     23  O   UNK A   1     -37.051  25.518   4.773  0.00  0.00    -0.303 OA
ATOM     24  H   UNK A   1     -36.149  25.770   4.520  0.00  0.00    +0.222 HD
ENDBRANCH  21  23
BRANCH  21  25
ATOM     25  O   UNK A   1     -37.992  26.622   2.693  0.00  0.00    -0.303 OA
ATOM     26  H   UNK A   1     -37.223  27.158   2.938  0.00  0.00    +0.222 HD
ENDBRANCH  21  25
ENDBRANCH  20  21
ENDBRANCH  18  20
ENDBRANCH   1  18
TORSDOF 15
ENDMDL
MODEL 5
REMARK VINA RESULT:      -5.1      5.061      7.706
REMARK  Name = 5486800
REMARK  15 active torsions:
REMARK  status: ('A' for Active; 'I' for Inactive)
REMARK    1  A    between atoms: C_1  and  N_3
REMARK    2  A    between atoms: C_1  and  C_15
REMARK    3  A    between atoms: C_1  and  C_18
REMARK    4  A    between atoms: C_4  and  C_6
REMARK    5  A    between atoms: C_6  and  C_7
REMARK    6  A    between atoms: C_7  and  C_8
REMARK    7  A    between atoms: C_8  and  C_9
REMARK    8  A    between atoms: C_9  and  C_10
REMARK    9  A    between atoms: C_10  and  C_11
REMARK   10  A    between atoms: C_11  and  S_12
REMARK   11  A    between atoms: C_15  and  O_16
REMARK   12  A    between atoms: C_18  and  O_20
REMARK   13  A    between atoms: O_20  and  P_21
REMARK   14  A    between atoms: P_21  and  O_23
REMARK   15  A    between atoms: P_21  and  O_25
REMARK                            x       y       z     vdW  Elec       q    Type
REMARK                         _______ _______ _______ _____ _____    ______ ____
ROOT
ATOM      1  C   UNK A   1     -35.903  22.485   4.086  0.00  0.00    +0.199 C 
ENDROOT
BRANCH   1   3
ATOM      2  O   UNK A   0     -37.745  21.437   2.115  0.00  0.00    -0.275 OA
ATOM      3  N   UNK A   1     -35.675  21.390   3.171  0.00  0.00    -0.295 N 
ATOM      4  C   UNK A   0     -36.623  20.957   2.255  0.00  0.00    +0.223 C 
ATOM      5  H   UNK A   1     -34.805  20.930   3.197  0.00  0.00    +0.150 HD
BRANCH   4   6
ATOM      6  C   UNK A   0     -36.105  19.799   1.421  0.00  0.00    +0.085 C 
BRANCH   6   7
ATOM      7  C   UNK A   0     -34.706  20.062   0.865  0.00  0.00    +0.010 C 
BRANCH   7   8
ATOM      8  C   UNK A   0     -33.635  19.137   1.448  0.00  0.00    +0.001 C 
BRANCH   8   9
ATOM      9  C   UNK A   0     -32.290  19.232   0.723  0.00  0.00    +0.001 C 
BRANCH   9  10
ATOM     10  C   UNK A   0     -31.411  18.013   1.024  0.00  0.00    +0.011 C 
BRANCH  10  11
ATOM     11  C   UNK A   0     -31.691  16.883   0.038  0.00  0.00    +0.053 C 
BRANCH  11  12
ATOM     12  S   UNK A   0     -31.789  17.528  -1.656  0.00  0.00    -0.168 S 
ATOM     13  H   UNK A   0     -30.705  17.111  -2.364  0.00  0.00    +0.102 HD
ENDBRANCH  11  12
ENDBRANCH  10  11
ENDBRANCH   9  10
ENDBRANCH   8   9
ENDBRANCH   7   8
ENDBRANCH   6   7
ENDBRANCH   4   6
ENDBRANCH   1   3
BRANCH   1  15
ATOM     14  O   UNK A   1     -35.374  22.727   6.453  0.00  0.00    -0.248 OA
ATOM     15  C   UNK A   1     -35.478  22.013   5.464  0.00  0.00    +0.334 C 
BRANCH  15  16
ATOM     16  O   UNK A   1     -35.171  20.689   5.477  0.00  0.00    -0.479 OA
ATOM     17  H   UNK A   1     -35.801  20.065   5.780  0.00  0.00    +0.295 HD
ENDBRANCH  15  16
ENDBRANCH   1  15
BRANCH   1  18
ATOM     18  C   UNK A   1     -35.161  23.763   3.686  0.00  0.00    +0.155 C 
ATOM     19  C   UNK A   1     -34.702  23.747   2.232  0.00  0.00    +0.035 C 
BRANCH  18  20
ATOM     20  O   UNK A   1     -35.986  24.907   3.894  0.00  0.00    -0.274 OA
BRANCH  20  21
ATOM     21  P   UNK A   1     -35.388  26.133   4.759  0.00  0.00    +0.473 P 
ATOM     22  O   UNK A   1     -34.789  27.248   3.952  0.00  0.00    -0.227 OA
BRANCH  21  23
ATOM     23  O   UNK A   1     -36.643  26.557   5.685  0.00  0.00    -0.303 OA
ATOM     24  H   UNK A   1     -36.709  25.952   6.440  0.00  0.00    +0.222 HD
ENDBRANCH  21  23
BRANCH  21  25
ATOM     25  O   UNK A   1     -34.382  25.415   5.802  0.00  0.00    -0.303 OA
ATOM     26  H   UNK A   1     -33.811  24.794   5.325  0.00  0.00    +0.222 HD
ENDBRANCH  21  25
ENDBRANCH  20  21
ENDBRANCH  18  20
ENDBRANCH   1  18
TORSDOF 15
ENDMDL
MODEL 6
REMARK VINA RESULT:      -5.0      4.691      6.948
REMARK  Name = 5486800
REMARK  15 active torsions:
REMARK  status: ('A' for Active; 'I' for Inactive)
REMARK    1  A    between atoms: C_1  and  N_3
REMARK    2  A    between atoms: C_1  and  C_15
REMARK    3  A    between atoms: C_1  and  C_18
REMARK    4  A    between atoms: C_4  and  C_6
REMARK    5  A    between atoms: C_6  and  C_7
REMARK    6  A    between atoms: C_7  and  C_8
REMARK    7  A    between atoms: C_8  and  C_9
REMARK    8  A    between atoms: C_9  and  C_10
REMARK    9  A    between atoms: C_10  and  C_11
REMARK   10  A    between atoms: C_11  and  S_12
REMARK   11  A    between atoms: C_15  and  O_16
REMARK   12  A    between atoms: C_18  and  O_20
REMARK   13  A    between atoms: O_20  and  P_21
REMARK   14  A    between atoms: P_21  and  O_23
REMARK   15  A    between atoms: P_21  and  O_25
REMARK                            x       y       z     vdW  Elec       q    Type
REMARK                         _______ _______ _______ _____ _____    ______ ____
ROOT
ATOM      1  C   UNK A   1     -36.086  22.363   3.747  0.00  0.00    +0.199 C 
ENDROOT
BRANCH   1   3
ATOM      2  O   UNK A   0     -37.465  20.908   1.661  0.00  0.00    -0.275 OA
ATOM      3  N   UNK A   1     -35.558  21.294   2.931  0.00  0.00    -0.295 N 
ATOM      4  C   UNK A   0     -36.298  20.653   1.949  0.00  0.00    +0.223 C 
ATOM      5  H   UNK A   1     -34.627  21.008   3.079  0.00  0.00    +0.150 HD
BRANCH   4   6
ATOM      6  C   UNK A   0     -35.484  19.580   1.248  0.00  0.00    +0.085 C 
BRANCH   6   7
ATOM      7  C   UNK A   0     -33.990  19.695   1.546  0.00  0.00    +0.010 C 
BRANCH   7   8
ATOM      8  C   UNK A   0     -33.219  18.395   1.307  0.00  0.00    +0.001 C 
BRANCH   8   9
ATOM      9  C   UNK A   0     -31.769  18.619   0.870  0.00  0.00    +0.001 C 
BRANCH   9  10
ATOM     10  C   UNK A   0     -31.614  19.946   0.121  0.00  0.00    +0.011 C 
BRANCH  10  11
ATOM     11  C   UNK A   0     -30.693  19.786  -1.085  0.00  0.00    +0.053 C 
BRANCH  11  12
ATOM     12  S   UNK A   0     -29.410  21.070  -1.080  0.00  0.00    -0.168 S 
ATOM     13  H   UNK A   0     -29.714  22.011  -0.146  0.00  0.00    +0.102 HD
ENDBRANCH  11  12
ENDBRANCH  10  11
ENDBRANCH   9  10
ENDBRANCH   8   9
ENDBRANCH   7   8
ENDBRANCH   6   7
ENDBRANCH   4   6
ENDBRANCH   1   3
BRANCH   1  15
ATOM     14  O   UNK A   1     -35.272  23.112   5.920  0.00  0.00    -0.248 OA
ATOM     15  C   UNK A   1     -35.500  22.198   5.137  0.00  0.00    +0.334 C 
BRANCH  15  16
ATOM     16  O   UNK A   1     -35.202  20.902   5.413  0.00  0.00    -0.479 OA
ATOM     17  H   UNK A   1     -35.891  20.284   5.561  0.00  0.00    +0.295 HD
ENDBRANCH  15  16
ENDBRANCH   1  15
BRANCH   1  18
ATOM     18  C   UNK A   1     -35.783  23.754   3.181  0.00  0.00    +0.155 C 
ATOM     19  C   UNK A   1     -34.630  23.745   2.183  0.00  0.00    +0.035 C 
BRANCH  18  20
ATOM     20  O   UNK A   1     -36.937  24.297   2.544  0.00  0.00    -0.274 OA
BRANCH  20  21
ATOM     21  P   UNK A   1     -37.945  25.197   3.429  0.00  0.00    +0.473 P 
ATOM     22  O   UNK A   1     -39.309  24.606   3.639  0.00  0.00    -0.227 OA
BRANCH  21  23
ATOM     23  O   UNK A   1     -37.096  25.452   4.781  0.00  0.00    -0.303 OA
ATOM     24  H   UNK A   1     -36.148  25.438   4.576  0.00  0.00    +0.222 HD
ENDBRANCH  21  23
BRANCH  21  25
ATOM     25  O   UNK A   1     -37.920  26.639   2.696  0.00  0.00    -0.303 OA
ATOM     26  H   UNK A   1     -38.697  27.152   2.967  0.00  0.00    +0.222 HD
ENDBRANCH  21  25
ENDBRANCH  20  21
ENDBRANCH  18  20
ENDBRANCH   1  18
TORSDOF 15
ENDMDL
MODEL 7
REMARK VINA RESULT:      -5.0      3.771      5.897
REMARK  Name = 5486800
REMARK  15 active torsions:
REMARK  status: ('A' for Active; 'I' for Inactive)
REMARK    1  A    between atoms: C_1  and  N_3
REMARK    2  A    between atoms: C_1  and  C_15
REMARK    3  A    between atoms: C_1  and  C_18
REMARK    4  A    between atoms: C_4  and  C_6
REMARK    5  A    between atoms: C_6  and  C_7
REMARK    6  A    between atoms: C_7  and  C_8
REMARK    7  A    between atoms: C_8  and  C_9
REMARK    8  A    between atoms: C_9  and  C_10
REMARK    9  A    between atoms: C_10  and  C_11
REMARK   10  A    between atoms: C_11  and  S_12
REMARK   11  A    between atoms: C_15  and  O_16
REMARK   12  A    between atoms: C_18  and  O_20
REMARK   13  A    between atoms: O_20  and  P_21
REMARK   14  A    between atoms: P_21  and  O_23
REMARK   15  A    between atoms: P_21  and  O_25
REMARK                            x       y       z     vdW  Elec       q    Type
REMARK                         _______ _______ _______ _____ _____    ______ ____
ROOT
ATOM      1  C   UNK A   1     -38.662  22.148   0.851  0.00  0.00    +0.199 C 
ENDROOT
BRANCH   1   3
ATOM      2  O   UNK A   0     -36.605  20.148   0.477  0.00  0.00    -0.275 OA
ATOM      3  N   UNK A   1     -37.628  21.772   1.788  0.00  0.00    -0.295 N 
ATOM      4  C   UNK A   0     -36.679  20.796   1.518  0.00  0.00    +0.223 C 
ATOM      5  H   UNK A   1     -37.595  22.231   2.659  0.00  0.00    +0.150 HD
BRANCH   4   6
ATOM      6  C   UNK A   0     -35.715  20.620   2.678  0.00  0.00    +0.085 C 
BRANCH   6   7
ATOM      7  C   UNK A   0     -35.555  21.897   3.501  0.00  0.00    +0.010 C 
BRANCH   7   8
ATOM      8  C   UNK A   0     -35.320  21.636   4.991  0.00  0.00    +0.001 C 
BRANCH   8   9
ATOM      9  C   UNK A   0     -35.214  22.916   5.824  0.00  0.00    +0.001 C 
BRANCH   9  10
ATOM     10  C   UNK A   0     -34.496  24.025   5.048  0.00  0.00    +0.011 C 
BRANCH  10  11
ATOM     11  C   UNK A   0     -34.991  25.402   5.482  0.00  0.00    +0.053 C 
BRANCH  11  12
ATOM     12  S   UNK A   0     -35.094  26.519   4.056  0.00  0.00    -0.168 S 
ATOM     13  H   UNK A   0     -34.703  27.768   4.428  0.00  0.00    +0.102 HD
ENDBRANCH  11  12
ENDBRANCH  10  11
ENDBRANCH   9  10
ENDBRANCH   8   9
ENDBRANCH   7   8
ENDBRANCH   6   7
ENDBRANCH   4   6
ENDBRANCH   1   3
BRANCH   1  15
ATOM     14  O   UNK A   1     -40.766  20.997   0.408  0.00  0.00    -0.248 OA
ATOM     15  C   UNK A   1     -39.899  21.343   1.202  0.00  0.00    +0.334 C 
BRANCH  15  16
ATOM     16  O   UNK A   1     -39.973  21.078   2.533  0.00  0.00    -0.479 OA
ATOM     17  H   UNK A   1     -39.389  21.504   3.129  0.00  0.00    +0.295 HD
ENDBRANCH  15  16
ENDBRANCH   1  15
BRANCH   1  18
ATOM     18  C   UNK A   1     -38.960  23.651   0.861  0.00  0.00    +0.155 C 
ATOM     19  C   UNK A   1     -39.635  24.126  -0.421  0.00  0.00    +0.035 C 
BRANCH  18  20
ATOM     20  O   UNK A   1     -39.790  23.989   1.970  0.00  0.00    -0.274 OA
BRANCH  20  21
ATOM     21  P   UNK A   1     -39.146  24.858   3.169  0.00  0.00    +0.473 P 
ATOM     22  O   UNK A   1     -37.904  24.278   3.780  0.00  0.00    -0.227 OA
BRANCH  21  23
ATOM     23  O   UNK A   1     -38.957  26.312   2.489  0.00  0.00    -0.303 OA
ATOM     24  H   UNK A   1     -38.818  26.209   1.534  0.00  0.00    +0.222 HD
ENDBRANCH  21  23
BRANCH  21  25
ATOM     25  O   UNK A   1     -40.380  25.082   4.190  0.00  0.00    -0.303 OA
ATOM     26  H   UNK A   1     -40.577  24.250   4.646  0.00  0.00    +0.222 HD
ENDBRANCH  21  25
ENDBRANCH  20  21
ENDBRANCH  18  20
ENDBRANCH   1  18
TORSDOF 15
ENDMDL
MODEL 8
REMARK VINA RESULT:      -5.0      5.332      8.328
REMARK  Name = 5486800
REMARK  15 active torsions:
REMARK  status: ('A' for Active; 'I' for Inactive)
REMARK    1  A    between atoms: C_1  and  N_3
REMARK    2  A    between atoms: C_1  and  C_15
REMARK    3  A    between atoms: C_1  and  C_18
REMARK    4  A    between atoms: C_4  and  C_6
REMARK    5  A    between atoms: C_6  and  C_7
REMARK    6  A    between atoms: C_7  and  C_8
REMARK    7  A    between atoms: C_8  and  C_9
REMARK    8  A    between atoms: C_9  and  C_10
REMARK    9  A    between atoms: C_10  and  C_11
REMARK   10  A    between atoms: C_11  and  S_12
REMARK   11  A    between atoms: C_15  and  O_16
REMARK   12  A    between atoms: C_18  and  O_20
REMARK   13  A    between atoms: O_20  and  P_21
REMARK   14  A    between atoms: P_21  and  O_23
REMARK   15  A    between atoms: P_21  and  O_25
REMARK                            x       y       z     vdW  Elec       q    Type
REMARK                         _______ _______ _______ _____ _____    ______ ____
ROOT
ATOM      1  C   UNK A   1     -36.197  23.572   3.725  0.00  0.00    +0.199 C 
ENDROOT
BRANCH   1   3
ATOM      2  O   UNK A   0     -34.767  22.400   1.499  0.00  0.00    -0.275 OA
ATOM      3  N   UNK A   1     -36.078  22.168   3.404  0.00  0.00    -0.295 N 
ATOM      4  C   UNK A   0     -35.367  21.698   2.309  0.00  0.00    +0.223 C 
ATOM      5  H   UNK A   1     -36.523  21.514   3.991  0.00  0.00    +0.150 HD
BRANCH   4   6
ATOM      6  C   UNK A   0     -35.408  20.182   2.227  0.00  0.00    +0.085 C 
BRANCH   6   7
ATOM      7  C   UNK A   0     -34.621  19.643   1.034  0.00  0.00    +0.010 C 
BRANCH   7   8
ATOM      8  C   UNK A   0     -33.237  19.108   1.409  0.00  0.00    +0.001 C 
BRANCH   8   9
ATOM      9  C   UNK A   0     -32.943  17.722   0.829  0.00  0.00    +0.001 C 
BRANCH   9  10
ATOM     10  C   UNK A   0     -34.156  17.167   0.076  0.00  0.00    +0.011 C 
BRANCH  10  11
ATOM     11  C   UNK A   0     -33.876  15.761  -0.446  0.00  0.00    +0.053 C 
BRANCH  11  12
ATOM     12  S   UNK A   0     -32.104  15.384  -0.339  0.00  0.00    -0.168 S 
ATOM     13  H   UNK A   0     -31.479  16.348   0.389  0.00  0.00    +0.102 HD
ENDBRANCH  11  12
ENDBRANCH  10  11
ENDBRANCH   9  10
ENDBRANCH   8   9
ENDBRANCH   7   8
ENDBRANCH   6   7
ENDBRANCH   4   6
ENDBRANCH   1   3
BRANCH   1  15
ATOM     14  O   UNK A   1     -38.485  23.346   2.913  0.00  0.00    -0.248 OA
ATOM     15  C   UNK A   1     -37.665  23.937   3.605  0.00  0.00    +0.334 C 
BRANCH  15  16
ATOM     16  O   UNK A   1     -37.974  25.047   4.326  0.00  0.00    -0.479 OA
ATOM     17  H   UNK A   1     -37.340  25.729   4.430  0.00  0.00    +0.295 HD
ENDBRANCH  15  16
ENDBRANCH   1  15
BRANCH   1  18
ATOM     18  C   UNK A   1     -35.654  23.915   5.115  0.00  0.00    +0.155 C 
ATOM     19  C   UNK A   1     -35.479  22.685   6.000  0.00  0.00    +0.035 C 
BRANCH  18  20
ATOM     20  O   UNK A   1     -34.401  24.588   5.011  0.00  0.00    -0.274 OA
BRANCH  20  21
ATOM     21  P   UNK A   1     -34.402  26.202   4.986  0.00  0.00    +0.473 P 
ATOM     22  O   UNK A   1     -33.843  26.820   3.737  0.00  0.00    -0.227 OA
BRANCH  21  23
ATOM     23  O   UNK A   1     -35.948  26.561   5.293  0.00  0.00    -0.303 OA
ATOM     24  H   UNK A   1     -35.993  27.356   5.846  0.00  0.00    +0.222 HD
ENDBRANCH  21  23
BRANCH  21  25
ATOM     25  O   UNK A   1     -33.646  26.611   6.357  0.00  0.00    -0.303 OA
ATOM     26  H   UNK A   1     -33.717  27.568   6.492  0.00  0.00    +0.222 HD
ENDBRANCH  21  25
ENDBRANCH  20  21
ENDBRANCH  18  20
ENDBRANCH   1  18
TORSDOF 15
ENDMDL
MODEL 9
REMARK VINA RESULT:      -5.0      5.334      8.042
REMARK  Name = 5486800
REMARK  15 active torsions:
REMARK  status: ('A' for Active; 'I' for Inactive)
REMARK    1  A    between atoms: C_1  and  N_3
REMARK    2  A    between atoms: C_1  and  C_15
REMARK    3  A    between atoms: C_1  and  C_18
REMARK    4  A    between atoms: C_4  and  C_6
REMARK    5  A    between atoms: C_6  and  C_7
REMARK    6  A    between atoms: C_7  and  C_8
REMARK    7  A    between atoms: C_8  and  C_9
REMARK    8  A    between atoms: C_9  and  C_10
REMARK    9  A    between atoms: C_10  and  C_11
REMARK   10  A    between atoms: C_11  and  S_12
REMARK   11  A    between atoms: C_15  and  O_16
REMARK   12  A    between atoms: C_18  and  O_20
REMARK   13  A    between atoms: O_20  and  P_21
REMARK   14  A    between atoms: P_21  and  O_23
REMARK   15  A    between atoms: P_21  and  O_25
REMARK                            x       y       z     vdW  Elec       q    Type
REMARK                         _______ _______ _______ _____ _____    ______ ____
ROOT
ATOM      1  C   UNK A   1     -35.669  22.665   3.562  0.00  0.00    +0.199 C 
ENDROOT
BRANCH   1   3
ATOM      2  O   UNK A   0     -37.183  20.767   1.987  0.00  0.00    -0.275 OA
ATOM      3  N   UNK A   1     -35.147  21.602   2.734  0.00  0.00    -0.295 N 
ATOM      4  C   UNK A   0     -35.955  20.737   2.011  0.00  0.00    +0.223 C 
ATOM      5  H   UNK A   1     -34.170  21.488   2.679  0.00  0.00    +0.150 HD
BRANCH   4   6
ATOM      6  C   UNK A   0     -35.132  19.730   1.226  0.00  0.00    +0.085 C 
BRANCH   6   7
ATOM      7  C   UNK A   0     -33.950  20.378   0.508  0.00  0.00    +0.010 C 
BRANCH   7   8
ATOM      8  C   UNK A   0     -32.632  19.623   0.700  0.00  0.00    +0.001 C 
BRANCH   8   9
ATOM      9  C   UNK A   0     -32.800  18.280   1.414  0.00  0.00    +0.001 C 
BRANCH   9  10
ATOM     10  C   UNK A   0     -32.475  17.110   0.479  0.00  0.00    +0.011 C 
BRANCH  10  11
ATOM     11  C   UNK A   0     -33.748  16.533  -0.133  0.00  0.00    +0.053 C 
BRANCH  11  12
ATOM     12  S   UNK A   0     -33.761  16.790  -1.930  0.00  0.00    -0.168 S 
ATOM     13  H   UNK A   0     -34.510  17.886  -2.226  0.00  0.00    +0.102 HD
ENDBRANCH  11  12
ENDBRANCH  10  11
ENDBRANCH   9  10
ENDBRANCH   8   9
ENDBRANCH   7   8
ENDBRANCH   6   7
ENDBRANCH   4   6
ENDBRANCH   1   3
BRANCH   1  15
ATOM     14  O   UNK A   1     -35.102  21.130   5.370  0.00  0.00    -0.248 OA
ATOM     15  C   UNK A   1     -35.522  22.221   5.006  0.00  0.00    +0.334 C 
BRANCH  15  16
ATOM     16  O   UNK A   1     -35.961  23.168   5.876  0.00  0.00    -0.479 OA
ATOM     17  H   UNK A   1     -36.213  22.924   6.745  0.00  0.00    +0.295 HD
ENDBRANCH  15  16
ENDBRANCH   1  15
BRANCH   1  18
ATOM     18  C   UNK A   1     -34.972  24.007   3.323  0.00  0.00    +0.155 C 
ATOM     19  C   UNK A   1     -34.495  24.175   1.884  0.00  0.00    +0.035 C 
BRANCH  18  20
ATOM     20  O   UNK A   1     -35.844  25.088   3.646  0.00  0.00    -0.274 OA
BRANCH  20  21
ATOM     21  P   UNK A   1     -35.350  26.167   4.740  0.00  0.00    +0.473 P 
ATOM     22  O   UNK A   1     -34.104  25.792   5.487  0.00  0.00    -0.227 OA
BRANCH  21  23
ATOM     23  O   UNK A   1     -35.244  27.527   3.873  0.00  0.00    -0.303 OA
ATOM     24  H   UNK A   1     -34.378  27.567   3.436  0.00  0.00    +0.222 HD
ENDBRANCH  21  23
BRANCH  21  25
ATOM     25  O   UNK A   1     -36.659  26.414   5.658  0.00  0.00    -0.303 OA
ATOM     26  H   UNK A   1     -37.449  26.433   5.097  0.00  0.00    +0.222 HD
ENDBRANCH  21  25
ENDBRANCH  20  21
ENDBRANCH  18  20
ENDBRANCH   1  18
TORSDOF 15
ENDMDL
