MODEL 1
REMARK VINA RESULT:      -6.7      0.000      0.000
REMARK  Name = 54669844
REMARK  5 active torsions:
REMARK  status: ('A' for Active; 'I' for Inactive)
REMARK    1  A    between atoms: C_3  and  O_14
REMARK    2  A    between atoms: C_8  and  C_16
REMARK    3  A    between atoms: C_16  and  C_17
REMARK    4  A    between atoms: C_17  and  O_18
REMARK    5  A    between atoms: O_18  and  S_19
REMARK                            x       y       z     vdW  Elec       q    Type
REMARK                         _______ _______ _______ _____ _____    ______ ____
ROOT
ATOM      1  O   UNL     1     -36.041  23.330   0.189  0.00  0.00    -0.291 OA
ATOM      2  C   UNL     1     -35.581  20.989   0.696  0.00  0.00    +0.093 C 
ATOM      3  C   UNL     1     -35.530  20.299   2.083  0.00  0.00    +0.140 C 
ATOM      4  C   UNL     1     -35.544  21.436   3.058  0.00  0.00    +0.007 C 
ATOM      5  C   UNL     1     -35.749  22.666   2.446  0.00  0.00    +0.029 C 
ATOM      6  C   UNL     1     -35.832  22.453   1.009  0.00  0.00    +0.175 C 
ATOM      7  C   UNL     1     -35.829  23.855   3.148  0.00  0.00    -0.023 C 
ATOM      8  C   UNL     1     -35.694  23.789   4.534  0.00  0.00    -0.027 C 
ATOM      9  C   UNL     1     -35.410  21.371   4.437  0.00  0.00    -0.006 C 
ATOM     10  C   UNL     1     -35.485  22.556   5.174  0.00  0.00    -0.026 C 
ATOM     11  C   UNL     1     -34.268  20.850  -0.062  0.00  0.00    +0.011 C 
ATOM     12  C   UNL     1     -36.044  25.159   2.460  0.00  0.00    +0.031 C 
ATOM     13  C   UNL     1     -35.340  22.484   6.660  0.00  0.00    +0.031 C 
ENDROOT
BRANCH   3  14
ATOM     14  O   UNL     1     -36.701  19.519   2.285  0.00  0.00    -0.380 OA
ATOM     15  H   UNL     1     -37.472  20.000   1.944  0.00  0.00    +0.211 HD
ENDBRANCH   3  14
BRANCH   8  16
ATOM     16  C   UNL     1     -35.770  25.043   5.348  0.00  0.00    +0.060 C 
BRANCH  16  17
ATOM     17  C   UNL     1     -34.398  25.675   5.593  0.00  0.00    +0.182 C 
BRANCH  17  18
ATOM     18  O   UNL     1     -34.314  26.916   4.906  0.00  0.00    -0.200 OA
BRANCH  18  19
ATOM     19  S   UNL     1     -32.853  27.601   4.643  0.00  0.00    +0.239 S 
ATOM     20  O   UNL     1     -32.063  27.368   6.051  0.00  0.00    -0.116 OA
ATOM     21  O   UNL     1     -32.179  26.813   3.628  0.00  0.00    -0.116 OA
ATOM     22  O   UNL     1     -33.029  29.028   4.461  0.00  0.00    -0.022 OA
ENDBRANCH  18  19
ENDBRANCH  17  18
ENDBRANCH  16  17
ENDBRANCH   8  16
TORSDOF 5
ENDMDL
MODEL 2
REMARK VINA RESULT:      -6.3      2.938      3.387
REMARK  Name = 54669844
REMARK  5 active torsions:
REMARK  status: ('A' for Active; 'I' for Inactive)
REMARK    1  A    between atoms: C_3  and  O_14
REMARK    2  A    between atoms: C_8  and  C_16
REMARK    3  A    between atoms: C_16  and  C_17
REMARK    4  A    between atoms: C_17  and  O_18
REMARK    5  A    between atoms: O_18  and  S_19
REMARK                            x       y       z     vdW  Elec       q    Type
REMARK                         _______ _______ _______ _____ _____    ______ ____
ROOT
ATOM      1  O   UNL     1     -34.530  22.932  -0.177  0.00  0.00    -0.291 OA
ATOM      2  C   UNL     1     -34.709  20.577   0.436  0.00  0.00    +0.093 C 
ATOM      3  C   UNL     1     -35.135  19.969   1.796  0.00  0.00    +0.140 C 
ATOM      4  C   UNL     1     -35.141  21.136   2.734  0.00  0.00    +0.007 C 
ATOM      5  C   UNL     1     -34.929  22.347   2.086  0.00  0.00    +0.029 C 
ATOM      6  C   UNL     1     -34.712  22.077   0.672  0.00  0.00    +0.175 C 
ATOM      7  C   UNL     1     -34.921  23.563   2.743  0.00  0.00    -0.023 C 
ATOM      8  C   UNL     1     -35.137  23.548   4.120  0.00  0.00    -0.027 C 
ATOM      9  C   UNL     1     -35.355  21.121   4.104  0.00  0.00    -0.006 C 
ATOM     10  C   UNL     1     -35.351  22.335   4.797  0.00  0.00    -0.026 C 
ATOM     11  C   UNL     1     -33.312  20.132   0.022  0.00  0.00    +0.011 C 
ATOM     12  C   UNL     1     -34.687  24.845   2.018  0.00  0.00    +0.031 C 
ATOM     13  C   UNL     1     -35.582  22.317   6.273  0.00  0.00    +0.031 C 
ENDROOT
BRANCH   3  14
ATOM     14  O   UNL     1     -36.458  19.456   1.710  0.00  0.00    -0.380 OA
ATOM     15  H   UNL     1     -37.048  20.142   1.358  0.00  0.00    +0.211 HD
ENDBRANCH   3  14
BRANCH   8  16
ATOM     16  C   UNL     1     -35.138  24.834   4.887  0.00  0.00    +0.060 C 
BRANCH  16  17
ATOM     17  C   UNL     1     -36.472  25.578   4.792  0.00  0.00    +0.182 C 
BRANCH  17  18
ATOM     18  O   UNL     1     -37.504  24.667   4.437  0.00  0.00    -0.200 OA
BRANCH  18  19
ATOM     19  S   UNL     1     -38.570  25.065   3.264  0.00  0.00    +0.239 S 
ATOM     20  O   UNL     1     -38.195  24.047   2.045  0.00  0.00    -0.116 OA
ATOM     21  O   UNL     1     -39.894  24.709   3.739  0.00  0.00    -0.116 OA
ATOM     22  O   UNL     1     -38.294  26.416   2.816  0.00  0.00    -0.022 OA
ENDBRANCH  18  19
ENDBRANCH  17  18
ENDBRANCH  16  17
ENDBRANCH   8  16
TORSDOF 5
ENDMDL
MODEL 3
REMARK VINA RESULT:      -6.2      1.317      1.518
REMARK  Name = 54669844
REMARK  5 active torsions:
REMARK  status: ('A' for Active; 'I' for Inactive)
REMARK    1  A    between atoms: C_3  and  O_14
REMARK    2  A    between atoms: C_8  and  C_16
REMARK    3  A    between atoms: C_16  and  C_17
REMARK    4  A    between atoms: C_17  and  O_18
REMARK    5  A    between atoms: O_18  and  S_19
REMARK                            x       y       z     vdW  Elec       q    Type
REMARK                         _______ _______ _______ _____ _____    ______ ____
ROOT
ATOM      1  O   UNL     1     -34.473  22.067  -0.435  0.00  0.00    -0.291 OA
ATOM      2  C   UNL     1     -34.878  20.218   1.105  0.00  0.00    +0.093 C 
ATOM      3  C   UNL     1     -35.390  20.280   2.566  0.00  0.00    +0.140 C 
ATOM      4  C   UNL     1     -35.314  21.733   2.920  0.00  0.00    +0.007 C 
ATOM      5  C   UNL     1     -34.978  22.533   1.835  0.00  0.00    +0.029 C 
ATOM      6  C   UNL     1     -34.752  21.671   0.684  0.00  0.00    +0.175 C 
ATOM      7  C   UNL     1     -34.876  23.910   1.915  0.00  0.00    -0.023 C 
ATOM      8  C   UNL     1     -35.125  24.499   3.153  0.00  0.00    -0.027 C 
ATOM      9  C   UNL     1     -35.561  22.319   4.152  0.00  0.00    -0.006 C 
ATOM     10  C   UNL     1     -35.464  23.709   4.265  0.00  0.00    -0.026 C 
ATOM     11  C   UNL     1     -33.518  19.540   1.002  0.00  0.00    +0.011 C 
ATOM     12  C   UNL     1     -34.510  24.739   0.732  0.00  0.00    +0.031 C 
ATOM     13  C   UNL     1     -35.732  24.339   5.594  0.00  0.00    +0.031 C 
ENDROOT
BRANCH   3  14
ATOM     14  O   UNL     1     -36.751  19.875   2.625  0.00  0.00    -0.380 OA
ATOM     15  H   UNL     1     -36.875  19.075   2.089  0.00  0.00    +0.211 HD
ENDBRANCH   3  14
BRANCH   8  16
ATOM     16  C   UNL     1     -35.030  25.985   3.302  0.00  0.00    +0.060 C 
BRANCH  16  17
ATOM     17  C   UNL     1     -33.612  26.457   3.632  0.00  0.00    +0.182 C 
BRANCH  17  18
ATOM     18  O   UNL     1     -33.671  27.565   4.520  0.00  0.00    -0.200 OA
BRANCH  18  19
ATOM     19  S   UNL     1     -32.304  28.112   5.229  0.00  0.00    +0.239 S 
ATOM     20  O   UNL     1     -32.189  27.212   6.584  0.00  0.00    -0.116 OA
ATOM     21  O   UNL     1     -31.192  27.750   4.368  0.00  0.00    -0.116 OA
ATOM     22  O   UNL     1     -32.499  29.493   5.625  0.00  0.00    -0.022 OA
ENDBRANCH  18  19
ENDBRANCH  17  18
ENDBRANCH  16  17
ENDBRANCH   8  16
TORSDOF 5
ENDMDL
MODEL 4
REMARK VINA RESULT:      -5.8      3.425      6.859
REMARK  Name = 54669844
REMARK  5 active torsions:
REMARK  status: ('A' for Active; 'I' for Inactive)
REMARK    1  A    between atoms: C_3  and  O_14
REMARK    2  A    between atoms: C_8  and  C_16
REMARK    3  A    between atoms: C_16  and  C_17
REMARK    4  A    between atoms: C_17  and  O_18
REMARK    5  A    between atoms: O_18  and  S_19
REMARK                            x       y       z     vdW  Elec       q    Type
REMARK                         _______ _______ _______ _____ _____    ______ ____
ROOT
ATOM      1  O   UNL     1     -35.360  23.103   6.250  0.00  0.00    -0.291 OA
ATOM      2  C   UNL     1     -35.726  25.377   5.445  0.00  0.00    +0.093 C 
ATOM      3  C   UNL     1     -36.134  25.837   4.023  0.00  0.00    +0.140 C 
ATOM      4  C   UNL     1     -35.980  24.608   3.181  0.00  0.00    +0.007 C 
ATOM      5  C   UNL     1     -35.690  23.476   3.932  0.00  0.00    +0.029 C 
ATOM      6  C   UNL     1     -35.575  23.870   5.328  0.00  0.00    +0.175 C 
ATOM      7  C   UNL     1     -35.532  22.220   3.374  0.00  0.00    -0.023 C 
ATOM      8  C   UNL     1     -35.674  22.111   1.992  0.00  0.00    -0.027 C 
ATOM      9  C   UNL     1     -36.120  24.500   1.806  0.00  0.00    -0.006 C 
ATOM     10  C   UNL     1     -35.965  23.244   1.212  0.00  0.00    -0.026 C 
ATOM     11  C   UNL     1     -34.402  25.986   5.887  0.00  0.00    +0.011 C 
ATOM     12  C   UNL     1     -35.218  21.025   4.208  0.00  0.00    +0.031 C 
ATOM     13  C   UNL     1     -36.117  23.129  -0.270  0.00  0.00    +0.031 C 
ENDROOT
BRANCH   3  14
ATOM     14  O   UNL     1     -37.502  26.223   4.007  0.00  0.00    -0.380 OA
ATOM     15  H   UNL     1     -37.675  26.769   3.223  0.00  0.00    +0.211 HD
ENDBRANCH   3  14
BRANCH   8  16
ATOM     16  C   UNL     1     -35.514  20.778   1.330  0.00  0.00    +0.060 C 
BRANCH  16  17
ATOM     17  C   UNL     1     -34.066  20.485   0.933  0.00  0.00    +0.182 C 
BRANCH  17  18
ATOM     18  O   UNL     1     -33.607  19.327   1.618  0.00  0.00    -0.200 OA
BRANCH  18  19
ATOM     19  S   UNL     1     -32.706  18.218   0.824  0.00  0.00    +0.239 S 
ATOM     20  O   UNL     1     -33.782  17.054   0.441  0.00  0.00    -0.116 OA
ATOM     21  O   UNL     1     -32.260  18.826  -0.417  0.00  0.00    -0.116 OA
ATOM     22  O   UNL     1     -31.741  17.649   1.745  0.00  0.00    -0.022 OA
ENDBRANCH  18  19
ENDBRANCH  17  18
ENDBRANCH  16  17
ENDBRANCH   8  16
TORSDOF 5
ENDMDL
MODEL 5
REMARK VINA RESULT:      -5.8      2.983      5.848
REMARK  Name = 54669844
REMARK  5 active torsions:
REMARK  status: ('A' for Active; 'I' for Inactive)
REMARK    1  A    between atoms: C_3  and  O_14
REMARK    2  A    between atoms: C_8  and  C_16
REMARK    3  A    between atoms: C_16  and  C_17
REMARK    4  A    between atoms: C_17  and  O_18
REMARK    5  A    between atoms: O_18  and  S_19
REMARK                            x       y       z     vdW  Elec       q    Type
REMARK                         _______ _______ _______ _____ _____    ______ ____
ROOT
ATOM      1  O   UNL     1     -33.754  26.532   1.010  0.00  0.00    -0.291 OA
ATOM      2  C   UNL     1     -33.544  27.710   3.137  0.00  0.00    +0.093 C 
ATOM      3  C   UNL     1     -33.657  27.131   4.570  0.00  0.00    +0.140 C 
ATOM      4  C   UNL     1     -34.202  25.751   4.366  0.00  0.00    +0.007 C 
ATOM      5  C   UNL     1     -34.276  25.396   3.025  0.00  0.00    +0.029 C 
ATOM      6  C   UNL     1     -33.838  26.531   2.226  0.00  0.00    +0.175 C 
ATOM      7  C   UNL     1     -34.721  24.159   2.595  0.00  0.00    -0.023 C 
ATOM      8  C   UNL     1     -35.109  23.244   3.572  0.00  0.00    -0.027 C 
ATOM      9  C   UNL     1     -34.588  24.841   5.338  0.00  0.00    -0.006 C 
ATOM     10  C   UNL     1     -35.044  23.582   4.934  0.00  0.00    -0.026 C 
ATOM     11  C   UNL     1     -34.562  28.813   2.882  0.00  0.00    +0.011 C 
ATOM     12  C   UNL     1     -34.793  23.811   1.147  0.00  0.00    +0.031 C 
ATOM     13  C   UNL     1     -35.459  22.602   5.984  0.00  0.00    +0.031 C 
ENDROOT
BRANCH   3  14
ATOM     14  O   UNL     1     -32.367  27.022   5.157  0.00  0.00    -0.380 OA
ATOM     15  H   UNL     1     -32.422  26.478   5.959  0.00  0.00    +0.211 HD
ENDBRANCH   3  14
BRANCH   8  16
ATOM     16  C   UNL     1     -35.600  21.888   3.168  0.00  0.00    +0.060 C 
BRANCH  16  17
ATOM     17  C   UNL     1     -37.041  21.911   2.652  0.00  0.00    +0.182 C 
BRANCH  17  18
ATOM     18  O   UNL     1     -37.778  22.915   3.336  0.00  0.00    -0.200 OA
BRANCH  18  19
ATOM     19  S   UNL     1     -38.987  23.700   2.566  0.00  0.00    +0.239 S 
ATOM     20  O   UNL     1     -40.002  22.502   2.125  0.00  0.00    -0.116 OA
ATOM     21  O   UNL     1     -39.675  24.515   3.551  0.00  0.00    -0.116 OA
ATOM     22  O   UNL     1     -38.460  24.306   1.359  0.00  0.00    -0.022 OA
ENDBRANCH  18  19
ENDBRANCH  17  18
ENDBRANCH  16  17
ENDBRANCH   8  16
TORSDOF 5
ENDMDL
MODEL 6
REMARK VINA RESULT:      -5.8      3.100      3.640
REMARK  Name = 54669844
REMARK  5 active torsions:
REMARK  status: ('A' for Active; 'I' for Inactive)
REMARK    1  A    between atoms: C_3  and  O_14
REMARK    2  A    between atoms: C_8  and  C_16
REMARK    3  A    between atoms: C_16  and  C_17
REMARK    4  A    between atoms: C_17  and  O_18
REMARK    5  A    between atoms: O_18  and  S_19
REMARK                            x       y       z     vdW  Elec       q    Type
REMARK                         _______ _______ _______ _____ _____    ______ ____
ROOT
ATOM      1  O   UNL     1     -37.547  27.660   1.513  0.00  0.00    -0.291 OA
ATOM      2  C   UNL     1     -39.064  25.775   1.832  0.00  0.00    +0.093 C 
ATOM      3  C   UNL     1     -38.956  24.620   2.859  0.00  0.00    +0.140 C 
ATOM      4  C   UNL     1     -37.575  24.757   3.422  0.00  0.00    +0.007 C 
ATOM      5  C   UNL     1     -36.929  25.907   2.984  0.00  0.00    +0.029 C 
ATOM      6  C   UNL     1     -37.807  26.598   2.052  0.00  0.00    +0.175 C 
ATOM      7  C   UNL     1     -35.656  26.259   3.394  0.00  0.00    -0.023 C 
ATOM      8  C   UNL     1     -35.012  25.405   4.288  0.00  0.00    -0.027 C 
ATOM      9  C   UNL     1     -36.935  23.908   4.311  0.00  0.00    -0.006 C 
ATOM     10  C   UNL     1     -35.646  24.237   4.743  0.00  0.00    -0.026 C 
ATOM     11  C   UNL     1     -39.091  25.265   0.397  0.00  0.00    +0.011 C 
ATOM     12  C   UNL     1     -34.988  27.498   2.902  0.00  0.00    +0.031 C 
ATOM     13  C   UNL     1     -34.957  23.320   5.701  0.00  0.00    +0.031 C 
ENDROOT
BRANCH   3  14
ATOM     14  O   UNL     1     -39.891  24.813   3.912  0.00  0.00    -0.380 OA
ATOM     15  H   UNL     1     -40.025  23.975   4.383  0.00  0.00    +0.211 HD
ENDBRANCH   3  14
BRANCH   8  16
ATOM     16  C   UNL     1     -33.632  25.734   4.767  0.00  0.00    +0.060 C 
BRANCH  16  17
ATOM     17  C   UNL     1     -33.634  26.564   6.052  0.00  0.00    +0.182 C 
BRANCH  17  18
ATOM     18  O   UNL     1     -32.315  27.012   6.334  0.00  0.00    -0.200 OA
BRANCH  18  19
ATOM     19  S   UNL     1     -31.731  28.339   5.579  0.00  0.00    +0.239 S 
ATOM     20  O   UNL     1     -30.955  29.144   6.767  0.00  0.00    -0.116 OA
ATOM     21  O   UNL     1     -30.730  27.895   4.627  0.00  0.00    -0.116 OA
ATOM     22  O   UNL     1     -32.843  29.158   5.139  0.00  0.00    -0.022 OA
ENDBRANCH  18  19
ENDBRANCH  17  18
ENDBRANCH  16  17
ENDBRANCH   8  16
TORSDOF 5
ENDMDL
MODEL 7
REMARK VINA RESULT:      -5.7      1.660      2.053
REMARK  Name = 54669844
REMARK  5 active torsions:
REMARK  status: ('A' for Active; 'I' for Inactive)
REMARK    1  A    between atoms: C_3  and  O_14
REMARK    2  A    between atoms: C_8  and  C_16
REMARK    3  A    between atoms: C_16  and  C_17
REMARK    4  A    between atoms: C_17  and  O_18
REMARK    5  A    between atoms: O_18  and  S_19
REMARK                            x       y       z     vdW  Elec       q    Type
REMARK                         _______ _______ _______ _____ _____    ______ ____
ROOT
ATOM      1  O   UNL     1     -38.141  25.025   0.682  0.00  0.00    -0.291 OA
ATOM      2  C   UNL     1     -38.040  22.588   0.625  0.00  0.00    +0.093 C 
ATOM      3  C   UNL     1     -37.561  21.621   1.736  0.00  0.00    +0.140 C 
ATOM      4  C   UNL     1     -36.910  22.516   2.746  0.00  0.00    +0.007 C 
ATOM      5  C   UNL     1     -37.077  23.864   2.454  0.00  0.00    +0.029 C 
ATOM      6  C   UNL     1     -37.805  23.974   1.199  0.00  0.00    +0.175 C 
ATOM      7  C   UNL     1     -36.587  24.877   3.259  0.00  0.00    -0.023 C 
ATOM      8  C   UNL     1     -35.897  24.502   4.411  0.00  0.00    -0.027 C 
ATOM      9  C   UNL     1     -36.224  22.143   3.891  0.00  0.00    -0.006 C 
ATOM     10  C   UNL     1     -35.715  23.144   4.724  0.00  0.00    -0.026 C 
ATOM     11  C   UNL     1     -37.237  22.428  -0.659  0.00  0.00    +0.011 C 
ATOM     12  C   UNL     1     -36.780  26.314   2.916  0.00  0.00    +0.031 C 
ATOM     13  C   UNL     1     -34.976  22.740   5.959  0.00  0.00    +0.031 C 
ENDROOT
BRANCH   3  14
ATOM     14  O   UNL     1     -38.676  20.990   2.350  0.00  0.00    -0.380 OA
ATOM     15  H   UNL     1     -38.400  20.139   2.727  0.00  0.00    +0.211 HD
ENDBRANCH   3  14
BRANCH   8  16
ATOM     16  C   UNL     1     -35.343  25.553   5.321  0.00  0.00    +0.060 C 
BRANCH  16  17
ATOM     17  C   UNL     1     -33.916  25.963   4.953  0.00  0.00    +0.182 C 
BRANCH  17  18
ATOM     18  O   UNL     1     -33.486  27.017   5.804  0.00  0.00    -0.200 OA
BRANCH  18  19
ATOM     19  S   UNL     1     -32.452  28.148   5.236  0.00  0.00    +0.239 S 
ATOM     20  O   UNL     1     -33.323  28.923   4.094  0.00  0.00    -0.116 OA
ATOM     21  O   UNL     1     -32.204  29.091   6.311  0.00  0.00    -0.116 OA
ATOM     22  O   UNL     1     -31.344  27.484   4.577  0.00  0.00    -0.022 OA
ENDBRANCH  18  19
ENDBRANCH  17  18
ENDBRANCH  16  17
ENDBRANCH   8  16
TORSDOF 5
ENDMDL
MODEL 8
REMARK VINA RESULT:      -5.6      2.757      4.094
REMARK  Name = 54669844
REMARK  5 active torsions:
REMARK  status: ('A' for Active; 'I' for Inactive)
REMARK    1  A    between atoms: C_3  and  O_14
REMARK    2  A    between atoms: C_8  and  C_16
REMARK    3  A    between atoms: C_16  and  C_17
REMARK    4  A    between atoms: C_17  and  O_18
REMARK    5  A    between atoms: O_18  and  S_19
REMARK                            x       y       z     vdW  Elec       q    Type
REMARK                         _______ _______ _______ _____ _____    ______ ____
ROOT
ATOM      1  O   UNL     1     -31.190  20.223  -0.994  0.00  0.00    -0.291 OA
ATOM      2  C   UNL     1     -31.927  18.296   0.309  0.00  0.00    +0.093 C 
ATOM      3  C   UNL     1     -33.208  18.151   1.168  0.00  0.00    +0.140 C 
ATOM      4  C   UNL     1     -33.753  19.543   1.252  0.00  0.00    +0.007 C 
ATOM      5  C   UNL     1     -33.061  20.440   0.447  0.00  0.00    +0.029 C 
ATOM      6  C   UNL     1     -31.967  19.727  -0.196  0.00  0.00    +0.175 C 
ATOM      7  C   UNL     1     -33.401  21.776   0.339  0.00  0.00    -0.023 C 
ATOM      8  C   UNL     1     -34.492  22.220   1.085  0.00  0.00    -0.027 C 
ATOM      9  C   UNL     1     -34.837  19.985   1.994  0.00  0.00    -0.006 C 
ATOM     10  C   UNL     1     -35.205  21.332   1.908  0.00  0.00    -0.026 C 
ATOM     11  C   UNL     1     -30.661  18.083   1.129  0.00  0.00    +0.011 C 
ATOM     12  C   UNL     1     -32.636  22.713  -0.531  0.00  0.00    +0.031 C 
ATOM     13  C   UNL     1     -36.375  21.806   2.708  0.00  0.00    +0.031 C 
ENDROOT
BRANCH   3  14
ATOM     14  O   UNL     1     -34.159  17.337   0.495  0.00  0.00    -0.380 OA
ATOM     15  H   UNL     1     -34.742  17.898  -0.041  0.00  0.00    +0.211 HD
ENDBRANCH   3  14
BRANCH   8  16
ATOM     16  C   UNL     1     -34.908  23.656   1.011  0.00  0.00    +0.060 C 
BRANCH  16  17
ATOM     17  C   UNL     1     -34.279  24.513   2.112  0.00  0.00    +0.182 C 
BRANCH  17  18
ATOM     18  O   UNL     1     -35.302  25.102   2.903  0.00  0.00    -0.200 OA
BRANCH  18  19
ATOM     19  S   UNL     1     -35.084  25.274   4.514  0.00  0.00    +0.239 S 
ATOM     20  O   UNL     1     -36.193  24.266   5.159  0.00  0.00    -0.116 OA
ATOM     21  O   UNL     1     -33.772  24.743   4.836  0.00  0.00    -0.116 OA
ATOM     22  O   UNL     1     -35.436  26.628   4.895  0.00  0.00    -0.022 OA
ENDBRANCH  18  19
ENDBRANCH  17  18
ENDBRANCH  16  17
ENDBRANCH   8  16
TORSDOF 5
ENDMDL
MODEL 9
REMARK VINA RESULT:      -5.5      1.802      2.856
REMARK  Name = 54669844
REMARK  5 active torsions:
REMARK  status: ('A' for Active; 'I' for Inactive)
REMARK    1  A    between atoms: C_3  and  O_14
REMARK    2  A    between atoms: C_8  and  C_16
REMARK    3  A    between atoms: C_16  and  C_17
REMARK    4  A    between atoms: C_17  and  O_18
REMARK    5  A    between atoms: O_18  and  S_19
REMARK                            x       y       z     vdW  Elec       q    Type
REMARK                         _______ _______ _______ _____ _____    ______ ____
ROOT
ATOM      1  O   UNL     1     -37.026  22.756   1.793  0.00  0.00    -0.291 OA
ATOM      2  C   UNL     1     -35.944  21.348   3.466  0.00  0.00    +0.093 C 
ATOM      3  C   UNL     1     -35.217  21.784   4.762  0.00  0.00    +0.140 C 
ATOM      4  C   UNL     1     -35.077  23.269   4.622  0.00  0.00    +0.007 C 
ATOM      5  C   UNL     1     -35.747  23.769   3.513  0.00  0.00    +0.029 C 
ATOM      6  C   UNL     1     -36.341  22.651   2.795  0.00  0.00    +0.175 C 
ATOM      7  C   UNL     1     -35.783  25.115   3.196  0.00  0.00    -0.023 C 
ATOM      8  C   UNL     1     -35.106  25.990   4.044  0.00  0.00    -0.027 C 
ATOM      9  C   UNL     1     -34.404  24.140   5.466  0.00  0.00    -0.006 C 
ATOM     10  C   UNL     1     -34.420  25.506   5.171  0.00  0.00    -0.026 C 
ATOM     11  C   UNL     1     -35.033  20.557   2.536  0.00  0.00    +0.011 C 
ATOM     12  C   UNL     1     -36.508  25.619   1.995  0.00  0.00    +0.031 C 
ATOM     13  C   UNL     1     -33.695  26.443   6.082  0.00  0.00    +0.031 C 
ENDROOT
BRANCH   3  14
ATOM     14  O   UNL     1     -36.032  21.516   5.895  0.00  0.00    -0.380 OA
ATOM     15  H   UNL     1     -36.965  21.509   5.627  0.00  0.00    +0.211 HD
ENDBRANCH   3  14
BRANCH   8  16
ATOM     16  C   UNL     1     -35.109  27.458   3.753  0.00  0.00    +0.060 C 
BRANCH  16  17
ATOM     17  C   UNL     1     -33.820  27.929   3.075  0.00  0.00    +0.182 C 
BRANCH  17  18
ATOM     18  O   UNL     1     -33.474  29.222   3.552  0.00  0.00    -0.200 OA
BRANCH  18  19
ATOM     19  S   UNL     1     -32.067  29.441   4.356  0.00  0.00    +0.239 S 
ATOM     20  O   UNL     1     -31.466  30.813   3.708  0.00  0.00    -0.116 OA
ATOM     21  O   UNL     1     -32.395  29.719   5.742  0.00  0.00    -0.116 OA
ATOM     22  O   UNL     1     -31.162  28.358   4.023  0.00  0.00    -0.022 OA
ENDBRANCH  18  19
ENDBRANCH  17  18
ENDBRANCH  16  17
ENDBRANCH   8  16
TORSDOF 5
ENDMDL
