MODEL 1
REMARK VINA RESULT:      -6.8      0.000      0.000
REMARK  Name = 5382459
REMARK  11 active torsions:
REMARK  status: ('A' for Active; 'I' for Inactive)
REMARK    1  A    between atoms: N_1  and  C_10
REMARK    2  A    between atoms: C_5  and  C_21
REMARK    3  A    between atoms: C_7  and  O_12
REMARK    4  A    between atoms: C_8  and  O_14
REMARK    5  A    between atoms: C_9  and  O_16
REMARK    6  A    between atoms: C_11  and  C_18
REMARK    7  A    between atoms: C_18  and  O_19
REMARK    8  A    between atoms: C_21  and  C_22
REMARK    9  A    between atoms: C_22  and  N_24
REMARK   10  A    between atoms: C_26  and  C_27
REMARK   11  A    between atoms: C_28  and  C_29
REMARK                            x       y       z     vdW  Elec       q    Type
REMARK                         _______ _______ _______ _____ _____    ______ ____
ROOT
ATOM      1  N   UNL     1     -32.824  27.856   4.526  0.00  0.00    -0.222 NA
ATOM      2  N   UNL     1     -34.847  27.392   3.736  0.00  0.00    -0.259 NA
ATOM      3  C   UNL     1     -33.354  26.778   5.190  0.00  0.00    +0.117 C 
ATOM      4  C   UNL     1     -33.747  28.201   3.658  0.00  0.00    +0.202 C 
ATOM      5  C   UNL     1     -34.608  26.471   4.718  0.00  0.00    +0.051 C 
ENDROOT
BRANCH   1  10
ATOM      6  O   UNL     1     -30.525  27.576   4.232  0.00  0.00    -0.336 OA
ATOM      7  C   UNL     1     -29.827  29.251   6.469  0.00  0.00    +0.170 C 
ATOM      8  C   UNL     1     -31.259  28.763   6.242  0.00  0.00    +0.183 C 
ATOM      9  C   UNL     1     -28.813  28.338   5.779  0.00  0.00    +0.169 C 
ATOM     10  C   UNL     1     -31.509  28.469   4.758  0.00  0.00    +0.208 C 
ATOM     11  C   UNL     1     -29.201  28.107   4.315  0.00  0.00    +0.175 C 
BRANCH   7  12
ATOM     12  O   UNL     1     -29.583  29.257   7.877  0.00  0.00    -0.379 OA
ATOM     13  H   UNL     1     -29.935  30.075   8.263  0.00  0.00    +0.211 HD
ENDBRANCH   7  12
BRANCH   8  14
ATOM     14  O   UNL     1     -32.167  29.777   6.673  0.00  0.00    -0.378 OA
ATOM     15  H   UNL     1     -32.711  29.436   7.399  0.00  0.00    +0.211 HD
ENDBRANCH   8  14
BRANCH   9  16
ATOM     16  O   UNL     1     -27.523  28.941   5.825  0.00  0.00    -0.379 OA
ATOM     17  H   UNL     1     -26.850  28.256   5.967  0.00  0.00    +0.211 HD
ENDBRANCH   9  16
BRANCH  11  18
ATOM     18  C   UNL     1     -28.268  27.113   3.633  0.00  0.00    +0.169 C 
BRANCH  18  19
ATOM     19  O   UNL     1     -27.691  26.281   4.623  0.00  0.00    -0.379 OA
ATOM     20  H   UNL     1     -27.076  25.657   4.204  0.00  0.00    +0.211 HD
ENDBRANCH  18  19
ENDBRANCH  11  18
ENDBRANCH   1  10
BRANCH   5  21
ATOM     21  C   UNL     1     -35.562  25.428   5.095  0.00  0.00    +0.064 C 
BRANCH  21  22
ATOM     22  C   UNL     1     -35.408  24.105   4.316  0.00  0.00    +0.100 C 
BRANCH  22  24
ATOM     23  O   UNL     1     -37.719  22.460   1.984  0.00  0.00    -0.270 OA
ATOM     24  N   UNL     1     -36.572  23.800   3.530  0.00  0.00    -0.274 N 
ATOM     25  C   UNL     1     -37.731  24.681   3.713  0.00  0.00    +0.115 C 
ATOM     26  C   UNL     1     -36.702  22.720   2.630  0.00  0.00    +0.249 C 
BRANCH  26  27
ATOM     27  C   UNL     1     -35.501  21.843   2.506  0.00  0.00    +0.058 C 
ATOM     28  C   UNL     1     -35.101  21.438   1.291  0.00  0.00    +0.005 C 
BRANCH  28  29
ATOM     29  C   UNL     1     -33.952  20.549   1.043  0.00  0.00    +0.000 C 
ATOM     30  C   UNL     1     -32.903  20.975   0.229  0.00  0.00    +0.000 C 
ATOM     31  C   UNL     1     -33.914  19.280   1.623  0.00  0.00    +0.000 C 
ATOM     32  C   UNL     1     -31.816  20.134  -0.006  0.00  0.00    +0.000 C 
ATOM     33  C   UNL     1     -32.828  18.439   1.388  0.00  0.00    +0.000 C 
ATOM     34  C   UNL     1     -31.779  18.865   0.573  0.00  0.00    +0.000 C 
ENDBRANCH  28  29
ENDBRANCH  26  27
ENDBRANCH  22  24
ENDBRANCH  21  22
ENDBRANCH   5  21
TORSDOF 11
ENDMDL
MODEL 2
REMARK VINA RESULT:      -6.8      4.811      6.853
REMARK  Name = 5382459
REMARK  11 active torsions:
REMARK  status: ('A' for Active; 'I' for Inactive)
REMARK    1  A    between atoms: N_1  and  C_10
REMARK    2  A    between atoms: C_5  and  C_21
REMARK    3  A    between atoms: C_7  and  O_12
REMARK    4  A    between atoms: C_8  and  O_14
REMARK    5  A    between atoms: C_9  and  O_16
REMARK    6  A    between atoms: C_11  and  C_18
REMARK    7  A    between atoms: C_18  and  O_19
REMARK    8  A    between atoms: C_21  and  C_22
REMARK    9  A    between atoms: C_22  and  N_24
REMARK   10  A    between atoms: C_26  and  C_27
REMARK   11  A    between atoms: C_28  and  C_29
REMARK                            x       y       z     vdW  Elec       q    Type
REMARK                         _______ _______ _______ _____ _____    ______ ____
ROOT
ATOM      1  N   UNL     1     -38.414  23.666   2.053  0.00  0.00    -0.222 NA
ATOM      2  N   UNL     1     -40.462  23.022   1.487  0.00  0.00    -0.259 NA
ATOM      3  C   UNL     1     -38.528  23.604   0.687  0.00  0.00    +0.117 C 
ATOM      4  C   UNL     1     -39.595  23.310   2.505  0.00  0.00    +0.202 C 
ATOM      5  C   UNL     1     -39.789  23.207   0.312  0.00  0.00    +0.051 C 
ENDROOT
BRANCH   1  10
ATOM      6  O   UNL     1     -36.889  22.950   3.671  0.00  0.00    -0.336 OA
ATOM      7  C   UNL     1     -36.236  25.620   4.531  0.00  0.00    +0.170 C 
ATOM      8  C   UNL     1     -37.435  25.335   3.625  0.00  0.00    +0.183 C 
ATOM      9  C   UNL     1     -35.834  24.379   5.328  0.00  0.00    +0.169 C 
ATOM     10  C   UNL     1     -37.219  24.049   2.818  0.00  0.00    +0.208 C 
ATOM     11  C   UNL     1     -35.682  23.167   4.404  0.00  0.00    +0.175 C 
BRANCH   7  12
ATOM     12  O   UNL     1     -36.603  26.668   5.431  0.00  0.00    -0.379 OA
ATOM     13  H   UNL     1     -36.690  26.309   6.327  0.00  0.00    +0.211 HD
ENDBRANCH   7  12
BRANCH   8  14
ATOM     14  O   UNL     1     -37.602  26.427   2.721  0.00  0.00    -0.378 OA
ATOM     15  H   UNL     1     -37.681  26.089   1.816  0.00  0.00    +0.211 HD
ENDBRANCH   8  14
BRANCH   9  16
ATOM     16  O   UNL     1     -34.592  24.617   5.985  0.00  0.00    -0.379 OA
ATOM     17  H   UNL     1     -33.880  24.163   5.506  0.00  0.00    +0.211 HD
ENDBRANCH   9  16
BRANCH  11  18
ATOM     18  C   UNL     1     -35.389  21.892   5.186  0.00  0.00    +0.169 C 
BRANCH  18  19
ATOM     19  O   UNL     1     -36.090  21.945   6.416  0.00  0.00    -0.379 OA
ATOM     20  H   UNL     1     -35.916  21.136   6.923  0.00  0.00    +0.211 HD
ENDBRANCH  18  19
ENDBRANCH  11  18
ENDBRANCH   1  10
BRANCH   5  21
ATOM     21  C   UNL     1     -40.392  22.996  -1.005  0.00  0.00    +0.064 C 
BRANCH  21  22
ATOM     22  C   UNL     1     -39.632  22.002  -1.907  0.00  0.00    +0.100 C 
BRANCH  22  24
ATOM     23  O   UNL     1     -40.307  18.468  -1.173  0.00  0.00    -0.270 OA
ATOM     24  N   UNL     1     -40.233  20.695  -1.901  0.00  0.00    -0.274 N 
ATOM     25  C   UNL     1     -41.461  20.540  -2.688  0.00  0.00    +0.115 C 
ATOM     26  C   UNL     1     -39.763  19.573  -1.187  0.00  0.00    +0.249 C 
BRANCH  26  27
ATOM     27  C   UNL     1     -38.525  19.799  -0.383  0.00  0.00    +0.058 C 
ATOM     28  C   UNL     1     -37.453  19.019  -0.587  0.00  0.00    +0.005 C 
BRANCH  28  29
ATOM     29  C   UNL     1     -36.188  19.124   0.162  0.00  0.00    +0.000 C 
ATOM     30  C   UNL     1     -36.071  20.038   1.208  0.00  0.00    +0.000 C 
ATOM     31  C   UNL     1     -35.108  18.307  -0.175  0.00  0.00    +0.000 C 
ATOM     32  C   UNL     1     -34.874  20.137   1.918  0.00  0.00    +0.000 C 
ATOM     33  C   UNL     1     -33.912  18.406   0.534  0.00  0.00    +0.000 C 
ATOM     34  C   UNL     1     -33.794  19.321   1.580  0.00  0.00    +0.000 C 
ENDBRANCH  28  29
ENDBRANCH  26  27
ENDBRANCH  22  24
ENDBRANCH  21  22
ENDBRANCH   5  21
TORSDOF 11
ENDMDL
MODEL 3
REMARK VINA RESULT:      -6.7      5.525      9.772
REMARK  Name = 5382459
REMARK  11 active torsions:
REMARK  status: ('A' for Active; 'I' for Inactive)
REMARK    1  A    between atoms: N_1  and  C_10
REMARK    2  A    between atoms: C_5  and  C_21
REMARK    3  A    between atoms: C_7  and  O_12
REMARK    4  A    between atoms: C_8  and  O_14
REMARK    5  A    between atoms: C_9  and  O_16
REMARK    6  A    between atoms: C_11  and  C_18
REMARK    7  A    between atoms: C_18  and  O_19
REMARK    8  A    between atoms: C_21  and  C_22
REMARK    9  A    between atoms: C_22  and  N_24
REMARK   10  A    between atoms: C_26  and  C_27
REMARK   11  A    between atoms: C_28  and  C_29
REMARK                            x       y       z     vdW  Elec       q    Type
REMARK                         _______ _______ _______ _____ _____    ______ ____
ROOT
ATOM      1  N   UNL     1     -38.664  23.962   2.047  0.00  0.00    -0.222 NA
ATOM      2  N   UNL     1     -40.660  23.184   1.464  0.00  0.00    -0.259 NA
ATOM      3  C   UNL     1     -38.992  24.401   0.789  0.00  0.00    +0.117 C 
ATOM      4  C   UNL     1     -39.689  23.233   2.426  0.00  0.00    +0.202 C 
ATOM      5  C   UNL     1     -40.225  23.931   0.405  0.00  0.00    +0.051 C 
ENDROOT
BRANCH   1  10
ATOM      6  O   UNL     1     -37.105  23.099   3.557  0.00  0.00    -0.336 OA
ATOM      7  C   UNL     1     -36.328  25.688   4.551  0.00  0.00    +0.170 C 
ATOM      8  C   UNL     1     -37.569  25.498   3.678  0.00  0.00    +0.183 C 
ATOM      9  C   UNL     1     -35.940  24.387   5.255  0.00  0.00    +0.169 C 
ATOM     10  C   UNL     1     -37.428  24.259   2.786  0.00  0.00    +0.208 C 
ATOM     11  C   UNL     1     -35.865  23.230   4.253  0.00  0.00    +0.175 C 
BRANCH   7  12
ATOM     12  O   UNL     1     -36.625  26.689   5.527  0.00  0.00    -0.379 OA
ATOM     13  H   UNL     1     -36.056  26.564   6.302  0.00  0.00    +0.211 HD
ENDBRANCH   7  12
BRANCH   8  14
ATOM     14  O   UNL     1     -37.732  26.649   2.849  0.00  0.00    -0.378 OA
ATOM     15  H   UNL     1     -38.187  27.345   3.347  0.00  0.00    +0.211 HD
ENDBRANCH   8  14
BRANCH   9  16
ATOM     16  O   UNL     1     -34.666  24.544   5.875  0.00  0.00    -0.379 OA
ATOM     17  H   UNL     1     -34.499  23.794   6.467  0.00  0.00    +0.211 HD
ENDBRANCH   9  16
BRANCH  11  18
ATOM     18  C   UNL     1     -35.587  21.900   4.945  0.00  0.00    +0.169 C 
BRANCH  18  19
ATOM     19  O   UNL     1     -36.000  21.998   6.296  0.00  0.00    -0.379 OA
ATOM     20  H   UNL     1     -35.715  22.852   6.660  0.00  0.00    +0.211 HD
ENDBRANCH  18  19
ENDBRANCH  11  18
ENDBRANCH   1  10
BRANCH   5  21
ATOM     21  C   UNL     1     -40.999  24.118  -0.822  0.00  0.00    +0.064 C 
BRANCH  21  22
ATOM     22  C   UNL     1     -42.137  25.155  -0.713  0.00  0.00    +0.100 C 
BRANCH  22  24
ATOM     23  O   UNL     1     -41.655  28.086   1.445  0.00  0.00    -0.270 OA
ATOM     24  N   UNL     1     -41.672  26.415  -0.200  0.00  0.00    -0.274 N 
ATOM     25  C   UNL     1     -40.657  27.110  -0.999  0.00  0.00    +0.115 C 
ATOM     26  C   UNL     1     -42.084  27.017   1.008  0.00  0.00    +0.249 C 
BRANCH  26  27
ATOM     27  C   UNL     1     -43.098  26.251   1.791  0.00  0.00    +0.058 C 
ATOM     28  C   UNL     1     -43.971  26.911   2.567  0.00  0.00    +0.005 C 
BRANCH  28  29
ATOM     29  C   UNL     1     -44.995  26.266   3.409  0.00  0.00    +0.000 C 
ATOM     30  C   UNL     1     -45.743  25.203   2.906  0.00  0.00    +0.000 C 
ATOM     31  C   UNL     1     -45.215  26.720   4.710  0.00  0.00    +0.000 C 
ATOM     32  C   UNL     1     -46.713  24.593   3.701  0.00  0.00    +0.000 C 
ATOM     33  C   UNL     1     -46.184  26.110   5.506  0.00  0.00    +0.000 C 
ATOM     34  C   UNL     1     -46.933  25.047   5.002  0.00  0.00    +0.000 C 
ENDBRANCH  28  29
ENDBRANCH  26  27
ENDBRANCH  22  24
ENDBRANCH  21  22
ENDBRANCH   5  21
TORSDOF 11
ENDMDL
MODEL 4
REMARK VINA RESULT:      -6.7      6.028     10.536
REMARK  Name = 5382459
REMARK  11 active torsions:
REMARK  status: ('A' for Active; 'I' for Inactive)
REMARK    1  A    between atoms: N_1  and  C_10
REMARK    2  A    between atoms: C_5  and  C_21
REMARK    3  A    between atoms: C_7  and  O_12
REMARK    4  A    between atoms: C_8  and  O_14
REMARK    5  A    between atoms: C_9  and  O_16
REMARK    6  A    between atoms: C_11  and  C_18
REMARK    7  A    between atoms: C_18  and  O_19
REMARK    8  A    between atoms: C_21  and  C_22
REMARK    9  A    between atoms: C_22  and  N_24
REMARK   10  A    between atoms: C_26  and  C_27
REMARK   11  A    between atoms: C_28  and  C_29
REMARK                            x       y       z     vdW  Elec       q    Type
REMARK                         _______ _______ _______ _____ _____    ______ ____
ROOT
ATOM      1  N   UNL     1     -38.889  23.957   2.294  0.00  0.00    -0.222 NA
ATOM      2  N   UNL     1     -40.672  22.935   1.454  0.00  0.00    -0.259 NA
ATOM      3  C   UNL     1     -39.822  24.884   1.901  0.00  0.00    +0.117 C 
ATOM      4  C   UNL     1     -39.431  22.794   2.012  0.00  0.00    +0.202 C 
ATOM      5  C   UNL     1     -40.936  24.274   1.376  0.00  0.00    +0.051 C 
ENDROOT
BRANCH   1  10
ATOM      6  O   UNL     1     -37.215  23.088   3.672  0.00  0.00    -0.336 OA
ATOM      7  C   UNL     1     -36.262  25.678   4.494  0.00  0.00    +0.170 C 
ATOM      8  C   UNL     1     -37.590  25.505   3.755  0.00  0.00    +0.183 C 
ATOM      9  C   UNL     1     -35.846  24.388   5.201  0.00  0.00    +0.169 C 
ATOM     10  C   UNL     1     -37.577  24.234   2.897  0.00  0.00    +0.208 C 
ATOM     11  C   UNL     1     -35.908  23.199   4.237  0.00  0.00    +0.175 C 
BRANCH   7  12
ATOM     12  O   UNL     1     -36.429  26.719   5.459  0.00  0.00    -0.379 OA
ATOM     13  H   UNL     1     -35.804  26.587   6.189  0.00  0.00    +0.211 HD
ENDBRANCH   7  12
BRANCH   8  14
ATOM     14  O   UNL     1     -37.799  26.634   2.907  0.00  0.00    -0.378 OA
ATOM     15  H   UNL     1     -38.101  26.334   2.037  0.00  0.00    +0.211 HD
ENDBRANCH   8  14
BRANCH   9  16
ATOM     16  O   UNL     1     -34.513  24.520   5.686  0.00  0.00    -0.379 OA
ATOM     17  H   UNL     1     -34.490  24.307   6.633  0.00  0.00    +0.211 HD
ENDBRANCH   9  16
BRANCH  11  18
ATOM     18  C   UNL     1     -35.604  21.882   4.943  0.00  0.00    +0.169 C 
BRANCH  18  19
ATOM     19  O   UNL     1     -36.089  21.959   6.272  0.00  0.00    -0.379 OA
ATOM     20  H   UNL     1     -36.349  21.074   6.573  0.00  0.00    +0.211 HD
ENDBRANCH  18  19
ENDBRANCH  11  18
ENDBRANCH   1  10
BRANCH   5  21
ATOM     21  C   UNL     1     -42.179  24.820   0.830  0.00  0.00    +0.064 C 
BRANCH  21  22
ATOM     22  C   UNL     1     -42.924  25.788   1.773  0.00  0.00    +0.100 C 
BRANCH  22  24
ATOM     23  O   UNL     1     -46.397  25.696   2.962  0.00  0.00    -0.270 OA
ATOM     24  N   UNL     1     -44.310  25.437   1.924  0.00  0.00    -0.274 N 
ATOM     25  C   UNL     1     -44.835  24.437   0.988  0.00  0.00    +0.115 C 
ATOM     26  C   UNL     1     -45.204  25.990   2.866  0.00  0.00    +0.249 C 
BRANCH  26  27
ATOM     27  C   UNL     1     -44.620  27.022   3.773  0.00  0.00    +0.058 C 
ATOM     28  C   UNL     1     -45.333  27.461   4.820  0.00  0.00    +0.005 C 
BRANCH  28  29
ATOM     29  C   UNL     1     -44.879  28.496   5.766  0.00  0.00    +0.000 C 
ATOM     30  C   UNL     1     -45.404  28.541   7.057  0.00  0.00    +0.000 C 
ATOM     31  C   UNL     1     -43.922  29.432   5.370  0.00  0.00    +0.000 C 
ATOM     32  C   UNL     1     -44.974  29.520   7.952  0.00  0.00    +0.000 C 
ATOM     33  C   UNL     1     -43.492  30.411   6.264  0.00  0.00    +0.000 C 
ATOM     34  C   UNL     1     -44.019  30.456   7.555  0.00  0.00    +0.000 C 
ENDBRANCH  28  29
ENDBRANCH  26  27
ENDBRANCH  22  24
ENDBRANCH  21  22
ENDBRANCH   5  21
TORSDOF 11
ENDMDL
MODEL 5
REMARK VINA RESULT:      -6.7      3.274      9.997
REMARK  Name = 5382459
REMARK  11 active torsions:
REMARK  status: ('A' for Active; 'I' for Inactive)
REMARK    1  A    between atoms: N_1  and  C_10
REMARK    2  A    between atoms: C_5  and  C_21
REMARK    3  A    between atoms: C_7  and  O_12
REMARK    4  A    between atoms: C_8  and  O_14
REMARK    5  A    between atoms: C_9  and  O_16
REMARK    6  A    between atoms: C_11  and  C_18
REMARK    7  A    between atoms: C_18  and  O_19
REMARK    8  A    between atoms: C_21  and  C_22
REMARK    9  A    between atoms: C_22  and  N_24
REMARK   10  A    between atoms: C_26  and  C_27
REMARK   11  A    between atoms: C_28  and  C_29
REMARK                            x       y       z     vdW  Elec       q    Type
REMARK                         _______ _______ _______ _____ _____    ______ ____
ROOT
ATOM      1  N   UNL     1     -34.560  25.504   4.619  0.00  0.00    -0.222 NA
ATOM      2  N   UNL     1     -32.824  26.853   4.307  0.00  0.00    -0.259 NA
ATOM      3  C   UNL     1     -34.158  26.040   5.817  0.00  0.00    +0.117 C 
ATOM      4  C   UNL     1     -33.737  26.014   3.731  0.00  0.00    +0.202 C 
ATOM      5  C   UNL     1     -33.083  26.880   5.649  0.00  0.00    +0.051 C 
ENDROOT
BRANCH   1  10
ATOM      6  O   UNL     1     -35.141  23.427   3.725  0.00  0.00    -0.336 OA
ATOM      7  C   UNL     1     -37.889  24.161   3.274  0.00  0.00    +0.170 C 
ATOM      8  C   UNL     1     -36.822  25.201   3.617  0.00  0.00    +0.183 C 
ATOM      9  C   UNL     1     -37.265  22.903   2.668  0.00  0.00    +0.169 C 
ATOM     10  C   UNL     1     -35.671  24.566   4.406  0.00  0.00    +0.208 C 
ATOM     11  C   UNL     1     -36.113  22.396   3.541  0.00  0.00    +0.175 C 
BRANCH   7  12
ATOM     12  O   UNL     1     -38.790  24.748   2.332  0.00  0.00    -0.379 OA
ATOM     13  H   UNL     1     -39.107  24.067   1.719  0.00  0.00    +0.211 HD
ENDBRANCH   7  12
BRANCH   8  14
ATOM     14  O   UNL     1     -37.416  26.229   4.410  0.00  0.00    -0.378 OA
ATOM     15  H   UNL     1     -36.885  27.037   4.343  0.00  0.00    +0.211 HD
ENDBRANCH   8  14
BRANCH   9  16
ATOM     16  O   UNL     1     -38.254  21.882   2.568  0.00  0.00    -0.379 OA
ATOM     17  H   UNL     1     -39.133  22.269   2.706  0.00  0.00    +0.211 HD
ENDBRANCH   9  16
BRANCH  11  18
ATOM     18  C   UNL     1     -35.402  21.207   2.904  0.00  0.00    +0.169 C 
BRANCH  18  19
ATOM     19  O   UNL     1     -36.256  20.080   2.974  0.00  0.00    -0.379 OA
ATOM     20  H   UNL     1     -36.830  20.156   3.753  0.00  0.00    +0.211 HD
ENDBRANCH  18  19
ENDBRANCH  11  18
ENDBRANCH   1  10
BRANCH   5  21
ATOM     21  C   UNL     1     -32.309  27.674   6.604  0.00  0.00    +0.064 C 
BRANCH  21  22
ATOM     22  C   UNL     1     -31.992  29.110   6.137  0.00  0.00    +0.100 C 
BRANCH  22  24
ATOM     23  O   UNL     1     -28.820  30.552   4.977  0.00  0.00    -0.270 OA
ATOM     24  N   UNL     1     -30.596  29.287   5.839  0.00  0.00    -0.274 N 
ATOM     25  C   UNL     1     -29.696  28.213   6.274  0.00  0.00    +0.115 C 
ATOM     26  C   UNL     1     -30.023  30.407   5.199  0.00  0.00    +0.249 C 
BRANCH  26  27
ATOM     27  C   UNL     1     -30.985  31.479   4.804  0.00  0.00    +0.058 C 
ATOM     28  C   UNL     1     -30.985  31.934   3.543  0.00  0.00    +0.005 C 
BRANCH  28  29
ATOM     29  C   UNL     1     -31.862  33.008   3.042  0.00  0.00    +0.000 C 
ATOM     30  C   UNL     1     -31.520  34.343   3.252  0.00  0.00    +0.000 C 
ATOM     31  C   UNL     1     -33.034  32.687   2.356  0.00  0.00    +0.000 C 
ATOM     32  C   UNL     1     -32.350  35.359   2.778  0.00  0.00    +0.000 C 
ATOM     33  C   UNL     1     -33.864  33.703   1.882  0.00  0.00    +0.000 C 
ATOM     34  C   UNL     1     -33.522  35.039   2.093  0.00  0.00    +0.000 C 
ENDBRANCH  28  29
ENDBRANCH  26  27
ENDBRANCH  22  24
ENDBRANCH  21  22
ENDBRANCH   5  21
TORSDOF 11
ENDMDL
MODEL 6
REMARK VINA RESULT:      -6.6      4.003      9.368
REMARK  Name = 5382459
REMARK  11 active torsions:
REMARK  status: ('A' for Active; 'I' for Inactive)
REMARK    1  A    between atoms: N_1  and  C_10
REMARK    2  A    between atoms: C_5  and  C_21
REMARK    3  A    between atoms: C_7  and  O_12
REMARK    4  A    between atoms: C_8  and  O_14
REMARK    5  A    between atoms: C_9  and  O_16
REMARK    6  A    between atoms: C_11  and  C_18
REMARK    7  A    between atoms: C_18  and  O_19
REMARK    8  A    between atoms: C_21  and  C_22
REMARK    9  A    between atoms: C_22  and  N_24
REMARK   10  A    between atoms: C_26  and  C_27
REMARK   11  A    between atoms: C_28  and  C_29
REMARK                            x       y       z     vdW  Elec       q    Type
REMARK                         _______ _______ _______ _____ _____    ______ ____
ROOT
ATOM      1  N   UNL     1     -33.434  26.854   5.589  0.00  0.00    -0.222 NA
ATOM      2  N   UNL     1     -31.691  27.823   6.565  0.00  0.00    -0.259 NA
ATOM      3  C   UNL     1     -32.721  27.579   4.668  0.00  0.00    +0.117 C 
ATOM      4  C   UNL     1     -32.788  27.021   6.720  0.00  0.00    +0.202 C 
ATOM      5  C   UNL     1     -31.635  28.189   5.249  0.00  0.00    +0.051 C 
ENDROOT
BRANCH   1  10
ATOM      6  O   UNL     1     -34.336  24.700   5.588  0.00  0.00    -0.336 OA
ATOM      7  C   UNL     1     -36.353  25.323   3.629  0.00  0.00    +0.170 C 
ATOM      8  C   UNL     1     -35.184  26.267   3.912  0.00  0.00    +0.183 C 
ATOM      9  C   UNL     1     -36.019  23.887   4.036  0.00  0.00    +0.169 C 
ATOM     10  C   UNL     1     -34.652  26.071   5.337  0.00  0.00    +0.208 C 
ATOM     11  C   UNL     1     -35.472  23.843   5.466  0.00  0.00    +0.175 C 
BRANCH   7  12
ATOM     12  O   UNL     1     -36.628  25.371   2.228  0.00  0.00    -0.379 OA
ATOM     13  H   UNL     1     -36.403  24.518   1.824  0.00  0.00    +0.211 HD
ENDBRANCH   7  12
BRANCH   8  14
ATOM     14  O   UNL     1     -35.631  27.615   3.766  0.00  0.00    -0.378 OA
ATOM     15  H   UNL     1     -36.210  27.846   4.509  0.00  0.00    +0.211 HD
ENDBRANCH   8  14
BRANCH   9  16
ATOM     16  O   UNL     1     -37.196  23.087   3.966  0.00  0.00    -0.379 OA
ATOM     17  H   UNL     1     -37.068  22.277   4.483  0.00  0.00    +0.211 HD
ENDBRANCH   9  16
BRANCH  11  18
ATOM     18  C   UNL     1     -35.029  22.438   5.859  0.00  0.00    +0.169 C 
BRANCH  18  19
ATOM     19  O   UNL     1     -36.134  21.756   6.424  0.00  0.00    -0.379 OA
ATOM     20  H   UNL     1     -35.814  21.060   7.020  0.00  0.00    +0.211 HD
ENDBRANCH  18  19
ENDBRANCH  11  18
ENDBRANCH   1  10
BRANCH   5  21
ATOM     21  C   UNL     1     -30.591  29.052   4.696  0.00  0.00    +0.064 C 
BRANCH  21  22
ATOM     22  C   UNL     1     -30.387  30.381   5.454  0.00  0.00    +0.100 C 
BRANCH  22  24
ATOM     23  O   UNL     1     -29.431  33.123   3.206  0.00  0.00    -0.270 OA
ATOM     24  N   UNL     1     -29.606  31.322   4.698  0.00  0.00    -0.274 N 
ATOM     25  C   UNL     1     -28.152  31.259   4.883  0.00  0.00    +0.115 C 
ATOM     26  C   UNL     1     -30.116  32.307   3.826  0.00  0.00    +0.249 C 
BRANCH  26  27
ATOM     27  C   UNL     1     -31.603  32.340   3.698  0.00  0.00    +0.058 C 
ATOM     28  C   UNL     1     -32.177  31.951   2.550  0.00  0.00    +0.005 C 
BRANCH  28  29
ATOM     29  C   UNL     1     -33.628  31.968   2.293  0.00  0.00    +0.000 C 
ATOM     30  C   UNL     1     -34.450  31.000   2.868  0.00  0.00    +0.000 C 
ATOM     31  C   UNL     1     -34.179  32.954   1.473  0.00  0.00    +0.000 C 
ATOM     32  C   UNL     1     -35.823  31.015   2.625  0.00  0.00    +0.000 C 
ATOM     33  C   UNL     1     -35.552  32.970   1.230  0.00  0.00    +0.000 C 
ATOM     34  C   UNL     1     -36.374  32.000   1.805  0.00  0.00    +0.000 C 
ENDBRANCH  28  29
ENDBRANCH  26  27
ENDBRANCH  22  24
ENDBRANCH  21  22
ENDBRANCH   5  21
TORSDOF 11
ENDMDL
MODEL 7
REMARK VINA RESULT:      -6.6      1.385      2.002
REMARK  Name = 5382459
REMARK  11 active torsions:
REMARK  status: ('A' for Active; 'I' for Inactive)
REMARK    1  A    between atoms: N_1  and  C_10
REMARK    2  A    between atoms: C_5  and  C_21
REMARK    3  A    between atoms: C_7  and  O_12
REMARK    4  A    between atoms: C_8  and  O_14
REMARK    5  A    between atoms: C_9  and  O_16
REMARK    6  A    between atoms: C_11  and  C_18
REMARK    7  A    between atoms: C_18  and  O_19
REMARK    8  A    between atoms: C_21  and  C_22
REMARK    9  A    between atoms: C_22  and  N_24
REMARK   10  A    between atoms: C_26  and  C_27
REMARK   11  A    between atoms: C_28  and  C_29
REMARK                            x       y       z     vdW  Elec       q    Type
REMARK                         _______ _______ _______ _____ _____    ______ ____
ROOT
ATOM      1  N   UNL     1     -32.975  27.208   5.128  0.00  0.00    -0.222 NA
ATOM      2  N   UNL     1     -34.510  25.903   6.060  0.00  0.00    -0.259 NA
ATOM      3  C   UNL     1     -33.887  26.806   4.185  0.00  0.00    +0.117 C 
ATOM      4  C   UNL     1     -33.378  26.648   6.245  0.00  0.00    +0.202 C 
ATOM      5  C   UNL     1     -34.849  25.996   4.739  0.00  0.00    +0.051 C 
ENDROOT
BRANCH   1  10
ATOM      6  O   UNL     1     -30.818  27.709   5.869  0.00  0.00    -0.336 OA
ATOM      7  C   UNL     1     -30.909  30.433   4.940  0.00  0.00    +0.170 C 
ATOM      8  C   UNL     1     -32.165  29.564   5.014  0.00  0.00    +0.183 C 
ATOM      9  C   UNL     1     -29.824  29.926   5.891  0.00  0.00    +0.169 C 
ATOM     10  C   UNL     1     -31.809  28.076   4.907  0.00  0.00    +0.208 C 
ATOM     11  C   UNL     1     -29.593  28.424   5.696  0.00  0.00    +0.175 C 
BRANCH   7  12
ATOM     12  O   UNL     1     -31.276  31.767   5.301  0.00  0.00    -0.379 OA
ATOM     13  H   UNL     1     -32.192  31.776   5.620  0.00  0.00    +0.211 HD
ENDBRANCH   7  12
BRANCH   8  14
ATOM     14  O   UNL     1     -33.033  29.911   3.936  0.00  0.00    -0.378 OA
ATOM     15  H   UNL     1     -33.136  29.150   3.345  0.00  0.00    +0.211 HD
ENDBRANCH   8  14
BRANCH   9  16
ATOM     16  O   UNL     1     -28.606  30.618   5.634  0.00  0.00    -0.379 OA
ATOM     17  H   UNL     1     -28.803  31.509   5.304  0.00  0.00    +0.211 HD
ENDBRANCH   9  16
BRANCH  11  18
ATOM     18  C   UNL     1     -28.595  27.870   6.707  0.00  0.00    +0.169 C 
BRANCH  18  19
ATOM     19  O   UNL     1     -28.625  28.685   7.865  0.00  0.00    -0.379 OA
ATOM     20  H   UNL     1     -29.187  29.459   7.702  0.00  0.00    +0.211 HD
ENDBRANCH  18  19
ENDBRANCH  11  18
ENDBRANCH   1  10
BRANCH   5  21
ATOM     21  C   UNL     1     -36.014  25.329   4.156  0.00  0.00    +0.064 C 
BRANCH  21  22
ATOM     22  C   UNL     1     -35.738  23.910   3.617  0.00  0.00    +0.100 C 
BRANCH  22  24
ATOM     23  O   UNL     1     -37.990  21.550   1.931  0.00  0.00    -0.270 OA
ATOM     24  N   UNL     1     -36.911  23.314   3.037  0.00  0.00    -0.274 N 
ATOM     25  C   UNL     1     -38.157  24.079   3.154  0.00  0.00    +0.115 C 
ATOM     26  C   UNL     1     -36.969  22.056   2.399  0.00  0.00    +0.249 C 
BRANCH  26  27
ATOM     27  C   UNL     1     -35.676  21.312   2.333  0.00  0.00    +0.058 C 
ATOM     28  C   UNL     1     -35.113  21.069   1.141  0.00  0.00    +0.005 C 
BRANCH  28  29
ATOM     29  C   UNL     1     -33.859  20.320   0.945  0.00  0.00    +0.000 C 
ATOM     30  C   UNL     1     -33.700  19.063   1.526  0.00  0.00    +0.000 C 
ATOM     31  C   UNL     1     -32.830  20.870   0.179  0.00  0.00    +0.000 C 
ATOM     32  C   UNL     1     -32.513  18.354   1.341  0.00  0.00    +0.000 C 
ATOM     33  C   UNL     1     -31.644  20.162  -0.006  0.00  0.00    +0.000 C 
ATOM     34  C   UNL     1     -31.484  18.904   0.575  0.00  0.00    +0.000 C 
ENDBRANCH  28  29
ENDBRANCH  26  27
ENDBRANCH  22  24
ENDBRANCH  21  22
ENDBRANCH   5  21
TORSDOF 11
ENDMDL
MODEL 8
REMARK VINA RESULT:      -6.6      2.621      9.356
REMARK  Name = 5382459
REMARK  11 active torsions:
REMARK  status: ('A' for Active; 'I' for Inactive)
REMARK    1  A    between atoms: N_1  and  C_10
REMARK    2  A    between atoms: C_5  and  C_21
REMARK    3  A    between atoms: C_7  and  O_12
REMARK    4  A    between atoms: C_8  and  O_14
REMARK    5  A    between atoms: C_9  and  O_16
REMARK    6  A    between atoms: C_11  and  C_18
REMARK    7  A    between atoms: C_18  and  O_19
REMARK    8  A    between atoms: C_21  and  C_22
REMARK    9  A    between atoms: C_22  and  N_24
REMARK   10  A    between atoms: C_26  and  C_27
REMARK   11  A    between atoms: C_28  and  C_29
REMARK                            x       y       z     vdW  Elec       q    Type
REMARK                         _______ _______ _______ _____ _____    ______ ____
ROOT
ATOM      1  N   UNL     1     -34.725  25.261   4.574  0.00  0.00    -0.222 NA
ATOM      2  N   UNL     1     -32.930  26.542   4.318  0.00  0.00    -0.259 NA
ATOM      3  C   UNL     1     -34.351  25.795   5.782  0.00  0.00    +0.117 C 
ATOM      4  C   UNL     1     -33.850  25.730   3.714  0.00  0.00    +0.202 C 
ATOM      5  C   UNL     1     -33.239  26.593   5.649  0.00  0.00    +0.051 C 
ENDROOT
BRANCH   1  10
ATOM      6  O   UNL     1     -35.353  23.208   3.655  0.00  0.00    -0.336 OA
ATOM      7  C   UNL     1     -38.060  24.037   3.132  0.00  0.00    +0.170 C 
ATOM      8  C   UNL     1     -36.969  25.039   3.509  0.00  0.00    +0.183 C 
ATOM      9  C   UNL     1     -37.463  22.761   2.537  0.00  0.00    +0.169 C 
ATOM     10  C   UNL     1     -35.862  24.362   4.326  0.00  0.00    +0.208 C 
ATOM     11  C   UNL     1     -36.353  22.212   3.439  0.00  0.00    +0.175 C 
BRANCH   7  12
ATOM     12  O   UNL     1     -38.914  24.659   2.169  0.00  0.00    -0.379 OA
ATOM     13  H   UNL     1     -39.621  24.043   1.918  0.00  0.00    +0.211 HD
ENDBRANCH   7  12
BRANCH   8  14
ATOM     14  O   UNL     1     -37.549  26.084   4.290  0.00  0.00    -0.378 OA
ATOM     15  H   UNL     1     -37.233  26.017   5.204  0.00  0.00    +0.211 HD
ENDBRANCH   8  14
BRANCH   9  16
ATOM     16  O   UNL     1     -38.483  21.775   2.406  0.00  0.00    -0.379 OA
ATOM     17  H   UNL     1     -38.732  21.448   3.285  0.00  0.00    +0.211 HD
ENDBRANCH   9  16
BRANCH  11  18
ATOM     18  C   UNL     1     -35.666  21.002   2.817  0.00  0.00    +0.169 C 
BRANCH  18  19
ATOM     19  O   UNL     1     -36.567  19.910   2.837  0.00  0.00    -0.379 OA
ATOM     20  H   UNL     1     -36.587  19.523   3.727  0.00  0.00    +0.211 HD
ENDBRANCH  18  19
ENDBRANCH  11  18
ENDBRANCH   1  10
BRANCH   5  21
ATOM     21  C   UNL     1     -32.475  27.368   6.625  0.00  0.00    +0.064 C 
BRANCH  21  22
ATOM     22  C   UNL     1     -32.207  28.832   6.215  0.00  0.00    +0.100 C 
BRANCH  22  24
ATOM     23  O   UNL     1     -29.617  29.618   3.733  0.00  0.00    -0.270 OA
ATOM     24  N   UNL     1     -30.931  28.989   5.571  0.00  0.00    -0.274 N 
ATOM     25  C   UNL     1     -29.750  28.649   6.372  0.00  0.00    +0.115 C 
ATOM     26  C   UNL     1     -30.721  29.465   4.259  0.00  0.00    +0.249 C 
BRANCH  26  27
ATOM     27  C   UNL     1     -31.958  29.820   3.502  0.00  0.00    +0.058 C 
ATOM     28  C   UNL     1     -32.410  31.083   3.530  0.00  0.00    +0.005 C 
BRANCH  28  29
ATOM     29  C   UNL     1     -33.633  31.548   2.851  0.00  0.00    +0.000 C 
ATOM     30  C   UNL     1     -34.832  30.858   3.023  0.00  0.00    +0.000 C 
ATOM     31  C   UNL     1     -33.591  32.680   2.036  0.00  0.00    +0.000 C 
ATOM     32  C   UNL     1     -35.989  31.297   2.382  0.00  0.00    +0.000 C 
ATOM     33  C   UNL     1     -34.747  33.120   1.394  0.00  0.00    +0.000 C 
ATOM     34  C   UNL     1     -35.947  32.428   1.566  0.00  0.00    +0.000 C 
ENDBRANCH  28  29
ENDBRANCH  26  27
ENDBRANCH  22  24
ENDBRANCH  21  22
ENDBRANCH   5  21
TORSDOF 11
ENDMDL
MODEL 9
REMARK VINA RESULT:      -6.6      4.372      7.138
REMARK  Name = 5382459
REMARK  11 active torsions:
REMARK  status: ('A' for Active; 'I' for Inactive)
REMARK    1  A    between atoms: N_1  and  C_10
REMARK    2  A    between atoms: C_5  and  C_21
REMARK    3  A    between atoms: C_7  and  O_12
REMARK    4  A    between atoms: C_8  and  O_14
REMARK    5  A    between atoms: C_9  and  O_16
REMARK    6  A    between atoms: C_11  and  C_18
REMARK    7  A    between atoms: C_18  and  O_19
REMARK    8  A    between atoms: C_21  and  C_22
REMARK    9  A    between atoms: C_22  and  N_24
REMARK   10  A    between atoms: C_26  and  C_27
REMARK   11  A    between atoms: C_28  and  C_29
REMARK                            x       y       z     vdW  Elec       q    Type
REMARK                         _______ _______ _______ _____ _____    ______ ____
ROOT
ATOM      1  N   UNL     1     -35.284  24.725   3.560  0.00  0.00    -0.222 NA
ATOM      2  N   UNL     1     -33.322  25.541   4.206  0.00  0.00    -0.259 NA
ATOM      3  C   UNL     1     -34.679  25.382   2.517  0.00  0.00    +0.117 C 
ATOM      4  C   UNL     1     -34.441  24.839   4.561  0.00  0.00    +0.202 C 
ATOM      5  C   UNL     1     -33.462  25.897   2.893  0.00  0.00    +0.051 C 
ENDROOT
BRANCH   1  10
ATOM      6  O   UNL     1     -36.470  22.925   2.661  0.00  0.00    -0.336 OA
ATOM      7  C   UNL     1     -39.029  24.221   2.914  0.00  0.00    +0.170 C 
ATOM      8  C   UNL     1     -37.717  24.988   3.084  0.00  0.00    +0.183 C 
ATOM      9  C   UNL     1     -38.829  22.953   2.083  0.00  0.00    +0.169 C 
ATOM     10  C   UNL     1     -36.590  24.051   3.534  0.00  0.00    +0.208 C 
ATOM     11  C   UNL     1     -37.656  22.131   2.624  0.00  0.00    +0.175 C 
BRANCH   7  12
ATOM     12  O   UNL     1     -39.960  25.083   2.254  0.00  0.00    -0.379 OA
ATOM     13  H   UNL     1     -40.310  24.639   1.466  0.00  0.00    +0.211 HD
ENDBRANCH   7  12
BRANCH   8  14
ATOM     14  O   UNL     1     -37.898  26.002   4.071  0.00  0.00    -0.378 OA
ATOM     15  H   UNL     1     -38.413  26.732   3.695  0.00  0.00    +0.211 HD
ENDBRANCH   8  14
BRANCH   9  16
ATOM     16  O   UNL     1     -40.012  22.160   2.133  0.00  0.00    -0.379 OA
ATOM     17  H   UNL     1     -40.290  22.051   3.056  0.00  0.00    +0.211 HD
ENDBRANCH   9  16
BRANCH  11  18
ATOM     18  C   UNL     1     -37.365  20.917   1.749  0.00  0.00    +0.169 C 
BRANCH  18  19
ATOM     19  O   UNL     1     -36.882  19.871   2.572  0.00  0.00    -0.379 OA
ATOM     20  H   UNL     1     -36.357  20.246   3.298  0.00  0.00    +0.211 HD
ENDBRANCH  18  19
ENDBRANCH  11  18
ENDBRANCH   1  10
BRANCH   5  21
ATOM     21  C   UNL     1     -32.458  26.662   2.154  0.00  0.00    +0.064 C 
BRANCH  21  22
ATOM     22  C   UNL     1     -31.711  25.861   1.067  0.00  0.00    +0.100 C 
BRANCH  22  24
ATOM     23  O   UNL     1     -33.664  24.658  -1.800  0.00  0.00    -0.270 OA
ATOM     24  N   UNL     1     -32.439  25.819  -0.172  0.00  0.00    -0.274 N 
ATOM     25  C   UNL     1     -32.612  27.097  -0.870  0.00  0.00    +0.115 C 
ATOM     26  C   UNL     1     -33.020  24.670  -0.750  0.00  0.00    +0.249 C 
BRANCH  26  27
ATOM     27  C   UNL     1     -32.834  23.404   0.019  0.00  0.00    +0.058 C 
ATOM     28  C   UNL     1     -32.840  22.230  -0.629  0.00  0.00    +0.005 C 
BRANCH  28  29
ATOM     29  C   UNL     1     -32.698  20.915   0.022  0.00  0.00    +0.000 C 
ATOM     30  C   UNL     1     -33.748  20.393   0.776  0.00  0.00    +0.000 C 
ATOM     31  C   UNL     1     -31.513  20.191  -0.119  0.00  0.00    +0.000 C 
ATOM     32  C   UNL     1     -33.614  19.148   1.392  0.00  0.00    +0.000 C 
ATOM     33  C   UNL     1     -31.378  18.948   0.497  0.00  0.00    +0.000 C 
ATOM     34  C   UNL     1     -32.429  18.426   1.252  0.00  0.00    +0.000 C 
ENDBRANCH  28  29
ENDBRANCH  26  27
ENDBRANCH  22  24
ENDBRANCH  21  22
ENDBRANCH   5  21
TORSDOF 11
ENDMDL
