MODEL 1
REMARK VINA RESULT:      -6.7      0.000      0.000
REMARK  Name = 53307207
REMARK  9 active torsions:
REMARK  status: ('A' for Active; 'I' for Inactive)
REMARK    1  A    between atoms: C_7  and  O_22
REMARK    2  A    between atoms: C_10  and  C_14
REMARK    3  A    between atoms: C_14  and  O_15
REMARK    4  A    between atoms: O_15  and  C_16
REMARK    5  A    between atoms: C_16  and  C_17
REMARK    6  A    between atoms: C_17  and  C_18
REMARK    7  A    between atoms: C_17  and  C_20
REMARK    8  A    between atoms: O_22  and  C_24
REMARK    9  A    between atoms: C_25  and  C_34
REMARK                            x       y       z     vdW  Elec       q    Type
REMARK                         _______ _______ _______ _____ _____    ______ ____
ROOT
ATOM      1  N   UNL     1     -38.201  24.772   0.617  0.00  0.00    +0.392 N 
ATOM      2  C   UNL     1     -35.338  24.879   1.341  0.00  0.00    +0.000 C 
ATOM      3  C   UNL     1     -35.895  25.644   0.126  0.00  0.00    -0.021 C 
ATOM      4  C   UNL     1     -33.858  24.500   1.145  0.00  0.00    +0.043 C 
ATOM      5  C   UNL     1     -35.624  24.899  -1.190  0.00  0.00    +0.002 C 
ATOM      6  C   UNL     1     -36.225  23.670   1.694  0.00  0.00    -0.010 C 
ATOM      7  C   UNL     1     -33.529  23.860  -0.206  0.00  0.00    +0.166 C 
ATOM      8  C   UNL     1     -37.387  25.954   0.324  0.00  0.00    -0.081 C 
ATOM      9  C   UNL     1     -34.130  24.638  -1.375  0.00  0.00    +0.043 C 
ATOM     10  C   UNL     1     -37.714  24.017   1.772  0.00  0.00    +0.040 C 
ATOM     11  H   UNL     1     -38.192  24.160  -0.200  0.00  0.00    -0.084 HD
ATOM     12  H   UNL     1     -39.143  25.096   0.838  0.00  0.00    -0.084 HD
ENDROOT
BRANCH  10  14
ATOM     13  O   UNL     1     -38.825  25.735   3.040  0.00  0.00    -0.252 OA
ATOM     14  C   UNL     1     -38.067  24.775   3.015  0.00  0.00    +0.297 C 
BRANCH  14  15
ATOM     15  O   UNL     1     -37.421  24.226   4.083  0.00  0.00    -0.450 OA
BRANCH  15  16
ATOM     16  C   UNL     1     -36.643  25.137   4.866  0.00  0.00    +0.208 C 
BRANCH  16  17
ATOM     17  C   UNL     1     -35.401  24.428   5.430  0.00  0.00    +0.044 C 
BRANCH  17  18
ATOM     18  C   UNL     1     -34.084  25.055   4.919  0.00  0.00    +0.004 C 
ATOM     19  C   UNL     1     -34.194  26.498   4.445  0.00  0.00    +0.000 C 
ENDBRANCH  17  18
BRANCH  17  20
ATOM     20  C   UNL     1     -35.517  22.912   5.175  0.00  0.00    +0.004 C 
ATOM     21  C   UNL     1     -35.292  22.060   6.416  0.00  0.00    +0.000 C 
ENDBRANCH  17  20
ENDBRANCH  16  17
ENDBRANCH  15  16
ENDBRANCH  14  15
ENDBRANCH  10  14
BRANCH   7  22
ATOM     22  O   UNL     1     -33.995  22.514  -0.224  0.00  0.00    -0.478 OA
BRANCH  22  24
ATOM     23 CL   UNL     1     -32.552  17.858   1.442  0.00  0.00    -0.081 Cl
ATOM     24  C   UNL     1     -33.044  21.534  -0.132  0.00  0.00    +0.149 C 
ATOM     25  C   UNL     1     -33.294  20.339   0.543  0.00  0.00    +0.110 C 
ATOM     26  C   UNL     1     -31.804  21.748  -0.733  0.00  0.00    +0.038 C 
ATOM     27  C   UNL     1     -32.303  19.359   0.618  0.00  0.00    +0.070 C 
ATOM     28  C   UNL     1     -30.813  20.770  -0.659  0.00  0.00    +0.004 C 
ATOM     29  C   UNL     1     -31.063  19.574   0.017  0.00  0.00    +0.012 C 
BRANCH  25  34
ATOM     30  N   UNL     1     -35.610  19.547   0.539  0.00  0.00    -0.110 NA
ATOM     31  N   UNL     1     -34.857  20.539   2.429  0.00  0.00    -0.087 NA
ATOM     32  N   UNL     1     -36.522  19.618   1.518  0.00  0.00    -0.140 N 
ATOM     33  N   UNL     1     -36.120  20.199   2.657  0.00  0.00    -0.022 NA
ATOM     34  C   UNL     1     -34.584  20.137   1.156  0.00  0.00    +0.077 C 
ATOM     35  H   UNL     1     -37.434  19.265   1.407  0.00  0.00    +0.197 HD
ENDBRANCH  25  34
ENDBRANCH  22  24
ENDBRANCH   7  22
TORSDOF 9
ENDMDL
MODEL 2
REMARK VINA RESULT:      -6.1      3.851      5.412
REMARK  Name = 53307207
REMARK  9 active torsions:
REMARK  status: ('A' for Active; 'I' for Inactive)
REMARK    1  A    between atoms: C_7  and  O_22
REMARK    2  A    between atoms: C_10  and  C_14
REMARK    3  A    between atoms: C_14  and  O_15
REMARK    4  A    between atoms: O_15  and  C_16
REMARK    5  A    between atoms: C_16  and  C_17
REMARK    6  A    between atoms: C_17  and  C_18
REMARK    7  A    between atoms: C_17  and  C_20
REMARK    8  A    between atoms: O_22  and  C_24
REMARK    9  A    between atoms: C_25  and  C_34
REMARK                            x       y       z     vdW  Elec       q    Type
REMARK                         _______ _______ _______ _____ _____    ______ ____
ROOT
ATOM      1  N   UNL     1     -36.298  29.102   0.491  0.00  0.00    +0.392 N 
ATOM      2  C   UNL     1     -34.065  27.314   1.231  0.00  0.00    +0.000 C 
ATOM      3  C   UNL     1     -34.515  27.483  -0.231  0.00  0.00    -0.021 C 
ATOM      4  C   UNL     1     -33.441  25.927   1.478  0.00  0.00    +0.043 C 
ATOM      5  C   UNL     1     -35.410  26.320  -0.690  0.00  0.00    +0.002 C 
ATOM      6  C   UNL     1     -35.209  27.639   2.211  0.00  0.00    -0.010 C 
ATOM      7  C   UNL     1     -34.250  24.749   0.929  0.00  0.00    +0.166 C 
ATOM      8  C   UNL     1     -35.188  28.850  -0.431  0.00  0.00    -0.081 C 
ATOM      9  C   UNL     1     -34.700  24.979  -0.513  0.00  0.00    +0.043 C 
ATOM     10  C   UNL     1     -35.913  28.962   1.896  0.00  0.00    +0.040 C 
ATOM     11  H   UNL     1     -37.045  28.437   0.290  0.00  0.00    -0.084 HD
ATOM     12  H   UNL     1     -36.599  30.067   0.351  0.00  0.00    -0.084 HD
ENDROOT
BRANCH  10  14
ATOM     13  O   UNL     1     -35.112  31.222   1.681  0.00  0.00    -0.252 OA
ATOM     14  C   UNL     1     -35.098  30.157   2.285  0.00  0.00    +0.297 C 
BRANCH  14  15
ATOM     15  O   UNL     1     -34.362  29.865   3.395  0.00  0.00    -0.450 OA
BRANCH  15  16
ATOM     16  C   UNL     1     -33.388  30.848   3.763  0.00  0.00    +0.208 C 
BRANCH  16  17
ATOM     17  C   UNL     1     -32.124  30.165   4.309  0.00  0.00    +0.044 C 
BRANCH  17  18
ATOM     18  C   UNL     1     -32.186  28.626   4.186  0.00  0.00    +0.004 C 
ATOM     19  C   UNL     1     -31.025  27.989   3.434  0.00  0.00    +0.000 C 
ENDBRANCH  17  18
BRANCH  17  20
ATOM     20  C   UNL     1     -31.846  30.672   5.739  0.00  0.00    +0.004 C 
ATOM     21  C   UNL     1     -31.751  29.563   6.777  0.00  0.00    +0.000 C 
ENDBRANCH  17  20
ENDBRANCH  16  17
ENDBRANCH  15  16
ENDBRANCH  14  15
ENDBRANCH  10  14
BRANCH   7  22
ATOM     22  O   UNL     1     -35.381  24.515   1.763  0.00  0.00    -0.478 OA
BRANCH  22  24
ATOM     23 CL   UNL     1     -35.547  22.172   6.348  0.00  0.00    -0.081 Cl
ATOM     24  C   UNL     1     -35.371  23.364   2.503  0.00  0.00    +0.149 C 
ATOM     25  C   UNL     1     -35.458  23.394   3.895  0.00  0.00    +0.110 C 
ATOM     26  C   UNL     1     -35.274  22.142   1.836  0.00  0.00    +0.038 C 
ATOM     27  C   UNL     1     -35.445  22.201   4.620  0.00  0.00    +0.070 C 
ATOM     28  C   UNL     1     -35.261  20.951   2.560  0.00  0.00    +0.004 C 
ATOM     29  C   UNL     1     -35.347  20.980   3.953  0.00  0.00    +0.012 C 
BRANCH  25  34
ATOM     30  N   UNL     1     -36.719  25.277   4.818  0.00  0.00    -0.110 NA
ATOM     31  N   UNL     1     -34.463  25.355   4.992  0.00  0.00    -0.087 NA
ATOM     32  N   UNL     1     -36.257  26.377   5.426  0.00  0.00    -0.140 N 
ATOM     33  N   UNL     1     -34.926  26.467   5.552  0.00  0.00    -0.022 NA
ATOM     34  C   UNL     1     -35.559  24.667   4.564  0.00  0.00    +0.077 C 
ATOM     35  H   UNL     1     -36.860  27.080   5.761  0.00  0.00    +0.197 HD
ENDBRANCH  25  34
ENDBRANCH  22  24
ENDBRANCH   7  22
TORSDOF 9
ENDMDL
MODEL 3
REMARK VINA RESULT:      -6.0      3.984      5.496
REMARK  Name = 53307207
REMARK  9 active torsions:
REMARK  status: ('A' for Active; 'I' for Inactive)
REMARK    1  A    between atoms: C_7  and  O_22
REMARK    2  A    between atoms: C_10  and  C_14
REMARK    3  A    between atoms: C_14  and  O_15
REMARK    4  A    between atoms: O_15  and  C_16
REMARK    5  A    between atoms: C_16  and  C_17
REMARK    6  A    between atoms: C_17  and  C_18
REMARK    7  A    between atoms: C_17  and  C_20
REMARK    8  A    between atoms: O_22  and  C_24
REMARK    9  A    between atoms: C_25  and  C_34
REMARK                            x       y       z     vdW  Elec       q    Type
REMARK                         _______ _______ _______ _____ _____    ______ ____
ROOT
ATOM      1  N   UNL     1     -35.890  29.275   0.416  0.00  0.00    +0.392 N 
ATOM      2  C   UNL     1     -33.798  27.613   1.678  0.00  0.00    +0.000 C 
ATOM      3  C   UNL     1     -33.869  27.802   0.152  0.00  0.00    -0.021 C 
ATOM      4  C   UNL     1     -33.160  26.262   2.055  0.00  0.00    +0.043 C 
ATOM      5  C   UNL     1     -34.529  26.600  -0.541  0.00  0.00    +0.002 C 
ATOM      6  C   UNL     1     -35.176  27.827   2.334  0.00  0.00    -0.010 C 
ATOM      7  C   UNL     1     -33.713  25.053   1.296  0.00  0.00    +0.166 C 
ATOM      8  C   UNL     1     -34.566  29.128  -0.193  0.00  0.00    -0.081 C 
ATOM      9  C   UNL     1     -33.793  25.302  -0.208  0.00  0.00    +0.043 C 
ATOM     10  C   UNL     1     -35.870  29.112   1.870  0.00  0.00    +0.040 C 
ATOM     11  H   UNL     1     -36.511  28.570   0.018  0.00  0.00    -0.084 HD
ATOM     12  H   UNL     1     -36.214  30.222   0.219  0.00  0.00    -0.084 HD
ENDROOT
BRANCH  10  14
ATOM     13  O   UNL     1     -35.434  31.473   2.034  0.00  0.00    -0.252 OA
ATOM     14  C   UNL     1     -35.270  30.344   2.476  0.00  0.00    +0.297 C 
BRANCH  14  15
ATOM     15  O   UNL     1     -34.535  30.002   3.572  0.00  0.00    -0.450 OA
BRANCH  15  16
ATOM     16  C   UNL     1     -33.330  30.749   3.762  0.00  0.00    +0.208 C 
BRANCH  16  17
ATOM     17  C   UNL     1     -32.267  29.878   4.452  0.00  0.00    +0.044 C 
BRANCH  17  18
ATOM     18  C   UNL     1     -31.736  30.519   5.754  0.00  0.00    +0.004 C 
ATOM     19  C   UNL     1     -31.657  29.580   6.951  0.00  0.00    +0.000 C 
ENDBRANCH  17  18
BRANCH  17  20
ATOM     20  C   UNL     1     -31.167  29.513   3.435  0.00  0.00    +0.004 C 
ATOM     21  C   UNL     1     -30.364  28.277   3.814  0.00  0.00    +0.000 C 
ENDBRANCH  17  20
ENDBRANCH  16  17
ENDBRANCH  15  16
ENDBRANCH  14  15
ENDBRANCH  10  14
BRANCH   7  22
ATOM     22  O   UNL     1     -35.000  24.717   1.805  0.00  0.00    -0.478 OA
BRANCH  22  24
ATOM     23 CL   UNL     1     -35.714  22.073   6.169  0.00  0.00    -0.081 Cl
ATOM     24  C   UNL     1     -35.110  23.518   2.457  0.00  0.00    +0.149 C 
ATOM     25  C   UNL     1     -35.333  23.455   3.832  0.00  0.00    +0.110 C 
ATOM     26  C   UNL     1     -34.994  22.342   1.715  0.00  0.00    +0.038 C 
ATOM     27  C   UNL     1     -35.439  22.216   4.466  0.00  0.00    +0.070 C 
ATOM     28  C   UNL     1     -35.100  21.104   2.348  0.00  0.00    +0.004 C 
ATOM     29  C   UNL     1     -35.324  21.041   3.724  0.00  0.00    +0.012 C 
BRANCH  25  34
ATOM     30  N   UNL     1     -36.606  25.325   4.766  0.00  0.00    -0.110 NA
ATOM     31  N   UNL     1     -34.377  25.289   5.160  0.00  0.00    -0.087 NA
ATOM     32  N   UNL     1     -36.164  26.359   5.495  0.00  0.00    -0.140 N 
ATOM     33  N   UNL     1     -34.849  26.379   5.753  0.00  0.00    -0.022 NA
ATOM     34  C   UNL     1     -35.450  24.683   4.580  0.00  0.00    +0.077 C 
ATOM     35  H   UNL     1     -36.769  27.064   5.821  0.00  0.00    +0.197 HD
ENDBRANCH  25  34
ENDBRANCH  22  24
ENDBRANCH   7  22
TORSDOF 9
ENDMDL
MODEL 4
REMARK VINA RESULT:      -5.9      3.434      7.006
REMARK  Name = 53307207
REMARK  9 active torsions:
REMARK  status: ('A' for Active; 'I' for Inactive)
REMARK    1  A    between atoms: C_7  and  O_22
REMARK    2  A    between atoms: C_10  and  C_14
REMARK    3  A    between atoms: C_14  and  O_15
REMARK    4  A    between atoms: O_15  and  C_16
REMARK    5  A    between atoms: C_16  and  C_17
REMARK    6  A    between atoms: C_17  and  C_18
REMARK    7  A    between atoms: C_17  and  C_20
REMARK    8  A    between atoms: O_22  and  C_24
REMARK    9  A    between atoms: C_25  and  C_34
REMARK                            x       y       z     vdW  Elec       q    Type
REMARK                         _______ _______ _______ _____ _____    ______ ____
ROOT
ATOM      1  N   UNL     1     -36.808  23.648   1.535  0.00  0.00    +0.392 N 
ATOM      2  C   UNL     1     -35.857  23.245   4.304  0.00  0.00    +0.000 C 
ATOM      3  C   UNL     1     -37.075  24.132   3.988  0.00  0.00    -0.021 C 
ATOM      4  C   UNL     1     -35.138  23.701   5.588  0.00  0.00    +0.043 C 
ATOM      5  C   UNL     1     -36.709  25.624   3.987  0.00  0.00    +0.002 C 
ATOM      6  C   UNL     1     -34.910  23.143   3.093  0.00  0.00    -0.010 C 
ATOM      7  C   UNL     1     -34.862  25.204   5.674  0.00  0.00    +0.166 C 
ATOM      8  C   UNL     1     -37.732  23.692   2.671  0.00  0.00    -0.081 C 
ATOM      9  C   UNL     1     -36.091  26.039   5.321  0.00  0.00    +0.043 C 
ATOM     10  C   UNL     1     -35.637  22.808   1.787  0.00  0.00    +0.040 C 
ATOM     11  H   UNL     1     -36.491  24.597   1.337  0.00  0.00    -0.084 HD
ATOM     12  H   UNL     1     -37.311  23.243   0.746  0.00  0.00    -0.084 HD
ENDROOT
BRANCH  10  14
ATOM     13  O   UNL     1     -37.149  21.000   1.298  0.00  0.00    -0.252 OA
ATOM     14  C   UNL     1     -36.059  21.372   1.713  0.00  0.00    +0.297 C 
BRANCH  14  15
ATOM     15  O   UNL     1     -35.052  20.576   2.171  0.00  0.00    -0.450 OA
BRANCH  15  16
ATOM     16  C   UNL     1     -34.609  19.561   1.264  0.00  0.00    +0.208 C 
BRANCH  16  17
ATOM     17  C   UNL     1     -33.078  19.595   1.135  0.00  0.00    +0.044 C 
BRANCH  17  18
ATOM     18  C   UNL     1     -32.613  20.205  -0.207  0.00  0.00    +0.004 C 
ATOM     19  C   UNL     1     -32.667  21.725  -0.280  0.00  0.00    +0.000 C 
ENDBRANCH  17  18
BRANCH  17  20
ATOM     20  C   UNL     1     -32.510  18.190   1.418  0.00  0.00    +0.004 C 
ATOM     21  C   UNL     1     -31.105  17.972   0.873  0.00  0.00    +0.000 C 
ENDBRANCH  17  20
ENDBRANCH  16  17
ENDBRANCH  15  16
ENDBRANCH  14  15
ENDBRANCH  10  14
BRANCH   7  22
ATOM     22  O   UNL     1     -33.779  25.541   4.812  0.00  0.00    -0.478 OA
BRANCH  22  24
ATOM     23 CL   UNL     1     -31.937  30.020   3.056  0.00  0.00    -0.081 Cl
ATOM     24  C   UNL     1     -33.155  26.736   5.047  0.00  0.00    +0.149 C 
ATOM     25  C   UNL     1     -32.910  27.644   4.017  0.00  0.00    +0.110 C 
ATOM     26  C   UNL     1     -32.763  27.040   6.352  0.00  0.00    +0.038 C 
ATOM     27  C   UNL     1     -32.271  28.854   4.291  0.00  0.00    +0.070 C 
ATOM     28  C   UNL     1     -32.125  28.249   6.626  0.00  0.00    +0.004 C 
ATOM     29  C   UNL     1     -31.880  29.157   5.595  0.00  0.00    +0.012 C 
BRANCH  25  34
ATOM     30  N   UNL     1     -32.580  26.591   1.833  0.00  0.00    -0.110 NA
ATOM     31  N   UNL     1     -34.519  27.712   2.160  0.00  0.00    -0.087 NA
ATOM     32  N   UNL     1     -33.401  26.582   0.774  0.00  0.00    -0.140 N 
ATOM     33  N   UNL     1     -34.562  27.234   0.923  0.00  0.00    -0.022 NA
ATOM     34  C   UNL     1     -33.323  27.311   2.676  0.00  0.00    +0.077 C 
ATOM     35  H   UNL     1     -33.165  26.124  -0.065  0.00  0.00    +0.197 HD
ENDBRANCH  25  34
ENDBRANCH  22  24
ENDBRANCH   7  22
TORSDOF 9
ENDMDL
MODEL 5
REMARK VINA RESULT:      -5.9      2.877      4.120
REMARK  Name = 53307207
REMARK  9 active torsions:
REMARK  status: ('A' for Active; 'I' for Inactive)
REMARK    1  A    between atoms: C_7  and  O_22
REMARK    2  A    between atoms: C_10  and  C_14
REMARK    3  A    between atoms: C_14  and  O_15
REMARK    4  A    between atoms: O_15  and  C_16
REMARK    5  A    between atoms: C_16  and  C_17
REMARK    6  A    between atoms: C_17  and  C_18
REMARK    7  A    between atoms: C_17  and  C_20
REMARK    8  A    between atoms: O_22  and  C_24
REMARK    9  A    between atoms: C_25  and  C_34
REMARK                            x       y       z     vdW  Elec       q    Type
REMARK                         _______ _______ _______ _____ _____    ______ ____
ROOT
ATOM      1  N   UNL     1     -38.529  21.396   2.239  0.00  0.00    +0.392 N 
ATOM      2  C   UNL     1     -36.368  21.396   0.224  0.00  0.00    +0.000 C 
ATOM      3  C   UNL     1     -37.803  20.966  -0.130  0.00  0.00    -0.021 C 
ATOM      4  C   UNL     1     -35.328  20.697  -0.673  0.00  0.00    +0.043 C 
ATOM      5  C   UNL     1     -37.950  19.437  -0.158  0.00  0.00    +0.002 C 
ATOM      6  C   UNL     1     -36.082  21.212   1.726  0.00  0.00    -0.010 C 
ATOM      7  C   UNL     1     -35.514  19.185  -0.820  0.00  0.00    +0.166 C 
ATOM      8  C   UNL     1     -38.812  21.630   0.821  0.00  0.00    -0.081 C 
ATOM      9  C   UNL     1     -36.960  18.809  -1.138  0.00  0.00    +0.043 C 
ATOM     10  C   UNL     1     -37.176  21.799   2.623  0.00  0.00    +0.040 C 
ATOM     11  H   UNL     1     -38.640  20.401   2.433  0.00  0.00    -0.084 HD
ATOM     12  H   UNL     1     -39.182  21.964   2.779  0.00  0.00    -0.084 HD
ENDROOT
BRANCH  10  14
ATOM     13  O   UNL     1     -36.851  24.013   1.736  0.00  0.00    -0.252 OA
ATOM     14  C   UNL     1     -37.128  23.295   2.688  0.00  0.00    +0.297 C 
BRANCH  14  15
ATOM     15  O   UNL     1     -37.438  23.707   3.950  0.00  0.00    -0.450 OA
BRANCH  15  16
ATOM     16  C   UNL     1     -36.590  24.726   4.490  0.00  0.00    +0.208 C 
BRANCH  16  17
ATOM     17  C   UNL     1     -35.295  24.105   5.039  0.00  0.00    +0.044 C 
BRANCH  17  18
ATOM     18  C   UNL     1     -35.570  22.955   6.035  0.00  0.00    +0.004 C 
ATOM     19  C   UNL     1     -34.974  21.608   5.649  0.00  0.00    +0.000 C 
ENDBRANCH  17  18
BRANCH  17  20
ATOM     20  C   UNL     1     -34.390  25.220   5.600  0.00  0.00    +0.004 C 
ATOM     21  C   UNL     1     -33.979  26.257   4.565  0.00  0.00    +0.000 C 
ENDBRANCH  17  20
ENDBRANCH  16  17
ENDBRANCH  15  16
ENDBRANCH  14  15
ENDBRANCH  10  14
BRANCH   7  22
ATOM     22  O   UNL     1     -35.091  18.533   0.374  0.00  0.00    -0.478 OA
BRANCH  22  24
ATOM     23 CL   UNL     1     -31.843  14.664  -0.637  0.00  0.00    -0.081 Cl
ATOM     24  C   UNL     1     -33.820  18.025   0.379  0.00  0.00    +0.149 C 
ATOM     25  C   UNL     1     -33.549  16.739  -0.090  0.00  0.00    +0.110 C 
ATOM     26  C   UNL     1     -32.784  18.822   0.866  0.00  0.00    +0.038 C 
ATOM     27  C   UNL     1     -32.242  16.251  -0.071  0.00  0.00    +0.070 C 
ATOM     28  C   UNL     1     -31.478  18.334   0.885  0.00  0.00    +0.004 C 
ATOM     29  C   UNL     1     -31.207  17.048   0.416  0.00  0.00    +0.012 C 
BRANCH  25  34
ATOM     30  N   UNL     1     -35.483  15.267   0.198  0.00  0.00    -0.110 NA
ATOM     31  N   UNL     1     -34.880  15.783  -1.922  0.00  0.00    -0.087 NA
ATOM     32  N   UNL     1     -36.257  14.706  -0.740  0.00  0.00    -0.140 N 
ATOM     33  N   UNL     1     -35.937  14.984  -2.011  0.00  0.00    -0.022 NA
ATOM     34  C   UNL     1     -34.635  15.932  -0.590  0.00  0.00    +0.077 C 
ATOM     35  H   UNL     1     -37.016  14.124  -0.510  0.00  0.00    +0.197 HD
ENDBRANCH  25  34
ENDBRANCH  22  24
ENDBRANCH   7  22
TORSDOF 9
ENDMDL
MODEL 6
REMARK VINA RESULT:      -5.9      4.069      7.398
REMARK  Name = 53307207
REMARK  9 active torsions:
REMARK  status: ('A' for Active; 'I' for Inactive)
REMARK    1  A    between atoms: C_7  and  O_22
REMARK    2  A    between atoms: C_10  and  C_14
REMARK    3  A    between atoms: C_14  and  O_15
REMARK    4  A    between atoms: O_15  and  C_16
REMARK    5  A    between atoms: C_16  and  C_17
REMARK    6  A    between atoms: C_17  and  C_18
REMARK    7  A    between atoms: C_17  and  C_20
REMARK    8  A    between atoms: O_22  and  C_24
REMARK    9  A    between atoms: C_25  and  C_34
REMARK                            x       y       z     vdW  Elec       q    Type
REMARK                         _______ _______ _______ _____ _____    ______ ____
ROOT
ATOM      1  N   UNL     1     -36.989  24.678   4.971  0.00  0.00    +0.392 N 
ATOM      2  C   UNL     1     -34.531  25.277   3.443  0.00  0.00    +0.000 C 
ATOM      3  C   UNL     1     -34.484  24.900   4.935  0.00  0.00    -0.021 C 
ATOM      4  C   UNL     1     -33.347  26.180   3.047  0.00  0.00    +0.043 C 
ATOM      5  C   UNL     1     -34.334  26.139   5.832  0.00  0.00    +0.002 C 
ATOM      6  C   UNL     1     -35.897  25.879   3.061  0.00  0.00    -0.010 C 
ATOM      7  C   UNL     1     -33.094  27.361   3.987  0.00  0.00    +0.166 C 
ATOM      8  C   UNL     1     -35.709  24.053   5.313  0.00  0.00    -0.081 C 
ATOM      9  C   UNL     1     -33.089  26.941   5.455  0.00  0.00    +0.043 C 
ATOM     10  C   UNL     1     -37.082  25.046   3.558  0.00  0.00    +0.040 C 
ATOM     11  H   UNL     1     -37.099  25.521   5.535  0.00  0.00    -0.084 HD
ATOM     12  H   UNL     1     -37.723  23.996   5.159  0.00  0.00    -0.084 HD
ENDROOT
BRANCH  10  14
ATOM     13  O   UNL     1     -37.964  22.848   3.129  0.00  0.00    -0.252 OA
ATOM     14  C   UNL     1     -37.288  23.798   2.756  0.00  0.00    +0.297 C 
BRANCH  14  15
ATOM     15  O   UNL     1     -36.615  23.898   1.575  0.00  0.00    -0.450 OA
BRANCH  15  16
ATOM     16  C   UNL     1     -36.297  22.655   0.940  0.00  0.00    +0.208 C 
BRANCH  16  17
ATOM     17  C   UNL     1     -34.950  22.124   1.456  0.00  0.00    +0.044 C 
BRANCH  17  18
ATOM     18  C   UNL     1     -33.846  22.171   0.376  0.00  0.00    +0.004 C 
ATOM     19  C   UNL     1     -33.302  23.560   0.067  0.00  0.00    +0.000 C 
ENDBRANCH  17  18
BRANCH  17  20
ATOM     20  C   UNL     1     -35.156  20.732   2.086  0.00  0.00    +0.004 C 
ATOM     21  C   UNL     1     -34.199  19.671   1.561  0.00  0.00    +0.000 C 
ENDBRANCH  17  20
ENDBRANCH  16  17
ENDBRANCH  15  16
ENDBRANCH  14  15
ENDBRANCH  10  14
BRANCH   7  22
ATOM     22  O   UNL     1     -34.081  28.366   3.770  0.00  0.00    -0.478 OA
BRANCH  22  24
ATOM     23 CL   UNL     1     -34.306  31.913   0.041  0.00  0.00    -0.081 Cl
ATOM     24  C   UNL     1     -33.646  29.549   3.236  0.00  0.00    +0.149 C 
ATOM     25  C   UNL     1     -34.167  30.041   2.040  0.00  0.00    +0.110 C 
ATOM     26  C   UNL     1     -32.662  30.267   3.916  0.00  0.00    +0.038 C 
ATOM     27  C   UNL     1     -33.701  31.251   1.522  0.00  0.00    +0.070 C 
ATOM     28  C   UNL     1     -32.196  31.475   3.399  0.00  0.00    +0.004 C 
ATOM     29  C   UNL     1     -32.717  31.968   2.202  0.00  0.00    +0.012 C 
BRANCH  25  34
ATOM     30  N   UNL     1     -34.916  28.323   0.466  0.00  0.00    -0.110 NA
ATOM     31  N   UNL     1     -36.515  29.495   1.559  0.00  0.00    -0.087 NA
ATOM     32  N   UNL     1     -36.168  27.966   0.148  0.00  0.00    -0.140 N 
ATOM     33  N   UNL     1     -37.148  28.634   0.771  0.00  0.00    -0.022 NA
ATOM     34  C   UNL     1     -35.185  29.284   1.353  0.00  0.00    +0.077 C 
ATOM     35  H   UNL     1     -36.357  27.255  -0.506  0.00  0.00    +0.197 HD
ENDBRANCH  25  34
ENDBRANCH  22  24
ENDBRANCH   7  22
TORSDOF 9
ENDMDL
MODEL 7
REMARK VINA RESULT:      -5.8      2.121      2.599
REMARK  Name = 53307207
REMARK  9 active torsions:
REMARK  status: ('A' for Active; 'I' for Inactive)
REMARK    1  A    between atoms: C_7  and  O_22
REMARK    2  A    between atoms: C_10  and  C_14
REMARK    3  A    between atoms: C_14  and  O_15
REMARK    4  A    between atoms: O_15  and  C_16
REMARK    5  A    between atoms: C_16  and  C_17
REMARK    6  A    between atoms: C_17  and  C_18
REMARK    7  A    between atoms: C_17  and  C_20
REMARK    8  A    between atoms: O_22  and  C_24
REMARK    9  A    between atoms: C_25  and  C_34
REMARK                            x       y       z     vdW  Elec       q    Type
REMARK                         _______ _______ _______ _____ _____    ______ ____
ROOT
ATOM      1  N   UNL     1     -38.777  23.376   0.864  0.00  0.00    +0.392 N 
ATOM      2  C   UNL     1     -35.865  23.173   1.317  0.00  0.00    +0.000 C 
ATOM      3  C   UNL     1     -36.443  23.622  -0.037  0.00  0.00    -0.021 C 
ATOM      4  C   UNL     1     -34.494  22.488   1.153  0.00  0.00    +0.043 C 
ATOM      5  C   UNL     1     -36.452  22.476  -1.061  0.00  0.00    +0.002 C 
ATOM      6  C   UNL     1     -36.874  22.310   2.099  0.00  0.00    -0.010 C 
ATOM      7  C   UNL     1     -34.435  21.420   0.058  0.00  0.00    +0.166 C 
ATOM      8  C   UNL     1     -37.835  24.243   0.154  0.00  0.00    -0.081 C 
ATOM      9  C   UNL     1     -35.048  21.902  -1.255  0.00  0.00    +0.043 C 
ATOM     10  C   UNL     1     -38.273  22.931   2.163  0.00  0.00    +0.040 C 
ATOM     11  H   UNL     1     -38.961  22.554   0.287  0.00  0.00    -0.084 HD
ATOM     12  H   UNL     1     -39.625  23.918   1.034  0.00  0.00    -0.084 HD
ENDROOT
BRANCH  10  14
ATOM     13  O   UNL     1     -39.114  25.029   2.990  0.00  0.00    -0.252 OA
ATOM     14  C   UNL     1     -38.352  24.081   3.121  0.00  0.00    +0.297 C 
BRANCH  14  15
ATOM     15  O   UNL     1     -37.457  23.894   4.132  0.00  0.00    -0.450 OA
BRANCH  15  16
ATOM     16  C   UNL     1     -36.704  25.051   4.509  0.00  0.00    +0.208 C 
BRANCH  16  17
ATOM     17  C   UNL     1     -35.469  24.639   5.327  0.00  0.00    +0.044 C 
BRANCH  17  18
ATOM     18  C   UNL     1     -34.247  25.541   5.041  0.00  0.00    +0.004 C 
ATOM     19  C   UNL     1     -33.734  26.333   6.237  0.00  0.00    +0.000 C 
ENDBRANCH  17  18
BRANCH  17  20
ATOM     20  C   UNL     1     -35.202  23.134   5.127  0.00  0.00    +0.004 C 
ATOM     21  C   UNL     1     -35.353  22.308   6.396  0.00  0.00    +0.000 C 
ENDBRANCH  17  20
ENDBRANCH  16  17
ENDBRANCH  15  16
ENDBRANCH  14  15
ENDBRANCH  10  14
BRANCH   7  22
ATOM     22  O   UNL     1     -35.098  20.241   0.503  0.00  0.00    -0.478 OA
BRANCH  22  24
ATOM     23 CL   UNL     1     -34.671  15.290  -0.856  0.00  0.00    -0.081 Cl
ATOM     24  C   UNL     1     -34.372  19.080   0.477  0.00  0.00    +0.149 C 
ATOM     25  C   UNL     1     -34.872  17.924  -0.122  0.00  0.00    +0.110 C 
ATOM     26  C   UNL     1     -33.107  19.070   1.065  0.00  0.00    +0.038 C 
ATOM     27  C   UNL     1     -34.106  16.757  -0.131  0.00  0.00    +0.070 C 
ATOM     28  C   UNL     1     -32.342  17.904   1.056  0.00  0.00    +0.004 C 
ATOM     29  C   UNL     1     -32.842  16.747   0.457  0.00  0.00    +0.012 C 
BRANCH  25  34
ATOM     30  N   UNL     1     -36.404  18.341  -1.984  0.00  0.00    -0.110 NA
ATOM     31  N   UNL     1     -37.306  17.594  -0.046  0.00  0.00    -0.087 NA
ATOM     32  N   UNL     1     -37.735  18.188  -2.025  0.00  0.00    -0.140 N 
ATOM     33  N   UNL     1     -38.312  17.748  -0.899  0.00  0.00    -0.022 NA
ATOM     34  C   UNL     1     -36.181  17.956  -0.725  0.00  0.00    +0.077 C 
ATOM     35  H   UNL     1     -38.258  18.389  -2.834  0.00  0.00    +0.197 HD
ENDBRANCH  25  34
ENDBRANCH  22  24
ENDBRANCH   7  22
TORSDOF 9
ENDMDL
MODEL 8
REMARK VINA RESULT:      -5.8      3.127      4.196
REMARK  Name = 53307207
REMARK  9 active torsions:
REMARK  status: ('A' for Active; 'I' for Inactive)
REMARK    1  A    between atoms: C_7  and  O_22
REMARK    2  A    between atoms: C_10  and  C_14
REMARK    3  A    between atoms: C_14  and  O_15
REMARK    4  A    between atoms: O_15  and  C_16
REMARK    5  A    between atoms: C_16  and  C_17
REMARK    6  A    between atoms: C_17  and  C_18
REMARK    7  A    between atoms: C_17  and  C_20
REMARK    8  A    between atoms: O_22  and  C_24
REMARK    9  A    between atoms: C_25  and  C_34
REMARK                            x       y       z     vdW  Elec       q    Type
REMARK                         _______ _______ _______ _____ _____    ______ ____
ROOT
ATOM      1  N   UNL     1     -37.668  24.681   0.769  0.00  0.00    +0.392 N 
ATOM      2  C   UNL     1     -35.968  22.672   2.114  0.00  0.00    +0.000 C 
ATOM      3  C   UNL     1     -35.590  23.264   0.745  0.00  0.00    -0.021 C 
ATOM      4  C   UNL     1     -35.406  21.249   2.294  0.00  0.00    +0.043 C 
ATOM      5  C   UNL     1     -35.954  22.314  -0.407  0.00  0.00    +0.002 C 
ATOM      6  C   UNL     1     -37.488  22.751   2.359  0.00  0.00    -0.010 C 
ATOM      7  C   UNL     1     -35.648  20.306   1.113  0.00  0.00    +0.166 C 
ATOM      8  C   UNL     1     -36.217  24.657   0.571  0.00  0.00    -0.081 C 
ATOM      9  C   UNL     1     -35.288  20.951  -0.224  0.00  0.00    +0.043 C 
ATOM     10  C   UNL     1     -38.074  24.135   2.065  0.00  0.00    +0.040 C 
ATOM     11  H   UNL     1     -38.106  24.129   0.032  0.00  0.00    -0.084 HD
ATOM     12  H   UNL     1     -37.964  25.656   0.742  0.00  0.00    -0.084 HD
ENDROOT
BRANCH  10  14
ATOM     13  O   UNL     1     -37.840  26.350   2.977  0.00  0.00    -0.252 OA
ATOM     14  C   UNL     1     -37.743  25.139   3.127  0.00  0.00    +0.297 C 
BRANCH  14  15
ATOM     15  O   UNL     1     -37.332  24.493   4.254  0.00  0.00    -0.450 OA
BRANCH  15  16
ATOM     16  C   UNL     1     -36.411  25.217   5.077  0.00  0.00    +0.208 C 
BRANCH  16  17
ATOM     17  C   UNL     1     -35.294  24.285   5.572  0.00  0.00    +0.044 C 
BRANCH  17  18
ATOM     18  C   UNL     1     -34.034  24.350   4.679  0.00  0.00    +0.004 C 
ATOM     19  C   UNL     1     -34.031  25.468   3.645  0.00  0.00    +0.000 C 
ENDBRANCH  17  18
BRANCH  17  20
ATOM     20  C   UNL     1     -35.859  22.863   5.760  0.00  0.00    +0.004 C 
ATOM     21  C   UNL     1     -34.792  21.802   5.992  0.00  0.00    +0.000 C 
ENDBRANCH  17  20
ENDBRANCH  16  17
ENDBRANCH  15  16
ENDBRANCH  14  15
ENDBRANCH  10  14
BRANCH   7  22
ATOM     22  O   UNL     1     -37.010  19.890   1.104  0.00  0.00    -0.478 OA
BRANCH  22  24
ATOM     23 CL   UNL     1     -40.275  18.928  -2.764  0.00  0.00    -0.081 Cl
ATOM     24  C   UNL     1     -37.405  19.099   0.059  0.00  0.00    +0.149 C 
ATOM     25  C   UNL     1     -38.522  19.417  -0.713  0.00  0.00    +0.110 C 
ATOM     26  C   UNL     1     -36.662  17.954  -0.229  0.00  0.00    +0.038 C 
ATOM     27  C   UNL     1     -38.897  18.588  -1.771  0.00  0.00    +0.070 C 
ATOM     28  C   UNL     1     -37.036  17.125  -1.287  0.00  0.00    +0.004 C 
ATOM     29  C   UNL     1     -38.154  17.443  -2.059  0.00  0.00    +0.012 C 
BRANCH  25  34
ATOM     30  N   UNL     1     -40.197  20.661   0.566  0.00  0.00    -0.110 NA
ATOM     31  N   UNL     1     -39.105  21.778  -1.073  0.00  0.00    -0.087 NA
ATOM     32  N   UNL     1     -40.573  21.940   0.434  0.00  0.00    -0.140 N 
ATOM     33  N   UNL     1     -39.952  22.641  -0.525  0.00  0.00    -0.022 NA
ATOM     34  C   UNL     1     -39.276  20.606  -0.399  0.00  0.00    +0.077 C 
ATOM     35  H   UNL     1     -41.265  22.342   1.007  0.00  0.00    +0.197 HD
ENDBRANCH  25  34
ENDBRANCH  22  24
ENDBRANCH   7  22
TORSDOF 9
ENDMDL
MODEL 9
REMARK VINA RESULT:      -5.7      5.048      7.442
REMARK  Name = 53307207
REMARK  9 active torsions:
REMARK  status: ('A' for Active; 'I' for Inactive)
REMARK    1  A    between atoms: C_7  and  O_22
REMARK    2  A    between atoms: C_10  and  C_14
REMARK    3  A    between atoms: C_14  and  O_15
REMARK    4  A    between atoms: O_15  and  C_16
REMARK    5  A    between atoms: C_16  and  C_17
REMARK    6  A    between atoms: C_17  and  C_18
REMARK    7  A    between atoms: C_17  and  C_20
REMARK    8  A    between atoms: O_22  and  C_24
REMARK    9  A    between atoms: C_25  and  C_34
REMARK                            x       y       z     vdW  Elec       q    Type
REMARK                         _______ _______ _______ _____ _____    ______ ____
ROOT
ATOM      1  N   UNL     1     -34.408  26.084   1.961  0.00  0.00    +0.392 N 
ATOM      2  C   UNL     1     -35.282  28.906   2.021  0.00  0.00    +0.000 C 
ATOM      3  C   UNL     1     -34.226  28.408   1.018  0.00  0.00    -0.021 C 
ATOM      4  C   UNL     1     -35.087  30.397   2.360  0.00  0.00    +0.043 C 
ATOM      5  C   UNL     1     -32.799  28.749   1.477  0.00  0.00    +0.002 C 
ATOM      6  C   UNL     1     -35.333  28.010   3.273  0.00  0.00    -0.010 C 
ATOM      7  C   UNL     1     -33.652  30.796   2.707  0.00  0.00    +0.166 C 
ATOM      8  C   UNL     1     -34.408  26.906   0.749  0.00  0.00    -0.081 C 
ATOM      9  C   UNL     1     -32.640  30.252   1.701  0.00  0.00    +0.043 C 
ATOM     10  C   UNL     1     -35.405  26.516   2.941  0.00  0.00    +0.040 C 
ATOM     11  H   UNL     1     -33.484  26.138   2.391  0.00  0.00    -0.084 HD
ATOM     12  H   UNL     1     -34.644  25.131   1.685  0.00  0.00    -0.084 HD
ENDROOT
BRANCH  10  14
ATOM     13  O   UNL     1     -37.646  26.880   2.140  0.00  0.00    -0.252 OA
ATOM     14  C   UNL     1     -36.759  26.097   2.456  0.00  0.00    +0.297 C 
BRANCH  14  15
ATOM     15  O   UNL     1     -36.832  24.736   2.425  0.00  0.00    -0.450 OA
BRANCH  15  16
ATOM     16  C   UNL     1     -37.186  24.111   3.662  0.00  0.00    +0.208 C 
BRANCH  16  17
ATOM     17  C   UNL     1     -36.205  22.971   3.983  0.00  0.00    +0.044 C 
BRANCH  17  18
ATOM     18  C   UNL     1     -35.351  23.264   5.237  0.00  0.00    +0.004 C 
ATOM     19  C   UNL     1     -35.350  22.164   6.290  0.00  0.00    +0.000 C 
ENDBRANCH  17  18
BRANCH  17  20
ATOM     20  C   UNL     1     -35.380  22.638   2.724  0.00  0.00    +0.004 C 
ATOM     21  C   UNL     1     -35.420  21.168   2.332  0.00  0.00    +0.000 C 
ENDBRANCH  17  20
ENDBRANCH  16  17
ENDBRANCH  15  16
ENDBRANCH  14  15
ENDBRANCH  10  14
BRANCH   7  22
ATOM     22  O   UNL     1     -33.332  30.339   4.018  0.00  0.00    -0.478 OA
BRANCH  22  24
ATOM     23 CL   UNL     1     -29.209  28.664   6.613  0.00  0.00    -0.081 Cl
ATOM     24  C   UNL     1     -32.043  30.527   4.437  0.00  0.00    +0.149 C 
ATOM     25  C   UNL     1     -31.388  29.579   5.224  0.00  0.00    +0.110 C 
ATOM     26  C   UNL     1     -31.381  31.696   4.060  0.00  0.00    +0.038 C 
ATOM     27  C   UNL     1     -30.073  29.801   5.635  0.00  0.00    +0.070 C 
ATOM     28  C   UNL     1     -30.067  31.919   4.471  0.00  0.00    +0.004 C 
ATOM     29  C   UNL     1     -29.413  30.970   5.258  0.00  0.00    +0.012 C 
BRANCH  25  34
ATOM     30  N   UNL     1     -32.575  28.161   6.827  0.00  0.00    -0.110 NA
ATOM     31  N   UNL     1     -32.312  27.356   4.727  0.00  0.00    -0.087 NA
ATOM     32  N   UNL     1     -33.105  26.945   6.638  0.00  0.00    -0.140 N 
ATOM     33  N   UNL     1     -32.973  26.428   5.409  0.00  0.00    -0.022 NA
ATOM     34  C   UNL     1     -32.090  28.377   5.602  0.00  0.00    +0.077 C 
ATOM     35  H   UNL     1     -33.565  26.458   7.360  0.00  0.00    +0.197 HD
ENDBRANCH  25  34
ENDBRANCH  22  24
ENDBRANCH   7  22
TORSDOF 9
ENDMDL
