MODEL 1
REMARK VINA RESULT:      -6.7      0.000      0.000
REMARK  Name = 194208
REMARK  10 active torsions:
REMARK  status: ('A' for Active; 'I' for Inactive)
REMARK    1  A    between atoms: N_1  and  S_3
REMARK    2  A    between atoms: N_1  and  C_19
REMARK    3  A    between atoms: S_3  and  C_8
REMARK    4  A    between atoms: C_9  and  N_16
REMARK    5  A    between atoms: C_19  and  C_22
REMARK    6  A    between atoms: N_21  and  C_24
REMARK    7  A    between atoms: C_24  and  C_27
REMARK    8  A    between atoms: N_26  and  C_29
REMARK    9  A    between atoms: C_29  and  C_31
REMARK   10  A    between atoms: C_31  and  O_32
REMARK                            x       y       z     vdW  Elec       q    Type
REMARK                         _______ _______ _______ _____ _____    ______ ____
ROOT
ATOM      1  N   UNL     1     -36.072  22.548   2.098  0.00  0.00    -0.170 NA
ATOM      2  H   UNL     1     -36.368  22.859   1.173  0.00  0.00    +0.149 HD
ENDROOT
BRANCH   1   3
ATOM      3  S   UNL     1     -35.543  20.934   1.930  0.00  0.00    +0.061 S 
ATOM      4  O   UNL     1     -36.530  20.192   1.162  0.00  0.00    -0.153 OA
ATOM      5  O   UNL     1     -35.118  20.440   3.228  0.00  0.00    -0.153 OA
BRANCH   3   8
ATOM      6  C   UNL     1     -33.145  20.104   0.792  0.00  0.00    +0.020 C 
ATOM      7  C   UNL     1     -32.010  20.336  -0.022  0.00  0.00    +0.015 C 
ATOM      8  C   UNL     1     -34.101  21.122   0.942  0.00  0.00    +0.122 C 
ATOM      9  C   UNL     1     -31.054  19.319  -0.173  0.00  0.00    +0.048 C 
ATOM     10  C   UNL     1     -33.289  18.863   1.431  0.00  0.00    +0.001 C 
ATOM     11  C   UNL     1     -31.866  21.578  -0.661  0.00  0.00    +0.001 C 
ATOM     12  C   UNL     1     -33.941  22.350   0.300  0.00  0.00    +0.020 C 
ATOM     13  C   UNL     1     -31.213  18.091   0.470  0.00  0.00    +0.015 C 
ATOM     14  C   UNL     1     -32.826  22.578  -0.501  0.00  0.00    +0.001 C 
ATOM     15  C   UNL     1     -32.328  17.863   1.271  0.00  0.00    +0.001 C 
BRANCH   9  16
ATOM     16  N   UNL     1     -29.900  19.498  -0.975  0.00  0.00    -0.304 N 
ATOM     17  C   UNL     1     -28.674  19.991  -0.386  0.00  0.00    +0.112 C 
ATOM     18  C   UNL     1     -29.936  19.177  -2.385  0.00  0.00    +0.112 C 
ENDBRANCH   9  16
ENDBRANCH   3   8
ENDBRANCH   1   3
BRANCH   1  19
ATOM     19  C   UNL     1     -37.168  22.872   3.024  0.00  0.00    +0.176 C 
BRANCH  19  22
ATOM     20  O   UNL     1     -36.290  22.808   5.271  0.00  0.00    -0.274 OA
ATOM     21  N   UNL     1     -36.486  24.851   4.181  0.00  0.00    -0.295 N 
ATOM     22  C   UNL     1     -36.601  23.473   4.285  0.00  0.00    +0.241 C 
ATOM     23  H   UNL     1     -36.766  25.282   3.342  0.00  0.00    +0.150 HD
BRANCH  21  24
ATOM     24  C   UNL     1     -35.974  25.687   5.244  0.00  0.00    +0.176 C 
BRANCH  24  27
ATOM     25  O   UNL     1     -33.679  24.962   5.084  0.00  0.00    -0.273 OA
ATOM     26  N   UNL     1     -34.178  27.222   4.875  0.00  0.00    -0.294 N 
ATOM     27  C   UNL     1     -34.491  25.883   5.063  0.00  0.00    +0.243 C 
ATOM     28  H   UNL     1     -34.910  27.879   4.876  0.00  0.00    +0.150 HD
BRANCH  26  29
ATOM     29  C   UNL     1     -32.828  27.701   4.679  0.00  0.00    +0.200 C 
BRANCH  29  31
ATOM     30  O   UNL     1     -32.024  29.316   6.271  0.00  0.00    -0.248 OA
ATOM     31  C   UNL     1     -32.168  28.141   5.960  0.00  0.00    +0.334 C 
BRANCH  31  32
ATOM     32  O   UNL     1     -31.749  27.112   6.734  0.00  0.00    -0.479 OA
ATOM     33  H   UNL     1     -31.180  27.275   7.460  0.00  0.00    +0.295 HD
ENDBRANCH  31  32
ENDBRANCH  29  31
ENDBRANCH  26  29
ENDBRANCH  24  27
ENDBRANCH  21  24
ENDBRANCH  19  22
ENDBRANCH   1  19
TORSDOF 10
ENDMDL
MODEL 2
REMARK VINA RESULT:      -6.7      4.580      7.109
REMARK  Name = 194208
REMARK  10 active torsions:
REMARK  status: ('A' for Active; 'I' for Inactive)
REMARK    1  A    between atoms: N_1  and  S_3
REMARK    2  A    between atoms: N_1  and  C_19
REMARK    3  A    between atoms: S_3  and  C_8
REMARK    4  A    between atoms: C_9  and  N_16
REMARK    5  A    between atoms: C_19  and  C_22
REMARK    6  A    between atoms: N_21  and  C_24
REMARK    7  A    between atoms: C_24  and  C_27
REMARK    8  A    between atoms: N_26  and  C_29
REMARK    9  A    between atoms: C_29  and  C_31
REMARK   10  A    between atoms: C_31  and  O_32
REMARK                            x       y       z     vdW  Elec       q    Type
REMARK                         _______ _______ _______ _____ _____    ______ ____
ROOT
ATOM      1  N   UNL     1     -39.033  24.533   1.395  0.00  0.00    -0.170 NA
ATOM      2  H   UNL     1     -38.217  23.970   1.154  0.00  0.00    +0.149 HD
ENDROOT
BRANCH   1   3
ATOM      3  S   UNL     1     -38.662  25.335   2.856  0.00  0.00    +0.061 S 
ATOM      4  O   UNL     1     -38.397  24.343   3.885  0.00  0.00    -0.153 OA
ATOM      5  O   UNL     1     -39.653  26.371   3.089  0.00  0.00    -0.153 OA
BRANCH   3   8
ATOM      6  C   UNL     1     -36.093  26.266   3.377  0.00  0.00    +0.020 C 
ATOM      7  C   UNL     1     -34.907  26.927   2.979  0.00  0.00    +0.015 C 
ATOM      8  C   UNL     1     -37.149  26.137   2.460  0.00  0.00    +0.122 C 
ATOM      9  C   UNL     1     -33.851  27.056   3.896  0.00  0.00    +0.048 C 
ATOM     10  C   UNL     1     -36.190  25.754   4.681  0.00  0.00    +0.001 C 
ATOM     11  C   UNL     1     -34.811  27.439   1.675  0.00  0.00    +0.001 C 
ATOM     12  C   UNL     1     -37.036  26.652   1.168  0.00  0.00    +0.020 C 
ATOM     13  C   UNL     1     -33.963  26.541   5.188  0.00  0.00    +0.015 C 
ATOM     14  C   UNL     1     -35.869  27.301   0.775  0.00  0.00    +0.001 C 
ATOM     15  C   UNL     1     -35.131  25.892   5.580  0.00  0.00    +0.001 C 
BRANCH   9  16
ATOM     16  N   UNL     1     -32.642  27.708   3.549  0.00  0.00    -0.304 N 
ATOM     17  C   UNL     1     -32.417  29.081   3.945  0.00  0.00    +0.112 C 
ATOM     18  C   UNL     1     -31.620  27.001   2.810  0.00  0.00    +0.112 C 
ENDBRANCH   9  16
ENDBRANCH   3   8
ENDBRANCH   1   3
BRANCH   1  19
ATOM     19  C   UNL     1     -40.201  23.642   1.321  0.00  0.00    +0.176 C 
BRANCH  19  22
ATOM     20  O   UNL     1     -40.495  21.257   1.106  0.00  0.00    -0.274 OA
ATOM     21  N   UNL     1     -38.376  22.110   1.535  0.00  0.00    -0.295 N 
ATOM     22  C   UNL     1     -39.741  22.207   1.302  0.00  0.00    +0.241 C 
ATOM     23  H   UNL     1     -37.866  22.939   1.680  0.00  0.00    +0.150 HD
BRANCH  21  24
ATOM     24  C   UNL     1     -37.666  20.851   1.576  0.00  0.00    +0.176 C 
BRANCH  24  27
ATOM     25  O   UNL     1     -35.360  20.361   2.092  0.00  0.00    -0.273 OA
ATOM     26  N   UNL     1     -36.463  22.031   3.274  0.00  0.00    -0.294 N 
ATOM     27  C   UNL     1     -36.366  21.029   2.318  0.00  0.00    +0.243 C 
ATOM     28  H   UNL     1     -37.320  22.505   3.371  0.00  0.00    +0.150 HD
BRANCH  26  29
ATOM     29  C   UNL     1     -35.367  22.413   4.136  0.00  0.00    +0.200 C 
BRANCH  29  31
ATOM     30  O   UNL     1     -35.915  22.516   6.477  0.00  0.00    -0.248 OA
ATOM     31  C   UNL     1     -35.497  21.860   5.531  0.00  0.00    +0.334 C 
BRANCH  31  32
ATOM     32  O   UNL     1     -35.106  20.568   5.641  0.00  0.00    -0.479 OA
ATOM     33  H   UNL     1     -35.732  19.880   5.529  0.00  0.00    +0.295 HD
ENDBRANCH  31  32
ENDBRANCH  29  31
ENDBRANCH  26  29
ENDBRANCH  24  27
ENDBRANCH  21  24
ENDBRANCH  19  22
ENDBRANCH   1  19
TORSDOF 10
ENDMDL
MODEL 3
REMARK VINA RESULT:      -6.7      3.736      5.861
REMARK  Name = 194208
REMARK  10 active torsions:
REMARK  status: ('A' for Active; 'I' for Inactive)
REMARK    1  A    between atoms: N_1  and  S_3
REMARK    2  A    between atoms: N_1  and  C_19
REMARK    3  A    between atoms: S_3  and  C_8
REMARK    4  A    between atoms: C_9  and  N_16
REMARK    5  A    between atoms: C_19  and  C_22
REMARK    6  A    between atoms: N_21  and  C_24
REMARK    7  A    between atoms: C_24  and  C_27
REMARK    8  A    between atoms: N_26  and  C_29
REMARK    9  A    between atoms: C_29  and  C_31
REMARK   10  A    between atoms: C_31  and  O_32
REMARK                            x       y       z     vdW  Elec       q    Type
REMARK                         _______ _______ _______ _____ _____    ______ ____
ROOT
ATOM      1  N   UNL     1     -35.268  27.382   4.040  0.00  0.00    -0.170 NA
ATOM      2  H   UNL     1     -35.473  28.128   4.703  0.00  0.00    +0.149 HD
ENDROOT
BRANCH   1   3
ATOM      3  S   UNL     1     -34.008  26.452   4.720  0.00  0.00    +0.061 S 
ATOM      4  O   UNL     1     -33.956  26.704   6.151  0.00  0.00    -0.153 OA
ATOM      5  O   UNL     1     -32.811  26.618   3.913  0.00  0.00    -0.153 OA
BRANCH   3   8
ATOM      6  C   UNL     1     -34.595  24.192   3.207  0.00  0.00    +0.020 C 
ATOM      7  C   UNL     1     -35.079  22.867   3.090  0.00  0.00    +0.015 C 
ATOM      8  C   UNL     1     -34.587  24.811   4.468  0.00  0.00    +0.122 C 
ATOM      9  C   UNL     1     -35.088  22.249   1.829  0.00  0.00    +0.048 C 
ATOM     10  C   UNL     1     -34.137  24.861   2.061  0.00  0.00    +0.001 C 
ATOM     11  C   UNL     1     -35.538  22.200   4.237  0.00  0.00    +0.001 C 
ATOM     12  C   UNL     1     -35.047  24.133   5.597  0.00  0.00    +0.020 C 
ATOM     13  C   UNL     1     -34.628  22.927   0.700  0.00  0.00    +0.015 C 
ATOM     14  C   UNL     1     -35.521  22.830   5.482  0.00  0.00    +0.001 C 
ATOM     15  C   UNL     1     -34.153  24.230   0.815  0.00  0.00    +0.001 C 
BRANCH   9  16
ATOM     16  N   UNL     1     -35.561  20.925   1.656  0.00  0.00    -0.304 N 
ATOM     17  C   UNL     1     -36.970  20.677   1.444  0.00  0.00    +0.112 C 
ATOM     18  C   UNL     1     -34.636  19.813   1.675  0.00  0.00    +0.112 C 
ENDBRANCH   9  16
ENDBRANCH   3   8
ENDBRANCH   1   3
BRANCH   1  19
ATOM     19  C   UNL     1     -35.086  28.019   2.726  0.00  0.00    +0.176 C 
BRANCH  19  22
ATOM     20  O   UNL     1     -35.029  30.329   3.422  0.00  0.00    -0.274 OA
ATOM     21  N   UNL     1     -33.154  29.394   2.417  0.00  0.00    -0.295 N 
ATOM     22  C   UNL     1     -34.452  29.374   2.906  0.00  0.00    +0.241 C 
ATOM     23  H   UNL     1     -32.789  28.569   2.023  0.00  0.00    +0.150 HD
BRANCH  21  24
ATOM     24  C   UNL     1     -32.308  30.567   2.457  0.00  0.00    +0.176 C 
BRANCH  24  27
ATOM     25  O   UNL     1     -31.262  31.577   4.381  0.00  0.00    -0.273 OA
ATOM     26  N   UNL     1     -31.071  29.284   4.052  0.00  0.00    -0.294 N 
ATOM     27  C   UNL     1     -31.500  30.564   3.729  0.00  0.00    +0.243 C 
ATOM     28  H   UNL     1     -31.321  28.542   3.456  0.00  0.00    +0.150 HD
BRANCH  26  29
ATOM     29  C   UNL     1     -30.273  28.987   5.221  0.00  0.00    +0.200 C 
BRANCH  29  31
ATOM     30  O   UNL     1     -31.660  29.489   7.123  0.00  0.00    -0.248 OA
ATOM     31  C   UNL     1     -31.106  28.645   6.429  0.00  0.00    +0.334 C 
BRANCH  31  32
ATOM     32  O   UNL     1     -31.183  27.316   6.675  0.00  0.00    -0.479 OA
ATOM     33  H   UNL     1     -31.104  26.705   5.970  0.00  0.00    +0.295 HD
ENDBRANCH  31  32
ENDBRANCH  29  31
ENDBRANCH  26  29
ENDBRANCH  24  27
ENDBRANCH  21  24
ENDBRANCH  19  22
ENDBRANCH   1  19
TORSDOF 10
ENDMDL
MODEL 4
REMARK VINA RESULT:      -6.6      3.747      6.075
REMARK  Name = 194208
REMARK  10 active torsions:
REMARK  status: ('A' for Active; 'I' for Inactive)
REMARK    1  A    between atoms: N_1  and  S_3
REMARK    2  A    between atoms: N_1  and  C_19
REMARK    3  A    between atoms: S_3  and  C_8
REMARK    4  A    between atoms: C_9  and  N_16
REMARK    5  A    between atoms: C_19  and  C_22
REMARK    6  A    between atoms: N_21  and  C_24
REMARK    7  A    between atoms: C_24  and  C_27
REMARK    8  A    between atoms: N_26  and  C_29
REMARK    9  A    between atoms: C_29  and  C_31
REMARK   10  A    between atoms: C_31  and  O_32
REMARK                            x       y       z     vdW  Elec       q    Type
REMARK                         _______ _______ _______ _____ _____    ______ ____
ROOT
ATOM      1  N   UNL     1     -33.218  26.365   5.170  0.00  0.00    -0.170 NA
ATOM      2  H   UNL     1     -32.521  26.699   4.506  0.00  0.00    +0.149 HD
ENDROOT
BRANCH   1   3
ATOM      3  S   UNL     1     -34.746  26.663   4.471  0.00  0.00    +0.061 S 
ATOM      4  O   UNL     1     -34.679  27.892   3.696  0.00  0.00    -0.153 OA
ATOM      5  O   UNL     1     -35.770  26.507   5.490  0.00  0.00    -0.153 OA
BRANCH   3   8
ATOM      6  C   UNL     1     -35.053  23.986   3.783  0.00  0.00    +0.020 C 
ATOM      7  C   UNL     1     -35.178  22.957   2.818  0.00  0.00    +0.015 C 
ATOM      8  C   UNL     1     -34.909  25.315   3.354  0.00  0.00    +0.122 C 
ATOM      9  C   UNL     1     -35.322  21.628   3.247  0.00  0.00    +0.048 C 
ATOM     10  C   UNL     1     -35.076  23.654   5.147  0.00  0.00    +0.001 C 
ATOM     11  C   UNL     1     -35.155  23.289   1.454  0.00  0.00    +0.001 C 
ATOM     12  C   UNL     1     -34.887  25.626   1.994  0.00  0.00    +0.020 C 
ATOM     13  C   UNL     1     -35.343  21.316   4.606  0.00  0.00    +0.015 C 
ATOM     14  C   UNL     1     -35.011  24.616   1.046  0.00  0.00    +0.001 C 
ATOM     15  C   UNL     1     -35.220  22.327   5.555  0.00  0.00    +0.001 C 
BRANCH   9  16
ATOM     16  N   UNL     1     -35.451  20.561   2.324  0.00  0.00    -0.304 N 
ATOM     17  C   UNL     1     -34.278  19.843   1.874  0.00  0.00    +0.112 C 
ATOM     18  C   UNL     1     -36.756  20.172   1.836  0.00  0.00    +0.112 C 
ENDBRANCH   9  16
ENDBRANCH   3   8
ENDBRANCH   1   3
BRANCH   1  19
ATOM     19  C   UNL     1     -32.878  26.952   6.475  0.00  0.00    +0.176 C 
BRANCH  19  22
ATOM     20  O   UNL     1     -30.602  27.742   6.335  0.00  0.00    -0.274 OA
ATOM     21  N   UNL     1     -32.351  29.252   6.085  0.00  0.00    -0.295 N 
ATOM     22  C   UNL     1     -31.804  27.994   6.295  0.00  0.00    +0.241 C 
ATOM     23  H   UNL     1     -33.331  29.340   6.072  0.00  0.00    +0.150 HD
BRANCH  21  24
ATOM     24  C   UNL     1     -31.552  30.441   5.884  0.00  0.00    +0.176 C 
BRANCH  24  27
ATOM     25  O   UNL     1     -31.050  31.754   3.924  0.00  0.00    -0.273 OA
ATOM     26  N   UNL     1     -33.054  30.580   4.028  0.00  0.00    -0.294 N 
ATOM     27  C   UNL     1     -31.827  31.008   4.515  0.00  0.00    +0.243 C 
ATOM     28  H   UNL     1     -33.597  29.980   4.588  0.00  0.00    +0.150 HD
BRANCH  26  29
ATOM     29  C   UNL     1     -33.574  30.972   2.737  0.00  0.00    +0.200 C 
BRANCH  29  31
ATOM     30  O   UNL     1     -35.664  31.763   1.843  0.00  0.00    -0.248 OA
ATOM     31  C   UNL     1     -35.064  31.199   2.749  0.00  0.00    +0.334 C 
BRANCH  31  32
ATOM     32  O   UNL     1     -35.676  30.720   3.858  0.00  0.00    -0.479 OA
ATOM     33  H   UNL     1     -36.356  31.217   4.269  0.00  0.00    +0.295 HD
ENDBRANCH  31  32
ENDBRANCH  29  31
ENDBRANCH  26  29
ENDBRANCH  24  27
ENDBRANCH  21  24
ENDBRANCH  19  22
ENDBRANCH   1  19
TORSDOF 10
ENDMDL
MODEL 5
REMARK VINA RESULT:      -6.6      3.647      6.265
REMARK  Name = 194208
REMARK  10 active torsions:
REMARK  status: ('A' for Active; 'I' for Inactive)
REMARK    1  A    between atoms: N_1  and  S_3
REMARK    2  A    between atoms: N_1  and  C_19
REMARK    3  A    between atoms: S_3  and  C_8
REMARK    4  A    between atoms: C_9  and  N_16
REMARK    5  A    between atoms: C_19  and  C_22
REMARK    6  A    between atoms: N_21  and  C_24
REMARK    7  A    between atoms: C_24  and  C_27
REMARK    8  A    between atoms: N_26  and  C_29
REMARK    9  A    between atoms: C_29  and  C_31
REMARK   10  A    between atoms: C_31  and  O_32
REMARK                            x       y       z     vdW  Elec       q    Type
REMARK                         _______ _______ _______ _____ _____    ______ ____
ROOT
ATOM      1  N   UNL     1     -33.072  27.824   3.075  0.00  0.00    -0.170 NA
ATOM      2  H   UNL     1     -33.419  27.633   2.136  0.00  0.00    +0.149 HD
ENDROOT
BRANCH   1   3
ATOM      3  S   UNL     1     -33.870  26.740   4.125  0.00  0.00    +0.061 S 
ATOM      4  O   UNL     1     -35.141  27.321   4.525  0.00  0.00    -0.153 OA
ATOM      5  O   UNL     1     -32.931  26.288   5.138  0.00  0.00    -0.153 OA
BRANCH   3   8
ATOM      6  C   UNL     1     -34.669  24.141   3.539  0.00  0.00    +0.020 C 
ATOM      7  C   UNL     1     -34.905  23.092   2.619  0.00  0.00    +0.015 C 
ATOM      8  C   UNL     1     -34.195  25.376   3.066  0.00  0.00    +0.122 C 
ATOM      9  C   UNL     1     -35.379  21.858   3.092  0.00  0.00    +0.048 C 
ATOM     10  C   UNL     1     -34.913  23.925   4.905  0.00  0.00    +0.001 C 
ATOM     11  C   UNL     1     -34.661  23.309   1.253  0.00  0.00    +0.001 C 
ATOM     12  C   UNL     1     -33.957  25.573   1.705  0.00  0.00    +0.020 C 
ATOM     13  C   UNL     1     -35.617  21.660   4.452  0.00  0.00    +0.015 C 
ATOM     14  C   UNL     1     -34.191  24.542   0.800  0.00  0.00    +0.001 C 
ATOM     15  C   UNL     1     -35.383  22.691   5.357  0.00  0.00    +0.001 C 
BRANCH   9  16
ATOM     16  N   UNL     1     -35.632  20.775   2.214  0.00  0.00    -0.304 N 
ATOM     17  C   UNL     1     -34.571  19.854   1.871  0.00  0.00    +0.112 C 
ATOM     18  C   UNL     1     -36.956  20.574   1.668  0.00  0.00    +0.112 C 
ENDBRANCH   9  16
ENDBRANCH   3   8
ENDBRANCH   1   3
BRANCH   1  19
ATOM     19  C   UNL     1     -33.192  29.275   3.285  0.00  0.00    +0.176 C 
BRANCH  19  22
ATOM     20  O   UNL     1     -35.187  30.618   3.473  0.00  0.00    -0.274 OA
ATOM     21  N   UNL     1     -35.041  29.022   1.790  0.00  0.00    -0.295 N 
ATOM     22  C   UNL     1     -34.572  29.730   2.886  0.00  0.00    +0.241 C 
ATOM     23  H   UNL     1     -34.462  28.330   1.397  0.00  0.00    +0.150 HD
BRANCH  21  24
ATOM     24  C   UNL     1     -36.340  29.248   1.195  0.00  0.00    +0.176 C 
BRANCH  24  27
ATOM     25  O   UNL     1     -37.276  27.595  -0.291  0.00  0.00    -0.273 OA
ATOM     26  N   UNL     1     -37.175  27.152   1.988  0.00  0.00    -0.294 N 
ATOM     27  C   UNL     1     -36.976  27.925   0.853  0.00  0.00    +0.243 C 
ATOM     28  H   UNL     1     -36.896  27.517   2.858  0.00  0.00    +0.150 HD
BRANCH  26  29
ATOM     29  C   UNL     1     -37.772  25.836   1.956  0.00  0.00    +0.200 C 
BRANCH  29  31
ATOM     30  O   UNL     1     -38.776  24.302   3.515  0.00  0.00    -0.248 OA
ATOM     31  C   UNL     1     -38.102  25.307   3.327  0.00  0.00    +0.334 C 
BRANCH  31  32
ATOM     32  O   UNL     1     -37.583  26.050   4.334  0.00  0.00    -0.479 OA
ATOM     33  H   UNL     1     -36.974  25.665   4.933  0.00  0.00    +0.295 HD
ENDBRANCH  31  32
ENDBRANCH  29  31
ENDBRANCH  26  29
ENDBRANCH  24  27
ENDBRANCH  21  24
ENDBRANCH  19  22
ENDBRANCH   1  19
TORSDOF 10
ENDMDL
MODEL 6
REMARK VINA RESULT:      -6.5      3.911      6.711
REMARK  Name = 194208
REMARK  10 active torsions:
REMARK  status: ('A' for Active; 'I' for Inactive)
REMARK    1  A    between atoms: N_1  and  S_3
REMARK    2  A    between atoms: N_1  and  C_19
REMARK    3  A    between atoms: S_3  and  C_8
REMARK    4  A    between atoms: C_9  and  N_16
REMARK    5  A    between atoms: C_19  and  C_22
REMARK    6  A    between atoms: N_21  and  C_24
REMARK    7  A    between atoms: C_24  and  C_27
REMARK    8  A    between atoms: N_26  and  C_29
REMARK    9  A    between atoms: C_29  and  C_31
REMARK   10  A    between atoms: C_31  and  O_32
REMARK                            x       y       z     vdW  Elec       q    Type
REMARK                         _______ _______ _______ _____ _____    ______ ____
ROOT
ATOM      1  N   UNL     1     -34.572  27.892   3.890  0.00  0.00    -0.170 NA
ATOM      2  H   UNL     1     -35.070  28.345   4.655  0.00  0.00    +0.149 HD
ENDROOT
BRANCH   1   3
ATOM      3  S   UNL     1     -33.464  26.805   4.600  0.00  0.00    +0.061 S 
ATOM      4  O   UNL     1     -33.323  27.129   6.011  0.00  0.00    -0.153 OA
ATOM      5  O   UNL     1     -32.283  26.718   3.757  0.00  0.00    -0.153 OA
BRANCH   3   8
ATOM      6  C   UNL     1     -34.494  24.605   3.246  0.00  0.00    +0.020 C 
ATOM      7  C   UNL     1     -35.194  23.375   3.226  0.00  0.00    +0.015 C 
ATOM      8  C   UNL     1     -34.317  25.274   4.468  0.00  0.00    +0.122 C 
ATOM      9  C   UNL     1     -35.371  22.706   2.004  0.00  0.00    +0.048 C 
ATOM     10  C   UNL     1     -33.993  25.130   2.044  0.00  0.00    +0.001 C 
ATOM     11  C   UNL     1     -35.696  22.850   4.428  0.00  0.00    +0.001 C 
ATOM     12  C   UNL     1     -34.823  24.738   5.653  0.00  0.00    +0.020 C 
ATOM     13  C   UNL     1     -34.866  23.241   0.819  0.00  0.00    +0.015 C 
ATOM     14  C   UNL     1     -35.510  23.528   5.633  0.00  0.00    +0.001 C 
ATOM     15  C   UNL     1     -34.178  24.451   0.838  0.00  0.00    +0.001 C 
BRANCH   9  16
ATOM     16  N   UNL     1     -36.064  21.472   1.927  0.00  0.00    -0.304 N 
ATOM     17  C   UNL     1     -37.497  21.454   1.733  0.00  0.00    +0.112 C 
ATOM     18  C   UNL     1     -35.341  20.223   2.027  0.00  0.00    +0.112 C 
ENDBRANCH   9  16
ENDBRANCH   3   8
ENDBRANCH   1   3
BRANCH   1  19
ATOM     19  C   UNL     1     -34.088  28.963   3.005  0.00  0.00    +0.176 C 
BRANCH  19  22
ATOM     20  O   UNL     1     -34.062  28.701   0.607  0.00  0.00    -0.274 OA
ATOM     21  N   UNL     1     -36.099  28.818   1.718  0.00  0.00    -0.295 N 
ATOM     22  C   UNL     1     -34.714  28.812   1.642  0.00  0.00    +0.241 C 
ATOM     23  H   UNL     1     -36.519  28.913   2.604  0.00  0.00    +0.150 HD
BRANCH  21  24
ATOM     24  C   UNL     1     -36.958  28.693   0.562  0.00  0.00    +0.176 C 
BRANCH  24  27
ATOM     25  O   UNL     1     -39.138  27.662   0.482  0.00  0.00    -0.273 OA
ATOM     26  N   UNL     1     -37.350  26.480   1.382  0.00  0.00    -0.294 N 
ATOM     27  C   UNL     1     -37.951  27.581   0.789  0.00  0.00    +0.243 C 
ATOM     28  H   UNL     1     -36.388  26.524   1.585  0.00  0.00    +0.150 HD
BRANCH  26  29
ATOM     29  C   UNL     1     -38.068  25.270   1.717  0.00  0.00    +0.200 C 
BRANCH  29  31
ATOM     30  O   UNL     1     -39.111  24.301   3.657  0.00  0.00    -0.248 OA
ATOM     31  C   UNL     1     -38.368  25.155   3.189  0.00  0.00    +0.334 C 
BRANCH  31  32
ATOM     32  O   UNL     1     -37.739  26.085   3.945  0.00  0.00    -0.479 OA
ATOM     33  H   UNL     1     -38.194  26.863   4.203  0.00  0.00    +0.295 HD
ENDBRANCH  31  32
ENDBRANCH  29  31
ENDBRANCH  26  29
ENDBRANCH  24  27
ENDBRANCH  21  24
ENDBRANCH  19  22
ENDBRANCH   1  19
TORSDOF 10
ENDMDL
MODEL 7
REMARK VINA RESULT:      -6.5      4.124      6.327
REMARK  Name = 194208
REMARK  10 active torsions:
REMARK  status: ('A' for Active; 'I' for Inactive)
REMARK    1  A    between atoms: N_1  and  S_3
REMARK    2  A    between atoms: N_1  and  C_19
REMARK    3  A    between atoms: S_3  and  C_8
REMARK    4  A    between atoms: C_9  and  N_16
REMARK    5  A    between atoms: C_19  and  C_22
REMARK    6  A    between atoms: N_21  and  C_24
REMARK    7  A    between atoms: C_24  and  C_27
REMARK    8  A    between atoms: N_26  and  C_29
REMARK    9  A    between atoms: C_29  and  C_31
REMARK   10  A    between atoms: C_31  and  O_32
REMARK                            x       y       z     vdW  Elec       q    Type
REMARK                         _______ _______ _______ _____ _____    ______ ____
ROOT
ATOM      1  N   UNL     1     -34.631  27.912   3.563  0.00  0.00    -0.170 NA
ATOM      2  H   UNL     1     -35.164  28.362   4.307  0.00  0.00    +0.149 HD
ENDROOT
BRANCH   1   3
ATOM      3  S   UNL     1     -33.460  26.930   4.323  0.00  0.00    +0.061 S 
ATOM      4  O   UNL     1     -33.324  27.344   5.710  0.00  0.00    -0.153 OA
ATOM      5  O   UNL     1     -32.284  26.855   3.473  0.00  0.00    -0.153 OA
BRANCH   3   8
ATOM      6  C   UNL     1     -34.419  24.619   3.107  0.00  0.00    +0.020 C 
ATOM      7  C   UNL     1     -35.050  23.354   3.168  0.00  0.00    +0.015 C 
ATOM      8  C   UNL     1     -34.230  25.350   4.291  0.00  0.00    +0.122 C 
ATOM      9  C   UNL     1     -35.238  22.623   1.984  0.00  0.00    +0.048 C 
ATOM     10  C   UNL     1     -33.997  25.117   1.864  0.00  0.00    +0.001 C 
ATOM     11  C   UNL     1     -35.472  22.856   4.412  0.00  0.00    +0.001 C 
ATOM     12  C   UNL     1     -34.657  24.840   5.518  0.00  0.00    +0.020 C 
ATOM     13  C   UNL     1     -34.812  23.132   0.757  0.00  0.00    +0.015 C 
ATOM     14  C   UNL     1     -35.276  23.595   5.579  0.00  0.00    +0.001 C 
ATOM     15  C   UNL     1     -34.193  24.377   0.697  0.00  0.00    +0.001 C 
BRANCH   9  16
ATOM     16  N   UNL     1     -35.863  21.351   1.988  0.00  0.00    -0.304 N 
ATOM     17  C   UNL     1     -35.073  20.152   2.161  0.00  0.00    +0.112 C 
ATOM     18  C   UNL     1     -37.298  21.245   1.834  0.00  0.00    +0.112 C 
ENDBRANCH   9  16
ENDBRANCH   3   8
ENDBRANCH   1   3
BRANCH   1  19
ATOM     19  C   UNL     1     -34.211  28.976   2.638  0.00  0.00    +0.176 C 
BRANCH  19  22
ATOM     20  O   UNL     1     -34.194  30.959   4.012  0.00  0.00    -0.274 OA
ATOM     21  N   UNL     1     -32.177  30.009   3.357  0.00  0.00    -0.295 N 
ATOM     22  C   UNL     1     -33.561  30.093   3.414  0.00  0.00    +0.241 C 
ATOM     23  H   UNL     1     -31.774  29.270   2.847  0.00  0.00    +0.150 HD
BRANCH  21  24
ATOM     24  C   UNL     1     -31.298  30.953   4.009  0.00  0.00    +0.176 C 
BRANCH  24  27
ATOM     25  O   UNL     1     -31.600  30.441   6.348  0.00  0.00    -0.273 OA
ATOM     26  N   UNL     1     -29.598  29.883   5.308  0.00  0.00    -0.294 N 
ATOM     27  C   UNL     1     -30.881  30.410   5.352  0.00  0.00    +0.243 C 
ATOM     28  H   UNL     1     -29.109  29.911   4.454  0.00  0.00    +0.150 HD
BRANCH  26  29
ATOM     29  C   UNL     1     -28.941  29.297   6.455  0.00  0.00    +0.200 C 
BRANCH  29  31
ATOM     30  O   UNL     1     -28.345  26.970   6.591  0.00  0.00    -0.248 OA
ATOM     31  C   UNL     1     -29.222  27.824   6.603  0.00  0.00    +0.334 C 
BRANCH  31  32
ATOM     32  O   UNL     1     -30.537  27.535   6.748  0.00  0.00    -0.479 OA
ATOM     33  H   UNL     1     -30.862  27.242   7.576  0.00  0.00    +0.295 HD
ENDBRANCH  31  32
ENDBRANCH  29  31
ENDBRANCH  26  29
ENDBRANCH  24  27
ENDBRANCH  21  24
ENDBRANCH  19  22
ENDBRANCH   1  19
TORSDOF 10
ENDMDL
MODEL 8
REMARK VINA RESULT:      -6.5      4.517      7.909
REMARK  Name = 194208
REMARK  10 active torsions:
REMARK  status: ('A' for Active; 'I' for Inactive)
REMARK    1  A    between atoms: N_1  and  S_3
REMARK    2  A    between atoms: N_1  and  C_19
REMARK    3  A    between atoms: S_3  and  C_8
REMARK    4  A    between atoms: C_9  and  N_16
REMARK    5  A    between atoms: C_19  and  C_22
REMARK    6  A    between atoms: N_21  and  C_24
REMARK    7  A    between atoms: C_24  and  C_27
REMARK    8  A    between atoms: N_26  and  C_29
REMARK    9  A    between atoms: C_29  and  C_31
REMARK   10  A    between atoms: C_31  and  O_32
REMARK                            x       y       z     vdW  Elec       q    Type
REMARK                         _______ _______ _______ _____ _____    ______ ____
ROOT
ATOM      1  N   UNL     1     -34.864  23.548   3.896  0.00  0.00    -0.170 NA
ATOM      2  H   UNL     1     -33.950  23.779   4.284  0.00  0.00    +0.149 HD
ENDROOT
BRANCH   1   3
ATOM      3  S   UNL     1     -35.856  24.918   4.126  0.00  0.00    +0.061 S 
ATOM      4  O   UNL     1     -36.181  25.033   5.538  0.00  0.00    -0.153 OA
ATOM      5  O   UNL     1     -36.922  24.899   3.139  0.00  0.00    -0.153 OA
BRANCH   3   8
ATOM      6  C   UNL     1     -33.872  26.806   4.615  0.00  0.00    +0.020 C 
ATOM      7  C   UNL     1     -33.032  27.863   4.191  0.00  0.00    +0.015 C 
ATOM      8  C   UNL     1     -34.771  26.233   3.699  0.00  0.00    +0.122 C 
ATOM      9  C   UNL     1     -32.134  28.435   5.107  0.00  0.00    +0.048 C 
ATOM     10  C   UNL     1     -33.791  26.353   5.942  0.00  0.00    +0.001 C 
ATOM     11  C   UNL     1     -33.115  28.316   2.864  0.00  0.00    +0.001 C 
ATOM     12  C   UNL     1     -34.839  26.696   2.385  0.00  0.00    +0.020 C 
ATOM     13  C   UNL     1     -32.066  27.973   6.421  0.00  0.00    +0.015 C 
ATOM     14  C   UNL     1     -34.012  27.735   1.968  0.00  0.00    +0.001 C 
ATOM     15  C   UNL     1     -32.893  26.934   6.838  0.00  0.00    +0.001 C 
BRANCH   9  16
ATOM     16  N   UNL     1     -31.271  29.495   4.735  0.00  0.00    -0.304 N 
ATOM     17  C   UNL     1     -31.636  30.865   5.021  0.00  0.00    +0.112 C 
ATOM     18  C   UNL     1     -30.012  29.214   4.080  0.00  0.00    +0.112 C 
ENDBRANCH   9  16
ENDBRANCH   3   8
ENDBRANCH   1   3
BRANCH   1  19
ATOM     19  C   UNL     1     -35.254  22.251   4.469  0.00  0.00    +0.176 C 
BRANCH  19  22
ATOM     20  O   UNL     1     -35.356  20.348   2.990  0.00  0.00    -0.274 OA
ATOM     21  N   UNL     1     -37.063  21.924   2.940  0.00  0.00    -0.295 N 
ATOM     22  C   UNL     1     -35.868  21.389   3.396  0.00  0.00    +0.241 C 
ATOM     23  H   UNL     1     -37.382  22.766   3.338  0.00  0.00    +0.150 HD
BRANCH  21  24
ATOM     24  C   UNL     1     -37.867  21.306   1.908  0.00  0.00    +0.176 C 
BRANCH  24  27
ATOM     25  O   UNL     1     -40.279  21.262   1.935  0.00  0.00    -0.273 OA
ATOM     26  N   UNL     1     -39.176  23.307   1.857  0.00  0.00    -0.294 N 
ATOM     27  C   UNL     1     -39.243  21.921   1.903  0.00  0.00    +0.243 C 
ATOM     28  H   UNL     1     -38.289  23.733   1.835  0.00  0.00    +0.150 HD
BRANCH  26  29
ATOM     29  C   UNL     1     -40.346  24.156   1.839  0.00  0.00    +0.200 C 
BRANCH  29  31
ATOM     30  O   UNL     1     -40.356  26.498   2.395  0.00  0.00    -0.248 OA
ATOM     31  C   UNL     1     -40.228  25.338   2.766  0.00  0.00    +0.334 C 
BRANCH  31  32
ATOM     32  O   UNL     1     -39.966  24.995   4.050  0.00  0.00    -0.479 OA
ATOM     33  H   UNL     1     -39.852  25.662   4.698  0.00  0.00    +0.295 HD
ENDBRANCH  31  32
ENDBRANCH  29  31
ENDBRANCH  26  29
ENDBRANCH  24  27
ENDBRANCH  21  24
ENDBRANCH  19  22
ENDBRANCH   1  19
TORSDOF 10
ENDMDL
MODEL 9
REMARK VINA RESULT:      -6.5      3.725      6.048
REMARK  Name = 194208
REMARK  10 active torsions:
REMARK  status: ('A' for Active; 'I' for Inactive)
REMARK    1  A    between atoms: N_1  and  S_3
REMARK    2  A    between atoms: N_1  and  C_19
REMARK    3  A    between atoms: S_3  and  C_8
REMARK    4  A    between atoms: C_9  and  N_16
REMARK    5  A    between atoms: C_19  and  C_22
REMARK    6  A    between atoms: N_21  and  C_24
REMARK    7  A    between atoms: C_24  and  C_27
REMARK    8  A    between atoms: N_26  and  C_29
REMARK    9  A    between atoms: C_29  and  C_31
REMARK   10  A    between atoms: C_31  and  O_32
REMARK                            x       y       z     vdW  Elec       q    Type
REMARK                         _______ _______ _______ _____ _____    ______ ____
ROOT
ATOM      1  N   UNL     1     -34.426  27.811   3.753  0.00  0.00    -0.170 NA
ATOM      2  H   UNL     1     -34.930  28.553   4.238  0.00  0.00    +0.149 HD
ENDROOT
BRANCH   1   3
ATOM      3  S   UNL     1     -34.554  26.413   4.723  0.00  0.00    +0.061 S 
ATOM      4  O   UNL     1     -35.764  26.504   5.524  0.00  0.00    -0.153 OA
ATOM      5  O   UNL     1     -33.276  26.170   5.371  0.00  0.00    -0.153 OA
BRANCH   3   8
ATOM      6  C   UNL     1     -34.974  23.802   3.859  0.00  0.00    +0.020 C 
ATOM      7  C   UNL     1     -35.148  22.848   2.829  0.00  0.00    +0.015 C 
ATOM      8  C   UNL     1     -34.780  25.152   3.520  0.00  0.00    +0.122 C 
ATOM      9  C   UNL     1     -35.342  21.499   3.168  0.00  0.00    +0.048 C 
ATOM     10  C   UNL     1     -34.997  23.380   5.198  0.00  0.00    +0.001 C 
ATOM     11  C   UNL     1     -35.124  23.271   1.490  0.00  0.00    +0.001 C 
ATOM     12  C   UNL     1     -34.759  25.553   2.184  0.00  0.00    +0.020 C 
ATOM     13  C   UNL     1     -35.362  21.096   4.504  0.00  0.00    +0.015 C 
ATOM     14  C   UNL     1     -34.932  24.616   1.171  0.00  0.00    +0.001 C 
ATOM     15  C   UNL     1     -35.190  22.035   5.517  0.00  0.00    +0.001 C 
BRANCH   9  16
ATOM     16  N   UNL     1     -35.521  20.503   2.177  0.00  0.00    -0.304 N 
ATOM     17  C   UNL     1     -34.386  19.753   1.685  0.00  0.00    +0.112 C 
ATOM     18  C   UNL     1     -36.842  20.219   1.660  0.00  0.00    +0.112 C 
ENDBRANCH   9  16
ENDBRANCH   3   8
ENDBRANCH   1   3
BRANCH   1  19
ATOM     19  C   UNL     1     -33.101  28.352   3.412  0.00  0.00    +0.176 C 
BRANCH  19  22
ATOM     20  O   UNL     1     -33.050  30.506   4.498  0.00  0.00    -0.274 OA
ATOM     21  N   UNL     1     -31.804  28.754   5.381  0.00  0.00    -0.295 N 
ATOM     22  C   UNL     1     -32.671  29.338   4.468  0.00  0.00    +0.241 C 
ATOM     23  H   UNL     1     -31.567  27.806   5.261  0.00  0.00    +0.150 HD
BRANCH  21  24
ATOM     24  C   UNL     1     -31.231  29.469   6.500  0.00  0.00    +0.176 C 
BRANCH  24  27
ATOM     25  O   UNL     1     -29.015  30.057   5.750  0.00  0.00    -0.273 OA
ATOM     26  N   UNL     1     -29.276  28.356   7.312  0.00  0.00    -0.294 N 
ATOM     27  C   UNL     1     -29.729  29.352   6.458  0.00  0.00    +0.243 C 
ATOM     28  H   UNL     1     -29.939  27.850   7.835  0.00  0.00    +0.150 HD
BRANCH  26  29
ATOM     29  C   UNL     1     -27.878  28.023   7.470  0.00  0.00    +0.200 C 
BRANCH  29  31
ATOM     30  O   UNL     1     -27.224  26.845   5.476  0.00  0.00    -0.248 OA
ATOM     31  C   UNL     1     -27.470  26.810   6.676  0.00  0.00    +0.334 C 
BRANCH  31  32
ATOM     32  O   UNL     1     -27.401  25.676   7.414  0.00  0.00    -0.479 OA
ATOM     33  H   UNL     1     -26.574  25.379   7.738  0.00  0.00    +0.295 HD
ENDBRANCH  31  32
ENDBRANCH  29  31
ENDBRANCH  26  29
ENDBRANCH  24  27
ENDBRANCH  21  24
ENDBRANCH  19  22
ENDBRANCH   1  19
TORSDOF 10
ENDMDL
