MODEL 1
REMARK VINA RESULT:      -5.6      0.000      0.000
REMARK  Name = 191014
REMARK  10 active torsions:
REMARK  status: ('A' for Active; 'I' for Inactive)
REMARK    1  A    between atoms: N_1  and  C_3
REMARK    2  A    between atoms: N_1  and  C_15
REMARK    3  A    between atoms: C_4  and  N_11
REMARK    4  A    between atoms: C_8  and  N_14
REMARK    5  A    between atoms: C_15  and  C_16
REMARK    6  A    between atoms: C_16  and  C_17
REMARK    7  A    between atoms: C_17  and  C_18
REMARK    8  A    between atoms: C_18  and  C_19
REMARK    9  A    between atoms: C_19  and  C_20
REMARK   10  A    between atoms: C_20  and  N_21
REMARK                            x       y       z     vdW  Elec       q    Type
REMARK                         _______ _______ _______ _____ _____    ______ ____
ROOT
ATOM      1  N   UNL     1     -37.107  22.008   3.171  0.00  0.00    -0.331 N 
ATOM      2  H   UNL     1     -37.745  21.586   3.791  0.00  0.00    +0.147 HD
ENDROOT
BRANCH   1   3
ATOM      3  C   UNL     1     -36.415  23.126   3.606  0.00  0.00    +0.067 C 
ATOM      4  C   UNL     1     -35.643  23.117   4.785  0.00  0.00    +0.157 C 
ATOM      5  C   UNL     1     -36.471  24.320   2.861  0.00  0.00    +0.018 C 
ATOM      6  C   UNL     1     -34.955  24.256   5.202  0.00  0.00    +0.049 C 
ATOM      7  C   UNL     1     -35.784  25.460   3.277  0.00  0.00    +0.025 C 
ATOM      8  C   UNL     1     -35.026  25.429   4.448  0.00  0.00    +0.145 C 
BRANCH   4  11
ATOM      9  O   UNL     1     -35.037  20.911   5.072  0.00  0.00    -0.126 OA
ATOM     10  O   UNL     1     -36.001  21.955   6.744  0.00  0.00    -0.126 OA
ATOM     11  N   UNL     1     -35.556  21.935   5.573  0.00  0.00    +0.059 N 
ENDBRANCH   4  11
BRANCH   8  14
ATOM     12  O   UNL     1     -33.865  26.630   6.037  0.00  0.00    -0.126 OA
ATOM     13  O   UNL     1     -34.188  27.543   4.068  0.00  0.00    -0.126 OA
ATOM     14  N   UNL     1     -34.327  26.590   4.872  0.00  0.00    +0.058 N 
ENDBRANCH   8  14
ENDBRANCH   1   3
BRANCH   1  15
ATOM     15  C   UNL     1     -36.945  21.425   1.860  0.00  0.00    +0.087 C 
BRANCH  15  16
ATOM     16  C   UNL     1     -35.967  20.254   1.905  0.00  0.00    +0.021 C 
BRANCH  16  17
ATOM     17  C   UNL     1     -34.567  20.634   1.408  0.00  0.00    +0.002 C 
BRANCH  17  18
ATOM     18  C   UNL     1     -33.647  19.411   1.366  0.00  0.00    -0.002 C 
BRANCH  18  19
ATOM     19  C   UNL     1     -32.356  19.648   0.573  0.00  0.00    -0.024 C 
BRANCH  19  20
ATOM     20  C   UNL     1     -31.333  18.512   0.630  0.00  0.00    -0.086 C 
BRANCH  20  21
ATOM     21  N   UNL     1     -31.913  17.283   1.156  0.00  0.00    +0.380 N 
ATOM     22  H   UNL     1     -31.199  16.760   1.665  0.00  0.00    -0.089 HD
ATOM     23  H   UNL     1     -32.264  16.714   0.385  0.00  0.00    -0.089 HD
ATOM     24  H   UNL     1     -32.681  17.512   1.787  0.00  0.00    -0.089 HD
ENDBRANCH  20  21
ENDBRANCH  19  20
ENDBRANCH  18  19
ENDBRANCH  17  18
ENDBRANCH  16  17
ENDBRANCH  15  16
ENDBRANCH   1  15
TORSDOF 10
ENDMDL
MODEL 2
REMARK VINA RESULT:      -5.5      2.440      3.212
REMARK  Name = 191014
REMARK  10 active torsions:
REMARK  status: ('A' for Active; 'I' for Inactive)
REMARK    1  A    between atoms: N_1  and  C_3
REMARK    2  A    between atoms: N_1  and  C_15
REMARK    3  A    between atoms: C_4  and  N_11
REMARK    4  A    between atoms: C_8  and  N_14
REMARK    5  A    between atoms: C_15  and  C_16
REMARK    6  A    between atoms: C_16  and  C_17
REMARK    7  A    between atoms: C_17  and  C_18
REMARK    8  A    between atoms: C_18  and  C_19
REMARK    9  A    between atoms: C_19  and  C_20
REMARK   10  A    between atoms: C_20  and  N_21
REMARK                            x       y       z     vdW  Elec       q    Type
REMARK                         _______ _______ _______ _____ _____    ______ ____
ROOT
ATOM      1  N   UNL     1     -37.548  23.416   3.466  0.00  0.00    -0.331 N 
ATOM      2  H   UNL     1     -37.791  22.597   3.956  0.00  0.00    +0.147 HD
ENDROOT
BRANCH   1   3
ATOM      3  C   UNL     1     -36.558  24.226   3.996  0.00  0.00    +0.067 C 
ATOM      4  C   UNL     1     -35.599  23.738   4.906  0.00  0.00    +0.157 C 
ATOM      5  C   UNL     1     -36.490  25.583   3.627  0.00  0.00    +0.018 C 
ATOM      6  C   UNL     1     -34.611  24.574   5.425  0.00  0.00    +0.049 C 
ATOM      7  C   UNL     1     -35.503  26.421   4.146  0.00  0.00    +0.025 C 
ATOM      8  C   UNL     1     -34.564  25.917   5.046  0.00  0.00    +0.145 C 
BRANCH   4  11
ATOM      9  O   UNL     1     -35.349  21.488   4.470  0.00  0.00    -0.126 OA
ATOM     10  O   UNL     1     -35.930  22.101   6.496  0.00  0.00    -0.126 OA
ATOM     11  N   UNL     1     -35.627  22.374   5.311  0.00  0.00    +0.059 N 
ENDBRANCH   4  11
BRANCH   8  14
ATOM     12  O   UNL     1     -33.052  26.494   6.688  0.00  0.00    -0.126 OA
ATOM     13  O   UNL     1     -33.205  27.774   4.912  0.00  0.00    -0.126 OA
ATOM     14  N   UNL     1     -33.559  26.770   5.575  0.00  0.00    +0.058 N 
ENDBRANCH   8  14
ENDBRANCH   1   3
BRANCH   1  15
ATOM     15  C   UNL     1     -38.245  23.702   2.234  0.00  0.00    +0.087 C 
BRANCH  15  16
ATOM     16  C   UNL     1     -39.655  23.118   2.262  0.00  0.00    +0.021 C 
BRANCH  16  17
ATOM     17  C   UNL     1     -39.689  21.638   1.862  0.00  0.00    +0.002 C 
BRANCH  17  18
ATOM     18  C   UNL     1     -39.177  21.441   0.432  0.00  0.00    -0.002 C 
BRANCH  18  19
ATOM     19  C   UNL     1     -38.138  20.320   0.308  0.00  0.00    -0.024 C 
BRANCH  19  20
ATOM     20  C   UNL     1     -36.817  20.566   1.040  0.00  0.00    -0.086 C 
BRANCH  20  21
ATOM     21  N   UNL     1     -36.775  19.889   2.330  0.00  0.00    +0.380 N 
ATOM     22  H   UNL     1     -37.396  19.079   2.309  0.00  0.00    -0.089 HD
ATOM     23  H   UNL     1     -37.079  20.531   3.062  0.00  0.00    -0.089 HD
ATOM     24  H   UNL     1     -35.822  19.581   2.522  0.00  0.00    -0.089 HD
ENDBRANCH  20  21
ENDBRANCH  19  20
ENDBRANCH  18  19
ENDBRANCH  17  18
ENDBRANCH  16  17
ENDBRANCH  15  16
ENDBRANCH   1  15
TORSDOF 10
ENDMDL
MODEL 3
REMARK VINA RESULT:      -5.5      2.927      5.306
REMARK  Name = 191014
REMARK  10 active torsions:
REMARK  status: ('A' for Active; 'I' for Inactive)
REMARK    1  A    between atoms: N_1  and  C_3
REMARK    2  A    between atoms: N_1  and  C_15
REMARK    3  A    between atoms: C_4  and  N_11
REMARK    4  A    between atoms: C_8  and  N_14
REMARK    5  A    between atoms: C_15  and  C_16
REMARK    6  A    between atoms: C_16  and  C_17
REMARK    7  A    between atoms: C_17  and  C_18
REMARK    8  A    between atoms: C_18  and  C_19
REMARK    9  A    between atoms: C_19  and  C_20
REMARK   10  A    between atoms: C_20  and  N_21
REMARK                            x       y       z     vdW  Elec       q    Type
REMARK                         _______ _______ _______ _____ _____    ______ ____
ROOT
ATOM      1  N   UNL     1     -37.351  22.570   3.384  0.00  0.00    -0.331 N 
ATOM      2  H   UNL     1     -38.097  22.320   3.976  0.00  0.00    +0.147 HD
ENDROOT
BRANCH   1   3
ATOM      3  C   UNL     1     -36.478  23.555   3.814  0.00  0.00    +0.067 C 
ATOM      4  C   UNL     1     -35.580  23.345   4.880  0.00  0.00    +0.157 C 
ATOM      5  C   UNL     1     -36.470  24.812   3.180  0.00  0.00    +0.018 C 
ATOM      6  C   UNL     1     -34.710  24.353   5.294  0.00  0.00    +0.049 C 
ATOM      7  C   UNL     1     -35.600  25.821   3.594  0.00  0.00    +0.025 C 
ATOM      8  C   UNL     1     -34.720  25.592   4.652  0.00  0.00    +0.145 C 
BRANCH   4  11
ATOM      9  O   UNL     1     -36.009  22.021   6.718  0.00  0.00    -0.126 OA
ATOM     10  O   UNL     1     -35.066  21.099   4.963  0.00  0.00    -0.126 OA
ATOM     11  N   UNL     1     -35.550  22.092   5.554  0.00  0.00    +0.059 N 
ENDBRANCH   4  11
BRANCH   8  14
ATOM     12  O   UNL     1     -33.707  27.642   4.359  0.00  0.00    -0.126 OA
ATOM     13  O   UNL     1     -33.206  26.475   6.149  0.00  0.00    -0.126 OA
ATOM     14  N   UNL     1     -33.835  26.619   5.073  0.00  0.00    +0.058 N 
ENDBRANCH   8  14
ENDBRANCH   1   3
BRANCH   1  15
ATOM     15  C   UNL     1     -37.230  21.888   2.117  0.00  0.00    +0.087 C 
BRANCH  15  16
ATOM     16  C   UNL     1     -38.438  22.178   1.230  0.00  0.00    +0.021 C 
BRANCH  16  17
ATOM     17  C   UNL     1     -39.682  22.573   2.033  0.00  0.00    +0.002 C 
BRANCH  17  18
ATOM     18  C   UNL     1     -40.186  23.960   1.623  0.00  0.00    -0.002 C 
BRANCH  18  19
ATOM     19  C   UNL     1     -40.075  25.003   2.742  0.00  0.00    -0.024 C 
BRANCH  19  20
ATOM     20  C   UNL     1     -41.164  26.078   2.746  0.00  0.00    -0.086 C 
BRANCH  20  21
ATOM     21  N   UNL     1     -41.308  26.702   4.055  0.00  0.00    +0.380 N 
ATOM     22  H   UNL     1     -40.482  26.500   4.621  0.00  0.00    -0.089 HD
ATOM     23  H   UNL     1     -42.136  26.331   4.520  0.00  0.00    -0.089 HD
ATOM     24  H   UNL     1     -41.404  27.710   3.943  0.00  0.00    -0.089 HD
ENDBRANCH  20  21
ENDBRANCH  19  20
ENDBRANCH  18  19
ENDBRANCH  17  18
ENDBRANCH  16  17
ENDBRANCH  15  16
ENDBRANCH   1  15
TORSDOF 10
ENDMDL
MODEL 4
REMARK VINA RESULT:      -5.4      1.594      1.969
REMARK  Name = 191014
REMARK  10 active torsions:
REMARK  status: ('A' for Active; 'I' for Inactive)
REMARK    1  A    between atoms: N_1  and  C_3
REMARK    2  A    between atoms: N_1  and  C_15
REMARK    3  A    between atoms: C_4  and  N_11
REMARK    4  A    between atoms: C_8  and  N_14
REMARK    5  A    between atoms: C_15  and  C_16
REMARK    6  A    between atoms: C_16  and  C_17
REMARK    7  A    between atoms: C_17  and  C_18
REMARK    8  A    between atoms: C_18  and  C_19
REMARK    9  A    between atoms: C_19  and  C_20
REMARK   10  A    between atoms: C_20  and  N_21
REMARK                            x       y       z     vdW  Elec       q    Type
REMARK                         _______ _______ _______ _____ _____    ______ ____
ROOT
ATOM      1  N   UNL     1     -37.063  22.649   3.636  0.00  0.00    -0.331 N 
ATOM      2  H   UNL     1     -37.766  22.342   4.253  0.00  0.00    +0.147 HD
ENDROOT
BRANCH   1   3
ATOM      3  C   UNL     1     -36.252  23.697   4.039  0.00  0.00    +0.067 C 
ATOM      4  C   UNL     1     -35.369  23.582   5.132  0.00  0.00    +0.157 C 
ATOM      5  C   UNL     1     -36.295  24.923   3.349  0.00  0.00    +0.018 C 
ATOM      6  C   UNL     1     -34.562  24.652   5.518  0.00  0.00    +0.049 C 
ATOM      7  C   UNL     1     -35.488  25.994   3.735  0.00  0.00    +0.025 C 
ATOM      8  C   UNL     1     -34.622  25.859   4.820  0.00  0.00    +0.145 C 
BRANCH   4  11
ATOM      9  O   UNL     1     -34.289  21.628   5.706  0.00  0.00    -0.126 OA
ATOM     10  O   UNL     1     -36.226  22.063   6.641  0.00  0.00    -0.126 OA
ATOM     11  N   UNL     1     -35.291  22.364   5.863  0.00  0.00    +0.059 N 
ENDBRANCH   4  11
BRANCH   8  14
ATOM     12  O   UNL     1     -33.596  27.880   4.397  0.00  0.00    -0.126 OA
ATOM     13  O   UNL     1     -33.304  26.951   6.364  0.00  0.00    -0.126 OA
ATOM     14  N   UNL     1     -33.801  26.949   5.212  0.00  0.00    +0.058 N 
ENDBRANCH   8  14
ENDBRANCH   1   3
BRANCH   1  15
ATOM     15  C   UNL     1     -36.937  21.981   2.363  0.00  0.00    +0.087 C 
BRANCH  15  16
ATOM     16  C   UNL     1     -35.468  21.760   2.011  0.00  0.00    +0.021 C 
BRANCH  16  17
ATOM     17  C   UNL     1     -34.988  20.342   2.339  0.00  0.00    +0.002 C 
BRANCH  17  18
ATOM     18  C   UNL     1     -34.059  19.807   1.245  0.00  0.00    -0.002 C 
BRANCH  18  19
ATOM     19  C   UNL     1     -34.620  18.579   0.517  0.00  0.00    -0.024 C 
BRANCH  19  20
ATOM     20  C   UNL     1     -35.954  18.795  -0.201  0.00  0.00    -0.086 C 
BRANCH  20  21
ATOM     21  N   UNL     1     -37.064  18.181   0.516  0.00  0.00    +0.380 N 
ATOM     22  H   UNL     1     -37.616  17.616  -0.131  0.00  0.00    -0.089 HD
ATOM     23  H   UNL     1     -37.654  18.908   0.920  0.00  0.00    -0.089 HD
ATOM     24  H   UNL     1     -36.701  17.586   1.261  0.00  0.00    -0.089 HD
ENDBRANCH  20  21
ENDBRANCH  19  20
ENDBRANCH  18  19
ENDBRANCH  17  18
ENDBRANCH  16  17
ENDBRANCH  15  16
ENDBRANCH   1  15
TORSDOF 10
ENDMDL
MODEL 5
REMARK VINA RESULT:      -5.3      3.111      6.805
REMARK  Name = 191014
REMARK  10 active torsions:
REMARK  status: ('A' for Active; 'I' for Inactive)
REMARK    1  A    between atoms: N_1  and  C_3
REMARK    2  A    between atoms: N_1  and  C_15
REMARK    3  A    between atoms: C_4  and  N_11
REMARK    4  A    between atoms: C_8  and  N_14
REMARK    5  A    between atoms: C_15  and  C_16
REMARK    6  A    between atoms: C_16  and  C_17
REMARK    7  A    between atoms: C_17  and  C_18
REMARK    8  A    between atoms: C_18  and  C_19
REMARK    9  A    between atoms: C_19  and  C_20
REMARK   10  A    between atoms: C_20  and  N_21
REMARK                            x       y       z     vdW  Elec       q    Type
REMARK                         _______ _______ _______ _____ _____    ______ ____
ROOT
ATOM      1  N   UNL     1     -34.430  22.163   0.236  0.00  0.00    -0.331 N 
ATOM      2  H   UNL     1     -35.191  22.114  -0.388  0.00  0.00    +0.147 HD
ENDROOT
BRANCH   1   3
ATOM      3  C   UNL     1     -33.673  21.021   0.433  0.00  0.00    +0.067 C 
ATOM      4  C   UNL     1     -34.129  19.948   1.226  0.00  0.00    +0.157 C 
ATOM      5  C   UNL     1     -32.404  20.908  -0.167  0.00  0.00    +0.018 C 
ATOM      6  C   UNL     1     -33.347  18.808   1.409  0.00  0.00    +0.049 C 
ATOM      7  C   UNL     1     -31.621  19.768   0.016  0.00  0.00    +0.025 C 
ATOM      8  C   UNL     1     -32.092  18.718   0.805  0.00  0.00    +0.145 C 
BRANCH   4  11
ATOM      9  O   UNL     1     -35.477  20.456   3.026  0.00  0.00    -0.126 OA
ATOM     10  O   UNL     1     -36.413  19.633   1.219  0.00  0.00    -0.126 OA
ATOM     11  N   UNL     1     -35.403  20.016   1.855  0.00  0.00    +0.059 N 
ENDBRANCH   4  11
BRANCH   8  14
ATOM     12  O   UNL     1     -30.171  17.673   1.536  0.00  0.00    -0.126 OA
ATOM     13  O   UNL     1     -31.738  16.448   0.608  0.00  0.00    -0.126 OA
ATOM     14  N   UNL     1     -31.295  17.557   0.992  0.00  0.00    +0.058 N 
ENDBRANCH   8  14
ENDBRANCH   1   3
BRANCH   1  15
ATOM     15  C   UNL     1     -34.168  23.422   0.892  0.00  0.00    +0.087 C 
BRANCH  15  16
ATOM     16  C   UNL     1     -35.267  23.746   1.901  0.00  0.00    +0.021 C 
BRANCH  16  17
ATOM     17  C   UNL     1     -34.710  24.219   3.249  0.00  0.00    +0.002 C 
BRANCH  17  18
ATOM     18  C   UNL     1     -35.688  23.911   4.387  0.00  0.00    -0.002 C 
BRANCH  18  19
ATOM     19  C   UNL     1     -34.996  23.432   5.669  0.00  0.00    -0.024 C 
BRANCH  19  20
ATOM     20  C   UNL     1     -35.636  22.217   6.345  0.00  0.00    -0.086 C 
BRANCH  20  21
ATOM     21  N   UNL     1     -35.073  20.964   5.858  0.00  0.00    +0.380 N 
ATOM     22  H   UNL     1     -35.390  20.796   4.903  0.00  0.00    -0.089 HD
ATOM     23  H   UNL     1     -35.379  20.198   6.457  0.00  0.00    -0.089 HD
ATOM     24  H   UNL     1     -34.055  21.021   5.872  0.00  0.00    -0.089 HD
ENDBRANCH  20  21
ENDBRANCH  19  20
ENDBRANCH  18  19
ENDBRANCH  17  18
ENDBRANCH  16  17
ENDBRANCH  15  16
ENDBRANCH   1  15
TORSDOF 10
ENDMDL
MODEL 6
REMARK VINA RESULT:      -5.3      3.734      7.469
REMARK  Name = 191014
REMARK  10 active torsions:
REMARK  status: ('A' for Active; 'I' for Inactive)
REMARK    1  A    between atoms: N_1  and  C_3
REMARK    2  A    between atoms: N_1  and  C_15
REMARK    3  A    between atoms: C_4  and  N_11
REMARK    4  A    between atoms: C_8  and  N_14
REMARK    5  A    between atoms: C_15  and  C_16
REMARK    6  A    between atoms: C_16  and  C_17
REMARK    7  A    between atoms: C_17  and  C_18
REMARK    8  A    between atoms: C_18  and  C_19
REMARK    9  A    between atoms: C_19  and  C_20
REMARK   10  A    between atoms: C_20  and  N_21
REMARK                            x       y       z     vdW  Elec       q    Type
REMARK                         _______ _______ _______ _____ _____    ______ ____
ROOT
ATOM      1  N   UNL     1     -35.464  27.730   3.549  0.00  0.00    -0.331 N 
ATOM      2  H   UNL     1     -35.413  28.456   4.211  0.00  0.00    +0.147 HD
ENDROOT
BRANCH   1   3
ATOM      3  C   UNL     1     -35.489  26.424   4.011  0.00  0.00    +0.067 C 
ATOM      4  C   UNL     1     -34.487  25.912   4.860  0.00  0.00    +0.157 C 
ATOM      5  C   UNL     1     -36.539  25.566   3.632  0.00  0.00    +0.018 C 
ATOM      6  C   UNL     1     -34.535  24.594   5.312  0.00  0.00    +0.049 C 
ATOM      7  C   UNL     1     -36.587  24.247   4.084  0.00  0.00    +0.025 C 
ATOM      8  C   UNL     1     -35.585  23.760   4.923  0.00  0.00    +0.145 C 
BRANCH   4  11
ATOM      9  O   UNL     1     -32.613  27.173   4.400  0.00  0.00    -0.126 OA
ATOM     10  O   UNL     1     -33.275  27.009   6.486  0.00  0.00    -0.126 OA
ATOM     11  N   UNL     1     -33.405  26.740   5.269  0.00  0.00    +0.059 N 
ENDBRANCH   4  11
BRANCH   8  14
ATOM     12  O   UNL     1     -35.284  21.496   4.607  0.00  0.00    -0.126 OA
ATOM     13  O   UNL     1     -36.026  22.190   6.553  0.00  0.00    -0.126 OA
ATOM     14  N   UNL     1     -35.634  22.417   5.383  0.00  0.00    +0.058 N 
ENDBRANCH   8  14
ENDBRANCH   1   3
BRANCH   1  15
ATOM     15  C   UNL     1     -35.508  28.087   2.151  0.00  0.00    +0.087 C 
BRANCH  15  16
ATOM     16  C   UNL     1     -35.054  29.529   1.945  0.00  0.00    +0.021 C 
BRANCH  16  17
ATOM     17  C   UNL     1     -34.898  30.293   3.264  0.00  0.00    +0.002 C 
BRANCH  17  18
ATOM     18  C   UNL     1     -33.711  31.260   3.204  0.00  0.00    -0.002 C 
BRANCH  18  19
ATOM     19  C   UNL     1     -32.372  30.602   3.557  0.00  0.00    -0.024 C 
BRANCH  19  20
ATOM     20  C   UNL     1     -31.841  30.906   4.959  0.00  0.00    -0.086 C 
BRANCH  20  21
ATOM     21  N   UNL     1     -32.181  29.856   5.910  0.00  0.00    +0.380 N 
ATOM     22  H   UNL     1     -31.825  30.104   6.834  0.00  0.00    -0.089 HD
ATOM     23  H   UNL     1     -31.762  28.976   5.610  0.00  0.00    -0.089 HD
ATOM     24  H   UNL     1     -33.195  29.752   5.954  0.00  0.00    -0.089 HD
ENDBRANCH  20  21
ENDBRANCH  19  20
ENDBRANCH  18  19
ENDBRANCH  17  18
ENDBRANCH  16  17
ENDBRANCH  15  16
ENDBRANCH   1  15
TORSDOF 10
ENDMDL
MODEL 7
REMARK VINA RESULT:      -5.1      4.425      6.318
REMARK  Name = 191014
REMARK  10 active torsions:
REMARK  status: ('A' for Active; 'I' for Inactive)
REMARK    1  A    between atoms: N_1  and  C_3
REMARK    2  A    between atoms: N_1  and  C_15
REMARK    3  A    between atoms: C_4  and  N_11
REMARK    4  A    between atoms: C_8  and  N_14
REMARK    5  A    between atoms: C_15  and  C_16
REMARK    6  A    between atoms: C_16  and  C_17
REMARK    7  A    between atoms: C_17  and  C_18
REMARK    8  A    between atoms: C_18  and  C_19
REMARK    9  A    between atoms: C_19  and  C_20
REMARK   10  A    between atoms: C_20  and  N_21
REMARK                            x       y       z     vdW  Elec       q    Type
REMARK                         _______ _______ _______ _____ _____    ______ ____
ROOT
ATOM      1  N   UNL     1     -37.685  22.511   3.014  0.00  0.00    -0.331 N 
ATOM      2  H   UNL     1     -37.937  21.867   3.715  0.00  0.00    +0.147 HD
ENDROOT
BRANCH   1   3
ATOM      3  C   UNL     1     -38.587  23.512   2.692  0.00  0.00    +0.067 C 
ATOM      4  C   UNL     1     -39.717  23.270   1.885  0.00  0.00    +0.157 C 
ATOM      5  C   UNL     1     -38.386  24.819   3.175  0.00  0.00    +0.018 C 
ATOM      6  C   UNL     1     -40.610  24.295   1.574  0.00  0.00    +0.049 C 
ATOM      7  C   UNL     1     -39.279  25.845   2.865  0.00  0.00    +0.025 C 
ATOM      8  C   UNL     1     -40.391  25.583   2.064  0.00  0.00    +0.145 C 
BRANCH   4  11
ATOM      9  O   UNL     1     -40.375  21.076   2.150  0.00  0.00    -0.126 OA
ATOM     10  O   UNL     1     -39.755  21.747   0.154  0.00  0.00    -0.126 OA
ATOM     11  N   UNL     1     -39.961  21.966   1.371  0.00  0.00    +0.059 N 
ENDBRANCH   4  11
BRANCH   8  14
ATOM     12  O   UNL     1     -41.879  26.613   0.636  0.00  0.00    -0.126 OA
ATOM     13  O   UNL     1     -41.498  27.536   2.591  0.00  0.00    -0.126 OA
ATOM     14  N   UNL     1     -41.300  26.628   1.748  0.00  0.00    +0.058 N 
ENDBRANCH   8  14
ENDBRANCH   1   3
BRANCH   1  15
ATOM     15  C   UNL     1     -36.397  22.359   2.381  0.00  0.00    +0.087 C 
BRANCH  15  16
ATOM     16  C   UNL     1     -35.270  22.626   3.376  0.00  0.00    +0.021 C 
BRANCH  16  17
ATOM     17  C   UNL     1     -35.652  22.259   4.814  0.00  0.00    +0.002 C 
BRANCH  17  18
ATOM     18  C   UNL     1     -35.093  23.280   5.811  0.00  0.00    -0.002 C 
BRANCH  18  19
ATOM     19  C   UNL     1     -34.840  24.659   5.190  0.00  0.00    -0.024 C 
BRANCH  19  20
ATOM     20  C   UNL     1     -35.842  25.747   5.580  0.00  0.00    -0.086 C 
BRANCH  20  21
ATOM     21  N   UNL     1     -35.749  26.911   4.708  0.00  0.00    +0.380 N 
ATOM     22  H   UNL     1     -36.139  27.726   5.184  0.00  0.00    -0.089 HD
ATOM     23  H   UNL     1     -36.271  26.737   3.850  0.00  0.00    -0.089 HD
ATOM     24  H   UNL     1     -34.770  27.088   4.481  0.00  0.00    -0.089 HD
ENDBRANCH  20  21
ENDBRANCH  19  20
ENDBRANCH  18  19
ENDBRANCH  17  18
ENDBRANCH  16  17
ENDBRANCH  15  16
ENDBRANCH   1  15
TORSDOF 10
ENDMDL
MODEL 8
REMARK VINA RESULT:      -5.0      2.568      3.292
REMARK  Name = 191014
REMARK  10 active torsions:
REMARK  status: ('A' for Active; 'I' for Inactive)
REMARK    1  A    between atoms: N_1  and  C_3
REMARK    2  A    between atoms: N_1  and  C_15
REMARK    3  A    between atoms: C_4  and  N_11
REMARK    4  A    between atoms: C_8  and  N_14
REMARK    5  A    between atoms: C_15  and  C_16
REMARK    6  A    between atoms: C_16  and  C_17
REMARK    7  A    between atoms: C_17  and  C_18
REMARK    8  A    between atoms: C_18  and  C_19
REMARK    9  A    between atoms: C_19  and  C_20
REMARK   10  A    between atoms: C_20  and  N_21
REMARK                            x       y       z     vdW  Elec       q    Type
REMARK                         _______ _______ _______ _____ _____    ______ ____
ROOT
ATOM      1  N   UNL     1     -37.428  23.393   3.657  0.00  0.00    -0.331 N 
ATOM      2  H   UNL     1     -38.324  23.442   4.061  0.00  0.00    +0.147 HD
ENDROOT
BRANCH   1   3
ATOM      3  C   UNL     1     -36.457  24.272   4.109  0.00  0.00    +0.067 C 
ATOM      4  C   UNL     1     -36.432  25.625   3.716  0.00  0.00    +0.157 C 
ATOM      5  C   UNL     1     -35.455  23.819   4.988  0.00  0.00    +0.018 C 
ATOM      6  C   UNL     1     -35.444  26.490   4.185  0.00  0.00    +0.049 C 
ATOM      7  C   UNL     1     -34.467  24.684   5.458  0.00  0.00    +0.025 C 
ATOM      8  C   UNL     1     -34.460  26.019   5.055  0.00  0.00    +0.145 C 
BRANCH   4  11
ATOM      9  O   UNL     1     -38.630  26.023   3.142  0.00  0.00    -0.126 OA
ATOM     10  O   UNL     1     -37.056  26.665   1.754  0.00  0.00    -0.126 OA
ATOM     11  N   UNL     1     -37.422  26.130   2.827  0.00  0.00    +0.059 N 
ENDBRANCH   4  11
BRANCH   8  14
ATOM     12  O   UNL     1     -33.160  27.912   4.854  0.00  0.00    -0.126 OA
ATOM     13  O   UNL     1     -32.888  26.641   6.623  0.00  0.00    -0.126 OA
ATOM     14  N   UNL     1     -33.454  26.900   5.533  0.00  0.00    +0.058 N 
ENDBRANCH   8  14
ENDBRANCH   1   3
BRANCH   1  15
ATOM     15  C   UNL     1     -37.200  22.407   2.627  0.00  0.00    +0.087 C 
BRANCH  15  16
ATOM     16  C   UNL     1     -36.219  22.933   1.582  0.00  0.00    +0.021 C 
BRANCH  16  17
ATOM     17  C   UNL     1     -34.954  22.074   1.474  0.00  0.00    +0.002 C 
BRANCH  17  18
ATOM     18  C   UNL     1     -35.136  20.730   2.186  0.00  0.00    -0.002 C 
BRANCH  18  19
ATOM     19  C   UNL     1     -34.203  19.633   1.661  0.00  0.00    -0.024 C 
BRANCH  19  20
ATOM     20  C   UNL     1     -34.690  18.902   0.408  0.00  0.00    -0.086 C 
BRANCH  20  21
ATOM     21  N   UNL     1     -36.091  18.514   0.514  0.00  0.00    +0.380 N 
ATOM     22  H   UNL     1     -36.680  19.267   0.156  0.00  0.00    -0.089 HD
ATOM     23  H   UNL     1     -36.322  18.337   1.491  0.00  0.00    -0.089 HD
ATOM     24  H   UNL     1     -36.252  17.668  -0.032  0.00  0.00    -0.089 HD
ENDBRANCH  20  21
ENDBRANCH  19  20
ENDBRANCH  18  19
ENDBRANCH  17  18
ENDBRANCH  16  17
ENDBRANCH  15  16
ENDBRANCH   1  15
TORSDOF 10
ENDMDL
MODEL 9
REMARK VINA RESULT:      -5.0      3.995      7.418
REMARK  Name = 191014
REMARK  10 active torsions:
REMARK  status: ('A' for Active; 'I' for Inactive)
REMARK    1  A    between atoms: N_1  and  C_3
REMARK    2  A    between atoms: N_1  and  C_15
REMARK    3  A    between atoms: C_4  and  N_11
REMARK    4  A    between atoms: C_8  and  N_14
REMARK    5  A    between atoms: C_15  and  C_16
REMARK    6  A    between atoms: C_16  and  C_17
REMARK    7  A    between atoms: C_17  and  C_18
REMARK    8  A    between atoms: C_18  and  C_19
REMARK    9  A    between atoms: C_19  and  C_20
REMARK   10  A    between atoms: C_20  and  N_21
REMARK                            x       y       z     vdW  Elec       q    Type
REMARK                         _______ _______ _______ _____ _____    ______ ____
ROOT
ATOM      1  N   UNL     1     -35.238  27.918   3.655  0.00  0.00    -0.331 N 
ATOM      2  H   UNL     1     -35.967  28.538   3.886  0.00  0.00    +0.147 HD
ENDROOT
BRANCH   1   3
ATOM      3  C   UNL     1     -35.370  26.589   4.022  0.00  0.00    +0.067 C 
ATOM      4  C   UNL     1     -36.365  25.756   3.472  0.00  0.00    +0.157 C 
ATOM      5  C   UNL     1     -34.492  26.033   4.972  0.00  0.00    +0.018 C 
ATOM      6  C   UNL     1     -36.477  24.420   3.858  0.00  0.00    +0.049 C 
ATOM      7  C   UNL     1     -34.603  24.697   5.359  0.00  0.00    +0.025 C 
ATOM      8  C   UNL     1     -35.596  23.891   4.803  0.00  0.00    +0.145 C 
BRANCH   4  11
ATOM      9  O   UNL     1     -36.843  26.608   1.384  0.00  0.00    -0.126 OA
ATOM     10  O   UNL     1     -38.488  26.374   2.818  0.00  0.00    -0.126 OA
ATOM     11  N   UNL     1     -37.277  26.271   2.510  0.00  0.00    +0.059 N 
ENDBRANCH   4  11
BRANCH   8  14
ATOM     12  O   UNL     1     -36.039  22.266   6.377  0.00  0.00    -0.126 OA
ATOM     13  O   UNL     1     -35.477  21.633   4.352  0.00  0.00    -0.126 OA
ATOM     14  N   UNL     1     -35.709  22.531   5.196  0.00  0.00    +0.058 N 
ENDBRANCH   8  14
ENDBRANCH   1   3
BRANCH   1  15
ATOM     15  C   UNL     1     -34.093  28.446   2.953  0.00  0.00    +0.087 C 
BRANCH  15  16
ATOM     16  C   UNL     1     -33.836  29.897   3.350  0.00  0.00    +0.021 C 
BRANCH  16  17
ATOM     17  C   UNL     1     -32.514  30.078   4.104  0.00  0.00    +0.002 C 
BRANCH  17  18
ATOM     18  C   UNL     1     -31.922  28.726   4.513  0.00  0.00    -0.002 C 
BRANCH  18  19
ATOM     19  C   UNL     1     -31.983  28.468   6.023  0.00  0.00    -0.024 C 
BRANCH  19  20
ATOM     20  C   UNL     1     -31.413  29.583   6.903  0.00  0.00    -0.086 C 
BRANCH  20  21
ATOM     21  N   UNL     1     -30.041  29.306   7.311  0.00  0.00    +0.380 N 
ATOM     22  H   UNL     1     -29.784  29.925   8.082  0.00  0.00    -0.089 HD
ATOM     23  H   UNL     1     -29.413  29.465   6.524  0.00  0.00    -0.089 HD
ATOM     24  H   UNL     1     -29.966  28.336   7.616  0.00  0.00    -0.089 HD
ENDBRANCH  20  21
ENDBRANCH  19  20
ENDBRANCH  18  19
ENDBRANCH  17  18
ENDBRANCH  16  17
ENDBRANCH  15  16
ENDBRANCH   1  15
TORSDOF 10
ENDMDL
