MODEL 1
REMARK VINA RESULT:      -6.2      0.000      0.000
REMARK  Name = 54048856
REMARK  5 active torsions:
REMARK  status: ('A' for Active; 'I' for Inactive)
REMARK    1  A    between atoms: N_2  and  CA_18
REMARK    2  A    between atoms: CA_18  and  C_20
REMARK    3  A    between atoms: CA_18  and  CB_23
REMARK    4  A    between atoms: C_20  and  O_21
REMARK    5  A    between atoms: CB_23  and  OG1_25
REMARK                            x       y       z     vdW  Elec       q    Type
REMARK                         _______ _______ _______ _____ _____    ______ ____
ROOT
ATOM      1  O   UNL     1     -33.344  25.387   4.340  0.00  0.00    -0.252 OA
ATOM      2  N   UNL     1     -33.728  27.653   4.587  0.00  0.00    -0.279 N 
ATOM      3  N   UNL     1     -35.486  26.289   4.018  0.00  0.00    -0.256 N 
ATOM      4  N   UNL     1     -38.501  26.301   3.377  0.00  0.00    -0.270 NA
ATOM      5  N   UNL     1     -35.706  23.925   3.628  0.00  0.00    -0.232 NA
ATOM      6  N   UNL     1     -39.677  24.478   2.864  0.00  0.00    -0.307 N 
ATOM      7  N   UNL     1     -37.836  22.898   3.027  0.00  0.00    -0.232 NA
ATOM      8  C   ACE A   0     -34.121  26.338   4.314  0.00  0.00    +0.306 C 
ATOM      9  C   UNL     1     -37.613  25.264   3.416  0.00  0.00    +0.164 C 
ATOM     10  C   UNL     1     -36.263  25.154   3.688  0.00  0.00    +0.131 C 
ATOM     11  C   UNL     1     -38.366  24.144   3.093  0.00  0.00    +0.125 C 
ATOM     12  C   UNL     1     -39.723  25.781   3.041  0.00  0.00    +0.163 C 
ATOM     13  C   UNL     1     -36.514  22.887   3.306  0.00  0.00    +0.253 C 
ATOM     14  H   UNL     1     -34.408  28.365   4.547  0.00  0.00    +0.152 HD
ATOM     15  H   UNL     1     -35.965  27.150   4.041  0.00  0.00    +0.158 HD
ATOM     16  H   UNL     1     -38.300  27.248   3.557  0.00  0.00    +0.126 HD
ATOM     17  H   UNL     1     -40.417  23.877   2.618  0.00  0.00    +0.149 HD
ENDROOT
BRANCH   2  18
ATOM     18  CA  UNL     1     -32.376  28.018   4.928  0.00  0.00    +0.199 C 
BRANCH  18  20
ATOM     19  OXT UNL     1     -33.035  27.391   7.190  0.00  0.00    -0.248 OA
ATOM     20  C   UNL     1     -32.151  27.606   6.371  0.00  0.00    +0.334 C 
BRANCH  20  21
ATOM     21  O   UNL     1     -30.828  27.543   6.681  0.00  0.00    -0.479 OA
ATOM     22  H   UNL     1     -30.274  26.925   6.244  0.00  0.00    +0.295 HD
ENDBRANCH  20  21
ENDBRANCH  18  20
BRANCH  18  23
ATOM     23  CB  UNL     1     -32.090  29.511   4.728  0.00  0.00    +0.139 C 
ATOM     24  CG2 UNL     1     -32.972  30.141   3.657  0.00  0.00    +0.034 C 
BRANCH  23  25
ATOM     25  OG1 UNL     1     -32.271  30.222   5.951  0.00  0.00    -0.382 OA
ATOM     26  HG1 UNL     1     -31.762  29.790   6.655  0.00  0.00    +0.210 HD
ENDBRANCH  23  25
ENDBRANCH  18  23
ENDBRANCH   2  18
TORSDOF 5
ENDMDL
MODEL 2
REMARK VINA RESULT:      -6.0      3.228      7.165
REMARK  Name = 54048856
REMARK  5 active torsions:
REMARK  status: ('A' for Active; 'I' for Inactive)
REMARK    1  A    between atoms: N_2  and  CA_18
REMARK    2  A    between atoms: CA_18  and  C_20
REMARK    3  A    between atoms: CA_18  and  CB_23
REMARK    4  A    between atoms: C_20  and  O_21
REMARK    5  A    between atoms: CB_23  and  OG1_25
REMARK                            x       y       z     vdW  Elec       q    Type
REMARK                         _______ _______ _______ _____ _____    ______ ____
ROOT
ATOM      1  O   UNL     1     -34.156  25.368   2.646  0.00  0.00    -0.252 OA
ATOM      2  N   UNL     1     -34.572  24.346   4.677  0.00  0.00    -0.279 N 
ATOM      3  N   UNL     1     -33.481  26.367   4.660  0.00  0.00    -0.256 N 
ATOM      4  N   UNL     1     -32.207  28.490   6.495  0.00  0.00    -0.270 NA
ATOM      5  N   UNL     1     -32.785  27.873   2.916  0.00  0.00    -0.232 NA
ATOM      6  N   UNL     1     -31.245  30.362   5.760  0.00  0.00    -0.307 N 
ATOM      7  N   UNL     1     -31.621  29.964   3.392  0.00  0.00    -0.232 NA
ATOM      8  C   ACE A   0     -34.071  25.375   3.872  0.00  0.00    +0.306 C 
ATOM      9  C   UNL     1     -32.319  28.456   5.134  0.00  0.00    +0.164 C 
ATOM     10  C   UNL     1     -32.863  27.565   4.229  0.00  0.00    +0.131 C 
ATOM     11  C   UNL     1     -31.714  29.627   4.701  0.00  0.00    +0.125 C 
ATOM     12  C   UNL     1     -31.557  29.651   6.822  0.00  0.00    +0.163 C 
ATOM     13  C   UNL     1     -32.178  29.037   2.582  0.00  0.00    +0.253 C 
ATOM     14  H   UNL     1     -34.467  24.421   5.653  0.00  0.00    +0.152 HD
ATOM     15  H   UNL     1     -33.499  26.214   5.633  0.00  0.00    +0.158 HD
ATOM     16  H   UNL     1     -32.534  27.808   7.124  0.00  0.00    +0.126 HD
ATOM     17  H   UNL     1     -30.777  31.228   5.731  0.00  0.00    +0.149 HD
ENDROOT
BRANCH   2  18
ATOM     18  CA  UNL     1     -35.238  23.182   4.147  0.00  0.00    +0.199 C 
BRANCH  18  20
ATOM     19  OXT UNL     1     -37.250  24.499   4.549  0.00  0.00    -0.248 OA
ATOM     20  C   UNL     1     -36.716  23.515   4.055  0.00  0.00    +0.334 C 
BRANCH  20  21
ATOM     21  O   UNL     1     -37.411  22.557   3.387  0.00  0.00    -0.479 OA
ATOM     22  H   UNL     1     -37.068  21.686   3.326  0.00  0.00    +0.295 HD
ENDBRANCH  20  21
ENDBRANCH  18  20
BRANCH  18  23
ATOM     23  CB  UNL     1     -35.006  21.924   4.991  0.00  0.00    +0.139 C 
ATOM     24  CG2 UNL     1     -35.536  22.062   6.413  0.00  0.00    +0.034 C 
BRANCH  23  25
ATOM     25  OG1 UNL     1     -35.621  20.792   4.379  0.00  0.00    -0.382 OA
ATOM     26  HG1 UNL     1     -35.093  20.510   3.615  0.00  0.00    +0.210 HD
ENDBRANCH  23  25
ENDBRANCH  18  23
ENDBRANCH   2  18
TORSDOF 5
ENDMDL
MODEL 3
REMARK VINA RESULT:      -6.0      2.945      5.027
REMARK  Name = 54048856
REMARK  5 active torsions:
REMARK  status: ('A' for Active; 'I' for Inactive)
REMARK    1  A    between atoms: N_2  and  CA_18
REMARK    2  A    between atoms: CA_18  and  C_20
REMARK    3  A    between atoms: CA_18  and  CB_23
REMARK    4  A    between atoms: C_20  and  O_21
REMARK    5  A    between atoms: CB_23  and  OG1_25
REMARK                            x       y       z     vdW  Elec       q    Type
REMARK                         _______ _______ _______ _____ _____    ______ ____
ROOT
ATOM      1  O   UNL     1     -37.711  23.420   2.445  0.00  0.00    -0.252 OA
ATOM      2  N   UNL     1     -36.782  24.501   4.266  0.00  0.00    -0.279 N 
ATOM      3  N   UNL     1     -38.870  25.136   3.549  0.00  0.00    -0.256 N 
ATOM      4  N   UNL     1     -41.179  27.093   4.129  0.00  0.00    -0.270 NA
ATOM      5  N   UNL     1     -40.315  24.410   1.767  0.00  0.00    -0.232 NA
ATOM      6  N   UNL     1     -43.067  27.184   2.946  0.00  0.00    -0.307 N 
ATOM      7  N   UNL     1     -42.506  25.411   1.379  0.00  0.00    -0.232 NA
ATOM      8  C   ACE A   0     -37.795  24.272   3.327  0.00  0.00    +0.306 C 
ATOM      9  C   UNL     1     -41.058  26.137   3.161  0.00  0.00    +0.164 C 
ATOM     10  C   UNL     1     -40.080  25.223   2.821  0.00  0.00    +0.131 C 
ATOM     11  C   UNL     1     -42.241  26.213   2.440  0.00  0.00    +0.125 C 
ATOM     12  C   UNL     1     -42.400  27.693   3.959  0.00  0.00    +0.163 C 
ATOM     13  C   UNL     1     -41.497  24.552   1.120  0.00  0.00    +0.253 C 
ATOM     14  H   UNL     1     -36.921  25.201   4.944  0.00  0.00    +0.152 HD
ATOM     15  H   UNL     1     -38.773  25.763   4.303  0.00  0.00    +0.158 HD
ATOM     16  H   UNL     1     -40.514  27.310   4.821  0.00  0.00    +0.126 HD
ATOM     17  H   UNL     1     -43.960  27.442   2.622  0.00  0.00    +0.149 HD
ENDROOT
BRANCH   2  18
ATOM     18  CA  UNL     1     -35.546  23.759   4.291  0.00  0.00    +0.199 C 
BRANCH  18  20
ATOM     19  OXT UNL     1     -35.817  22.475   6.346  0.00  0.00    -0.248 OA
ATOM     20  C   UNL     1     -35.789  22.513   5.123  0.00  0.00    +0.334 C 
BRANCH  20  21
ATOM     21  O   UNL     1     -35.930  21.405   4.348  0.00  0.00    -0.479 OA
ATOM     22  H   UNL     1     -36.444  20.683   4.652  0.00  0.00    +0.295 HD
ENDBRANCH  20  21
ENDBRANCH  18  20
BRANCH  18  23
ATOM     23  CB  UNL     1     -34.371  24.573   4.844  0.00  0.00    +0.139 C 
ATOM     24  CG2 UNL     1     -33.693  25.427   3.778  0.00  0.00    +0.034 C 
BRANCH  23  25
ATOM     25  OG1 UNL     1     -34.807  25.422   5.905  0.00  0.00    -0.382 OA
ATOM     26  HG1 UNL     1     -35.125  24.879   6.644  0.00  0.00    +0.210 HD
ENDBRANCH  23  25
ENDBRANCH  18  23
ENDBRANCH   2  18
TORSDOF 5
ENDMDL
MODEL 4
REMARK VINA RESULT:      -6.0      5.958      9.471
REMARK  Name = 54048856
REMARK  5 active torsions:
REMARK  status: ('A' for Active; 'I' for Inactive)
REMARK    1  A    between atoms: N_2  and  CA_18
REMARK    2  A    between atoms: CA_18  and  C_20
REMARK    3  A    between atoms: CA_18  and  CB_23
REMARK    4  A    between atoms: C_20  and  O_21
REMARK    5  A    between atoms: CB_23  and  OG1_25
REMARK                            x       y       z     vdW  Elec       q    Type
REMARK                         _______ _______ _______ _____ _____    ______ ____
ROOT
ATOM      1  O   UNL     1     -35.979  20.462  -0.064  0.00  0.00    -0.252 OA
ATOM      2  N   UNL     1     -35.374  18.401   0.792  0.00  0.00    -0.279 N 
ATOM      3  N   UNL     1     -35.562  20.184   2.228  0.00  0.00    -0.256 N 
ATOM      4  N   UNL     1     -35.288  20.997   5.188  0.00  0.00    -0.270 NA
ATOM      5  N   UNL     1     -36.139  22.503   1.943  0.00  0.00    -0.232 NA
ATOM      6  N   UNL     1     -35.644  23.060   5.956  0.00  0.00    -0.307 N 
ATOM      7  N   UNL     1     -36.208  24.066   3.816  0.00  0.00    -0.232 NA
ATOM      8  C   ACE A   0     -35.671  19.765   0.900  0.00  0.00    +0.306 C 
ATOM      9  C   UNL     1     -35.630  21.745   4.098  0.00  0.00    +0.164 C 
ATOM     10  C   UNL     1     -35.779  21.481   2.751  0.00  0.00    +0.131 C 
ATOM     11  C   UNL     1     -35.845  23.021   4.600  0.00  0.00    +0.125 C 
ATOM     12  C   UNL     1     -35.310  21.829   6.278  0.00  0.00    +0.163 C 
ATOM     13  C   UNL     1     -36.329  23.715   2.517  0.00  0.00    +0.253 C 
ATOM     14  H   UNL     1     -35.135  17.907   1.610  0.00  0.00    +0.152 HD
ATOM     15  H   UNL     1     -35.303  19.493   2.881  0.00  0.00    +0.158 HD
ATOM     16  H   UNL     1     -35.068  20.038   5.192  0.00  0.00    +0.126 HD
ATOM     17  H   UNL     1     -35.728  23.837   6.555  0.00  0.00    +0.149 HD
ENDROOT
BRANCH   2  18
ATOM     18  CA  UNL     1     -35.403  17.683  -0.457  0.00  0.00    +0.199 C 
BRANCH  18  20
ATOM     19  OXT UNL     1     -37.406  17.460  -1.829  0.00  0.00    -0.248 OA
ATOM     20  C   UNL     1     -36.854  17.341  -0.743  0.00  0.00    +0.334 C 
BRANCH  20  21
ATOM     21  O   UNL     1     -37.506  16.921   0.373  0.00  0.00    -0.479 OA
ATOM     22  H   UNL     1     -37.786  17.545   1.014  0.00  0.00    +0.295 HD
ENDBRANCH  20  21
ENDBRANCH  18  20
BRANCH  18  23
ATOM     23  CB  UNL     1     -34.529  16.424  -0.444  0.00  0.00    +0.139 C 
ATOM     24  CG2 UNL     1     -33.113  16.694   0.049  0.00  0.00    +0.034 C 
BRANCH  23  25
ATOM     25  OG1 UNL     1     -35.118  15.416   0.376  0.00  0.00    -0.382 OA
ATOM     26  HG1 UNL     1     -34.495  15.163   1.076  0.00  0.00    +0.210 HD
ENDBRANCH  23  25
ENDBRANCH  18  23
ENDBRANCH   2  18
TORSDOF 5
ENDMDL
MODEL 5
REMARK VINA RESULT:      -5.9      6.239      9.793
REMARK  Name = 54048856
REMARK  5 active torsions:
REMARK  status: ('A' for Active; 'I' for Inactive)
REMARK    1  A    between atoms: N_2  and  CA_18
REMARK    2  A    between atoms: CA_18  and  C_20
REMARK    3  A    between atoms: CA_18  and  CB_23
REMARK    4  A    between atoms: C_20  and  O_21
REMARK    5  A    between atoms: CB_23  and  OG1_25
REMARK                            x       y       z     vdW  Elec       q    Type
REMARK                         _______ _______ _______ _____ _____    ______ ____
ROOT
ATOM      1  O   UNL     1     -36.915  20.129  -0.179  0.00  0.00    -0.252 OA
ATOM      2  N   UNL     1     -36.262  18.104   0.725  0.00  0.00    -0.279 N 
ATOM      3  N   UNL     1     -36.173  19.983   2.043  0.00  0.00    -0.256 N 
ATOM      4  N   UNL     1     -35.435  20.973   4.867  0.00  0.00    -0.270 NA
ATOM      5  N   UNL     1     -36.704  22.302   1.681  0.00  0.00    -0.232 NA
ATOM      6  N   UNL     1     -35.600  23.095   5.530  0.00  0.00    -0.307 N 
ATOM      7  N   UNL     1     -36.440  23.984   3.428  0.00  0.00    -0.232 NA
ATOM      8  C   ACE A   0     -36.492  19.483   0.777  0.00  0.00    +0.306 C 
ATOM      9  C   UNL     1     -35.908  21.663   3.787  0.00  0.00    +0.164 C 
ATOM     10  C   UNL     1     -36.264  21.319   2.498  0.00  0.00    +0.131 C 
ATOM     11  C   UNL     1     -36.002  22.978   4.223  0.00  0.00    +0.125 C 
ATOM     12  C   UNL     1     -35.266  21.874   5.886  0.00  0.00    +0.163 C 
ATOM     13  C   UNL     1     -36.764  23.556   2.189  0.00  0.00    +0.253 C 
ATOM     14  H   UNL     1     -35.922  17.654   1.532  0.00  0.00    +0.152 HD
ATOM     15  H   UNL     1     -35.843  19.324   2.698  0.00  0.00    +0.158 HD
ATOM     16  H   UNL     1     -35.250  20.007   4.906  0.00  0.00    +0.126 HD
ATOM     17  H   UNL     1     -35.568  23.912   6.078  0.00  0.00    +0.149 HD
ENDROOT
BRANCH   2  18
ATOM     18  CA  UNL     1     -36.501  17.308  -0.454  0.00  0.00    +0.199 C 
BRANCH  18  20
ATOM     19  OXT UNL     1     -38.190  15.622   0.044  0.00  0.00    -0.248 OA
ATOM     20  C   UNL     1     -37.907  16.749  -0.339  0.00  0.00    +0.334 C 
BRANCH  20  21
ATOM     21  O   UNL     1     -38.843  17.641  -0.760  0.00  0.00    -0.479 OA
ATOM     22  H   UNL     1     -38.590  18.367  -1.297  0.00  0.00    +0.295 HD
ENDBRANCH  20  21
ENDBRANCH  18  20
BRANCH  18  23
ATOM     23  CB  UNL     1     -35.472  16.186  -0.637  0.00  0.00    +0.139 C 
ATOM     24  CG2 UNL     1     -34.046  16.708  -0.756  0.00  0.00    +0.034 C 
BRANCH  23  25
ATOM     25  OG1 UNL     1     -35.537  15.267   0.453  0.00  0.00    -0.382 OA
ATOM     26  HG1 UNL     1     -36.463  15.031   0.622  0.00  0.00    +0.210 HD
ENDBRANCH  23  25
ENDBRANCH  18  23
ENDBRANCH   2  18
TORSDOF 5
ENDMDL
MODEL 6
REMARK VINA RESULT:      -5.9      6.106      9.229
REMARK  Name = 54048856
REMARK  5 active torsions:
REMARK  status: ('A' for Active; 'I' for Inactive)
REMARK    1  A    between atoms: N_2  and  CA_18
REMARK    2  A    between atoms: CA_18  and  C_20
REMARK    3  A    between atoms: CA_18  and  CB_23
REMARK    4  A    between atoms: C_20  and  O_21
REMARK    5  A    between atoms: CB_23  and  OG1_25
REMARK                            x       y       z     vdW  Elec       q    Type
REMARK                         _______ _______ _______ _____ _____    ______ ____
ROOT
ATOM      1  O   UNL     1     -35.051  20.103  -0.098  0.00  0.00    -0.252 OA
ATOM      2  N   UNL     1     -34.124  18.238   0.904  0.00  0.00    -0.279 N 
ATOM      3  N   UNL     1     -34.847  19.964   2.236  0.00  0.00    -0.256 N 
ATOM      4  N   UNL     1     -35.089  20.870   5.171  0.00  0.00    -0.270 NA
ATOM      5  N   UNL     1     -35.867  22.099   1.794  0.00  0.00    -0.232 NA
ATOM      6  N   UNL     1     -35.959  22.822   5.809  0.00  0.00    -0.307 N 
ATOM      7  N   UNL     1     -36.477  23.643   3.581  0.00  0.00    -0.232 NA
ATOM      8  C   ACE A   0     -34.713  19.507   0.922  0.00  0.00    +0.306 C 
ATOM      9  C   UNL     1     -35.456  21.507   4.020  0.00  0.00    +0.164 C 
ATOM     10  C   UNL     1     -35.392  21.193   2.677  0.00  0.00    +0.131 C 
ATOM     11  C   UNL     1     -35.993  22.716   4.442  0.00  0.00    +0.125 C 
ATOM     12  C   UNL     1     -35.410  21.697   6.216  0.00  0.00    +0.163 C 
ATOM     13  C   UNL     1     -36.373  23.251   2.292  0.00  0.00    +0.253 C 
ATOM     14  H   UNL     1     -33.880  17.822   1.763  0.00  0.00    +0.152 HD
ATOM     15  H   UNL     1     -34.522  19.357   2.941  0.00  0.00    +0.158 HD
ATOM     16  H   UNL     1     -34.672  19.982   5.239  0.00  0.00    +0.126 HD
ATOM     17  H   UNL     1     -36.274  23.573   6.362  0.00  0.00    +0.149 HD
ENDROOT
BRANCH   2  18
ATOM     18  CA  UNL     1     -33.858  17.508  -0.310  0.00  0.00    +0.199 C 
BRANCH  18  20
ATOM     19  OXT UNL     1     -36.001  16.358  -0.474  0.00  0.00    -0.248 OA
ATOM     20  C   UNL     1     -34.788  16.308  -0.324  0.00  0.00    +0.334 C 
BRANCH  20  21
ATOM     21  O   UNL     1     -34.120  15.145  -0.100  0.00  0.00    -0.479 OA
ATOM     22  H   UNL     1     -33.439  15.113   0.544  0.00  0.00    +0.295 HD
ENDBRANCH  20  21
ENDBRANCH  18  20
BRANCH  18  23
ATOM     23  CB  UNL     1     -32.393  17.074  -0.440  0.00  0.00    +0.139 C 
ATOM     24  CG2 UNL     1     -31.532  18.114  -1.146  0.00  0.00    +0.034 C 
BRANCH  23  25
ATOM     25  OG1 UNL     1     -31.835  16.810   0.847  0.00  0.00    -0.382 OA
ATOM     26  HG1 UNL     1     -31.613  17.649   1.281  0.00  0.00    +0.210 HD
ENDBRANCH  23  25
ENDBRANCH  18  23
ENDBRANCH   2  18
TORSDOF 5
ENDMDL
MODEL 7
REMARK VINA RESULT:      -5.8      1.496      1.967
REMARK  Name = 54048856
REMARK  5 active torsions:
REMARK  status: ('A' for Active; 'I' for Inactive)
REMARK    1  A    between atoms: N_2  and  CA_18
REMARK    2  A    between atoms: CA_18  and  C_20
REMARK    3  A    between atoms: CA_18  and  CB_23
REMARK    4  A    between atoms: C_20  and  O_21
REMARK    5  A    between atoms: CB_23  and  OG1_25
REMARK                            x       y       z     vdW  Elec       q    Type
REMARK                         _______ _______ _______ _____ _____    ______ ____
ROOT
ATOM      1  O   UNL     1     -32.460  26.886   5.526  0.00  0.00    -0.252 OA
ATOM      2  N   UNL     1     -32.874  28.862   4.399  0.00  0.00    -0.279 N 
ATOM      3  N   UNL     1     -34.459  27.200   4.336  0.00  0.00    -0.256 N 
ATOM      4  N   UNL     1     -37.236  26.492   3.204  0.00  0.00    -0.270 NA
ATOM      5  N   UNL     1     -34.599  24.991   5.281  0.00  0.00    -0.232 NA
ATOM      6  N   UNL     1     -38.272  24.550   3.558  0.00  0.00    -0.307 N 
ATOM      7  N   UNL     1     -36.535  23.548   4.932  0.00  0.00    -0.232 NA
ATOM      8  C   ACE A   0     -33.202  27.569   4.824  0.00  0.00    +0.306 C 
ATOM      9  C   UNL     1     -36.391  25.758   3.987  0.00  0.00    +0.164 C 
ATOM     10  C   UNL     1     -35.145  25.980   4.539  0.00  0.00    +0.131 C 
ATOM     11  C   UNL     1     -37.056  24.557   4.192  0.00  0.00    +0.125 C 
ATOM     12  C   UNL     1     -38.349  25.726   2.973  0.00  0.00    +0.163 C 
ATOM     13  C   UNL     1     -35.317  23.852   5.430  0.00  0.00    +0.253 C 
ATOM     14  H   UNL     1     -33.519  29.349   3.837  0.00  0.00    +0.152 HD
ATOM     15  H   UNL     1     -34.923  27.871   3.784  0.00  0.00    +0.158 HD
ATOM     16  H   UNL     1     -37.076  27.404   2.868  0.00  0.00    +0.126 HD
ATOM     17  H   UNL     1     -38.938  23.825   3.542  0.00  0.00    +0.149 HD
ENDROOT
BRANCH   2  18
ATOM     18  CA  UNL     1     -31.637  29.517   4.745  0.00  0.00    +0.199 C 
BRANCH  18  20
ATOM     19  OXT UNL     1     -32.400  30.834   6.650  0.00  0.00    -0.248 OA
ATOM     20  C   UNL     1     -31.733  29.908   6.209  0.00  0.00    +0.334 C 
BRANCH  20  21
ATOM     21  O   UNL     1     -30.942  29.129   6.995  0.00  0.00    -0.479 OA
ATOM     22  H   UNL     1     -30.332  29.527   7.584  0.00  0.00    +0.295 HD
ENDBRANCH  20  21
ENDBRANCH  18  20
BRANCH  18  23
ATOM     23  CB  UNL     1     -31.338  30.735   3.865  0.00  0.00    +0.139 C 
ATOM     24  CG2 UNL     1     -32.588  31.309   3.208  0.00  0.00    +0.034 C 
BRANCH  23  25
ATOM     25  OG1 UNL     1     -30.708  31.761   4.631  0.00  0.00    -0.382 OA
ATOM     26  HG1 UNL     1     -31.342  32.123   5.270  0.00  0.00    +0.210 HD
ENDBRANCH  23  25
ENDBRANCH  18  23
ENDBRANCH   2  18
TORSDOF 5
ENDMDL
MODEL 8
REMARK VINA RESULT:      -5.8      4.569      7.382
REMARK  Name = 54048856
REMARK  5 active torsions:
REMARK  status: ('A' for Active; 'I' for Inactive)
REMARK    1  A    between atoms: N_2  and  CA_18
REMARK    2  A    between atoms: CA_18  and  C_20
REMARK    3  A    between atoms: CA_18  and  CB_23
REMARK    4  A    between atoms: C_20  and  O_21
REMARK    5  A    between atoms: CB_23  and  OG1_25
REMARK                            x       y       z     vdW  Elec       q    Type
REMARK                         _______ _______ _______ _____ _____    ______ ____
ROOT
ATOM      1  O   UNL     1     -40.138  24.553   2.647  0.00  0.00    -0.252 OA
ATOM      2  N   UNL     1     -40.552  26.724   3.324  0.00  0.00    -0.279 N 
ATOM      3  N   UNL     1     -38.513  25.784   3.808  0.00  0.00    -0.256 N 
ATOM      4  N   UNL     1     -35.805  26.350   5.166  0.00  0.00    -0.270 NA
ATOM      5  N   UNL     1     -37.522  23.633   3.379  0.00  0.00    -0.232 NA
ATOM      6  N   UNL     1     -34.135  24.877   5.287  0.00  0.00    -0.307 N 
ATOM      7  N   UNL     1     -35.261  23.075   4.107  0.00  0.00    -0.232 NA
ATOM      8  C   ACE A   0     -39.757  25.578   3.207  0.00  0.00    +0.306 C 
ATOM      9  C   UNL     1     -36.255  25.226   4.535  0.00  0.00    +0.164 C 
ATOM     10  C   UNL     1     -37.433  24.876   3.904  0.00  0.00    +0.131 C 
ATOM     11  C   UNL     1     -35.202  24.326   4.624  0.00  0.00    +0.125 C 
ATOM     12  C   UNL     1     -34.530  26.093   5.600  0.00  0.00    +0.163 C 
ATOM     13  C   UNL     1     -36.446  22.821   3.510  0.00  0.00    +0.253 C 
ATOM     14  H   UNL     1     -40.179  27.509   3.787  0.00  0.00    +0.152 HD
ATOM     15  H   UNL     1     -38.370  26.670   4.215  0.00  0.00    +0.158 HD
ATOM     16  H   UNL     1     -36.303  27.190   5.287  0.00  0.00    +0.126 HD
ATOM     17  H   UNL     1     -33.268  24.456   5.486  0.00  0.00    +0.149 HD
ENDROOT
BRANCH   2  18
ATOM     18  CA  UNL     1     -41.891  26.813   2.798  0.00  0.00    +0.199 C 
BRANCH  18  20
ATOM     19  OXT UNL     1     -41.512  28.287   0.894  0.00  0.00    -0.248 OA
ATOM     20  C   UNL     1     -41.772  27.173   1.329  0.00  0.00    +0.334 C 
BRANCH  20  21
ATOM     21  O   UNL     1     -42.036  26.111   0.523  0.00  0.00    -0.479 OA
ATOM     22  H   UNL     1     -42.634  26.204  -0.194  0.00  0.00    +0.295 HD
ENDBRANCH  20  21
ENDBRANCH  18  20
BRANCH  18  23
ATOM     23  CB  UNL     1     -42.763  27.827   3.548  0.00  0.00    +0.139 C 
ATOM     24  CG2 UNL     1     -43.927  27.174   4.283  0.00  0.00    +0.034 C 
BRANCH  23  25
ATOM     25  OG1 UNL     1     -41.979  28.561   4.487  0.00  0.00    -0.382 OA
ATOM     26  HG1 UNL     1     -41.540  29.299   4.035  0.00  0.00    +0.210 HD
ENDBRANCH  23  25
ENDBRANCH  18  23
ENDBRANCH   2  18
TORSDOF 5
ENDMDL
MODEL 9
REMARK VINA RESULT:      -5.7      5.362      7.698
REMARK  Name = 54048856
REMARK  5 active torsions:
REMARK  status: ('A' for Active; 'I' for Inactive)
REMARK    1  A    between atoms: N_2  and  CA_18
REMARK    2  A    between atoms: CA_18  and  C_20
REMARK    3  A    between atoms: CA_18  and  CB_23
REMARK    4  A    between atoms: C_20  and  O_21
REMARK    5  A    between atoms: CB_23  and  OG1_25
REMARK                            x       y       z     vdW  Elec       q    Type
REMARK                         _______ _______ _______ _____ _____    ______ ____
ROOT
ATOM      1  O   UNL     1     -34.353  21.237   1.491  0.00  0.00    -0.252 OA
ATOM      2  N   UNL     1     -35.982  21.154   3.129  0.00  0.00    -0.279 N 
ATOM      3  N   UNL     1     -36.031  19.597   1.441  0.00  0.00    -0.256 N 
ATOM      4  N   UNL     1     -37.601  17.165   0.384  0.00  0.00    -0.270 NA
ATOM      5  N   UNL     1     -34.653  19.182  -0.487  0.00  0.00    -0.232 NA
ATOM      6  N   UNL     1     -37.060  16.032  -1.458  0.00  0.00    -0.307 N 
ATOM      7  N   UNL     1     -35.109  17.359  -2.044  0.00  0.00    -0.232 NA
ATOM      8  C   ACE A   0     -35.356  20.704   1.961  0.00  0.00    +0.306 C 
ATOM      9  C   UNL     1     -36.486  17.777  -0.114  0.00  0.00    +0.164 C 
ATOM     10  C   UNL     1     -35.718  18.855   0.278  0.00  0.00    +0.131 C 
ATOM     11  C   UNL     1     -36.170  17.057  -1.257  0.00  0.00    +0.125 C 
ATOM     12  C   UNL     1     -37.907  16.126  -0.456  0.00  0.00    +0.163 C 
ATOM     13  C   UNL     1     -34.417  18.425  -1.585  0.00  0.00    +0.253 C 
ATOM     14  H   UNL     1     -36.782  20.676   3.447  0.00  0.00    +0.152 HD
ATOM     15  H   UNL     1     -36.823  19.296   1.946  0.00  0.00    +0.158 HD
ATOM     16  H   UNL     1     -38.095  17.422   1.196  0.00  0.00    +0.126 HD
ATOM     17  H   UNL     1     -37.064  15.375  -2.191  0.00  0.00    +0.149 HD
ENDROOT
BRANCH   2  18
ATOM     18  CA  UNL     1     -35.512  22.283   3.893  0.00  0.00    +0.199 C 
BRANCH  18  20
ATOM     19  OXT UNL     1     -35.937  22.606   6.272  0.00  0.00    -0.248 OA
ATOM     20  C   UNL     1     -35.563  21.885   5.357  0.00  0.00    +0.334 C 
BRANCH  20  21
ATOM     21  O   UNL     1     -35.092  20.625   5.557  0.00  0.00    -0.479 OA
ATOM     22  H   UNL     1     -34.401  20.293   5.018  0.00  0.00    +0.295 HD
ENDBRANCH  20  21
ENDBRANCH  18  20
BRANCH  18  23
ATOM     23  CB  UNL     1     -36.322  23.558   3.638  0.00  0.00    +0.139 C 
ATOM     24  CG2 UNL     1     -35.922  24.262   2.346  0.00  0.00    +0.034 C 
BRANCH  23  25
ATOM     25  OG1 UNL     1     -37.717  23.262   3.587  0.00  0.00    -0.382 OA
ATOM     26  HG1 UNL     1     -37.849  22.307   3.699  0.00  0.00    +0.210 HD
ENDBRANCH  23  25
ENDBRANCH  18  23
ENDBRANCH   2  18
TORSDOF 5
ENDMDL
