MODEL 1
REMARK VINA RESULT:      -7.0      0.000      0.000
REMARK  Name = 54685141
REMARK  4 active torsions:
REMARK  status: ('A' for Active; 'I' for Inactive)
REMARK    1  A    between atoms: C_4  and  O_22
REMARK    2  A    between atoms: C_7  and  C_15
REMARK    3  A    between atoms: C_10  and  O_24
REMARK    4  A    between atoms: C_17  and  O_20
REMARK                            x       y       z     vdW  Elec       q    Type
REMARK                         _______ _______ _______ _____ _____    ______ ____
ROOT
ATOM      1  O   UNL     1     -33.995  28.201   4.097  0.00  0.00    -0.291 OA
ATOM      2  C   UNL     1     -36.037  25.314   1.874  0.00  0.00    +0.056 C 
ATOM      3  C   UNL     1     -35.586  25.058   3.286  0.00  0.00    -0.011 C 
ATOM      4  C   UNL     1     -36.231  26.798   1.579  0.00  0.00    +0.123 C 
ATOM      5  C   UNL     1     -35.042  27.636   2.023  0.00  0.00    +0.099 C 
ATOM      6  C   UNL     1     -34.904  26.029   4.034  0.00  0.00    +0.065 C 
ATOM      7  C   UNL     1     -35.815  23.799   3.860  0.00  0.00    +0.027 C 
ATOM      8  C   UNL     1     -34.615  27.361   3.450  0.00  0.00    +0.178 C 
ATOM      9  C   UNL     1     -35.394  23.521   5.161  0.00  0.00    -0.016 C 
ATOM     10  C   UNL     1     -34.484  25.749   5.341  0.00  0.00    +0.136 C 
ATOM     11  C   UNL     1     -34.733  24.496   5.901  0.00  0.00    +0.033 C 
ATOM     12  C   UNL     1     -35.630  22.189   5.800  0.00  0.00    +0.031 C 
ENDROOT
BRANCH   7  15
ATOM     13  O   UNL     1     -37.892  22.888   2.965  0.00  0.00    -0.421 OA
ATOM     14  O   UNL     1     -39.864  22.092   2.165  0.00  0.00    -0.244 OA
ATOM     15  C   UNL     1     -36.488  22.725   3.105  0.00  0.00    +0.151 C 
ATOM     16  C   UNL     1     -35.860  21.657   2.594  0.00  0.00    +0.074 C 
ATOM     17  C   UNL     1     -36.626  20.672   1.884  0.00  0.00    +0.143 C 
ATOM     18  C   UNL     1     -38.652  21.966   2.297  0.00  0.00    +0.349 C 
ATOM     19  C   UNL     1     -37.949  20.798   1.732  0.00  0.00    +0.119 C 
BRANCH  17  20
ATOM     20  O   UNL     1     -35.901  19.614   1.388  0.00  0.00    -0.505 OA
ATOM     21  H   UNL     1     -35.855  19.470   0.464  0.00  0.00    +0.292 HD
ENDBRANCH  17  20
ENDBRANCH   7  15
BRANCH   4  22
ATOM     22  O   UNL     1     -37.430  27.274   2.190  0.00  0.00    -0.384 OA
ATOM     23  H   UNL     1     -37.241  27.552   3.100  0.00  0.00    +0.210 HD
ENDBRANCH   4  22
BRANCH  10  24
ATOM     24  O   UNL     1     -33.826  26.657   6.118  0.00  0.00    -0.505 OA
ATOM     25  H   UNL     1     -33.770  27.552   5.846  0.00  0.00    +0.292 HD
ENDBRANCH  10  24
TORSDOF 4
ENDMDL
MODEL 2
REMARK VINA RESULT:      -6.9      0.809      1.846
REMARK  Name = 54685141
REMARK  4 active torsions:
REMARK  status: ('A' for Active; 'I' for Inactive)
REMARK    1  A    between atoms: C_4  and  O_22
REMARK    2  A    between atoms: C_7  and  C_15
REMARK    3  A    between atoms: C_10  and  O_24
REMARK    4  A    between atoms: C_17  and  O_20
REMARK                            x       y       z     vdW  Elec       q    Type
REMARK                         _______ _______ _______ _____ _____    ______ ____
ROOT
ATOM      1  O   UNL     1     -33.994  28.324   4.092  0.00  0.00    -0.291 OA
ATOM      2  C   UNL     1     -35.814  25.298   1.860  0.00  0.00    +0.056 C 
ATOM      3  C   UNL     1     -35.307  25.062   3.258  0.00  0.00    -0.011 C 
ATOM      4  C   UNL     1     -36.150  26.763   1.598  0.00  0.00    +0.123 C 
ATOM      5  C   UNL     1     -35.034  27.700   2.031  0.00  0.00    +0.099 C 
ATOM      6  C   UNL     1     -34.700  26.078   4.008  0.00  0.00    +0.065 C 
ATOM      7  C   UNL     1     -35.406  23.777   3.812  0.00  0.00    +0.027 C 
ATOM      8  C   UNL     1     -34.549  27.442   3.443  0.00  0.00    +0.178 C 
ATOM      9  C   UNL     1     -34.930  23.518   5.098  0.00  0.00    -0.016 C 
ATOM     10  C   UNL     1     -34.225  25.818   5.300  0.00  0.00    +0.136 C 
ATOM     11  C   UNL     1     -34.344  24.538   5.842  0.00  0.00    +0.033 C 
ATOM     12  C   UNL     1     -35.027  22.159   5.717  0.00  0.00    +0.031 C 
ENDROOT
BRANCH   7  15
ATOM     13  O   UNL     1     -35.051  21.826   2.394  0.00  0.00    -0.421 OA
ATOM     14  O   UNL     1     -34.650  20.024   1.069  0.00  0.00    -0.244 OA
ATOM     15  C   UNL     1     -35.995  22.659   3.053  0.00  0.00    +0.151 C 
ATOM     16  C   UNL     1     -37.311  22.427   2.955  0.00  0.00    +0.074 C 
ATOM     17  C   UNL     1     -37.766  21.308   2.177  0.00  0.00    +0.143 C 
ATOM     18  C   UNL     1     -35.451  20.754   1.643  0.00  0.00    +0.349 C 
ATOM     19  C   UNL     1     -36.903  20.503   1.548  0.00  0.00    +0.119 C 
BRANCH  17  20
ATOM     20  O   UNL     1     -39.130  21.141   2.136  0.00  0.00    -0.505 OA
ATOM     21  H   UNL     1     -39.556  20.608   2.777  0.00  0.00    +0.292 HD
ENDBRANCH  17  20
ENDBRANCH   7  15
BRANCH   4  22
ATOM     22  O   UNL     1     -37.373  27.116   2.244  0.00  0.00    -0.384 OA
ATOM     23  H   UNL     1     -37.375  26.763   3.148  0.00  0.00    +0.210 HD
ENDBRANCH   4  22
BRANCH  10  24
ATOM     24  O   UNL     1     -33.636  26.769   6.079  0.00  0.00    -0.505 OA
ATOM     25  H   UNL     1     -32.834  26.579   6.525  0.00  0.00    +0.292 HD
ENDBRANCH  10  24
TORSDOF 4
ENDMDL
MODEL 3
REMARK VINA RESULT:      -6.5      2.355      5.570
REMARK  Name = 54685141
REMARK  4 active torsions:
REMARK  status: ('A' for Active; 'I' for Inactive)
REMARK    1  A    between atoms: C_4  and  O_22
REMARK    2  A    between atoms: C_7  and  C_15
REMARK    3  A    between atoms: C_10  and  O_24
REMARK    4  A    between atoms: C_17  and  O_20
REMARK                            x       y       z     vdW  Elec       q    Type
REMARK                         _______ _______ _______ _____ _____    ______ ____
ROOT
ATOM      1  O   UNL     1     -41.880  23.988   0.911  0.00  0.00    -0.291 OA
ATOM      2  C   UNL     1     -38.661  25.101   3.331  0.00  0.00    +0.056 C 
ATOM      3  C   UNL     1     -38.662  23.814   2.549  0.00  0.00    -0.011 C 
ATOM      4  C   UNL     1     -39.572  26.160   2.718  0.00  0.00    +0.123 C 
ATOM      5  C   UNL     1     -40.956  25.618   2.397  0.00  0.00    +0.099 C 
ATOM      6  C   UNL     1     -39.741  23.443   1.734  0.00  0.00    +0.065 C 
ATOM      7  C   UNL     1     -37.573  22.939   2.671  0.00  0.00    +0.027 C 
ATOM      8  C   UNL     1     -40.925  24.327   1.606  0.00  0.00    +0.178 C 
ATOM      9  C   UNL     1     -37.549  21.730   1.975  0.00  0.00    -0.016 C 
ATOM     10  C   UNL     1     -39.715  22.230   1.034  0.00  0.00    +0.136 C 
ATOM     11  C   UNL     1     -38.617  21.378   1.155  0.00  0.00    +0.033 C 
ATOM     12  C   UNL     1     -36.398  20.780   2.081  0.00  0.00    +0.031 C 
ENDROOT
BRANCH   7  15
ATOM     13  O   UNL     1     -36.450  22.604   4.809  0.00  0.00    -0.421 OA
ATOM     14  O   UNL     1     -35.461  22.252   6.824  0.00  0.00    -0.244 OA
ATOM     15  C   UNL     1     -36.430  23.257   3.548  0.00  0.00    +0.151 C 
ATOM     16  C   UNL     1     -35.444  24.104   3.222  0.00  0.00    +0.074 C 
ATOM     17  C   UNL     1     -34.388  24.339   4.165  0.00  0.00    +0.143 C 
ATOM     18  C   UNL     1     -35.460  22.808   5.732  0.00  0.00    +0.349 C 
ATOM     19  C   UNL     1     -34.375  23.737   5.359  0.00  0.00    +0.119 C 
BRANCH  17  20
ATOM     20  O   UNL     1     -33.414  25.217   3.745  0.00  0.00    -0.505 OA
ATOM     21  H   UNL     1     -32.512  24.970   3.787  0.00  0.00    +0.292 HD
ENDBRANCH  17  20
ENDBRANCH   7  15
BRANCH   4  22
ATOM     22  O   UNL     1     -38.972  26.714   1.547  0.00  0.00    -0.384 OA
ATOM     23  H   UNL     1     -38.657  27.612   1.738  0.00  0.00    +0.210 HD
ENDBRANCH   4  22
BRANCH  10  24
ATOM     24  O   UNL     1     -40.730  21.822   0.220  0.00  0.00    -0.505 OA
ATOM     25  H   UNL     1     -41.152  21.000   0.373  0.00  0.00    +0.292 HD
ENDBRANCH  10  24
TORSDOF 4
ENDMDL
MODEL 4
REMARK VINA RESULT:      -6.5      1.963      6.488
REMARK  Name = 54685141
REMARK  4 active torsions:
REMARK  status: ('A' for Active; 'I' for Inactive)
REMARK    1  A    between atoms: C_4  and  O_22
REMARK    2  A    between atoms: C_7  and  C_15
REMARK    3  A    between atoms: C_10  and  O_24
REMARK    4  A    between atoms: C_17  and  O_20
REMARK                            x       y       z     vdW  Elec       q    Type
REMARK                         _______ _______ _______ _____ _____    ______ ____
ROOT
ATOM      1  O   UNL     1     -39.115  20.085  -0.561  0.00  0.00    -0.291 OA
ATOM      2  C   UNL     1     -36.295  21.778   2.014  0.00  0.00    +0.056 C 
ATOM      3  C   UNL     1     -37.702  22.306   1.916  0.00  0.00    -0.011 C 
ATOM      4  C   UNL     1     -36.188  20.313   1.604  0.00  0.00    +0.123 C 
ATOM      5  C   UNL     1     -36.877  20.031   0.278  0.00  0.00    +0.099 C 
ATOM      6  C   UNL     1     -38.650  21.734   1.055  0.00  0.00    +0.065 C 
ATOM      7  C   UNL     1     -38.066  23.427   2.676  0.00  0.00    +0.027 C 
ATOM      8  C   UNL     1     -38.292  20.568   0.211  0.00  0.00    +0.178 C 
ATOM      9  C   UNL     1     -39.356  23.953   2.596  0.00  0.00    -0.016 C 
ATOM     10  C   UNL     1     -39.945  22.262   0.977  0.00  0.00    +0.136 C 
ATOM     11  C   UNL     1     -40.295  23.369   1.751  0.00  0.00    +0.033 C 
ATOM     12  C   UNL     1     -39.774  25.144   3.399  0.00  0.00    +0.031 C 
ENDROOT
BRANCH   7  15
ATOM     13  O   UNL     1     -36.582  23.275   4.604  0.00  0.00    -0.421 OA
ATOM     14  O   UNL     1     -35.224  23.068   6.413  0.00  0.00    -0.244 OA
ATOM     15  C   UNL     1     -37.099  24.095   3.565  0.00  0.00    +0.151 C 
ATOM     16  C   UNL     1     -36.727  25.378   3.445  0.00  0.00    +0.074 C 
ATOM     17  C   UNL     1     -35.781  25.919   4.379  0.00  0.00    +0.143 C 
ATOM     18  C   UNL     1     -35.680  23.762   5.512  0.00  0.00    +0.349 C 
ATOM     19  C   UNL     1     -35.273  25.173   5.366  0.00  0.00    +0.119 C 
BRANCH  17  20
ATOM     20  O   UNL     1     -35.451  27.240   4.178  0.00  0.00    -0.505 OA
ATOM     21  H   UNL     1     -34.662  27.461   3.726  0.00  0.00    +0.292 HD
ENDBRANCH  17  20
ENDBRANCH   7  15
BRANCH   4  22
ATOM     22  O   UNL     1     -36.718  19.471   2.627  0.00  0.00    -0.384 OA
ATOM     23  H   UNL     1     -37.267  18.779   2.226  0.00  0.00    +0.210 HD
ENDBRANCH   4  22
BRANCH  10  24
ATOM     24  O   UNL     1     -40.910  21.742   0.166  0.00  0.00    -0.505 OA
ATOM     25  H   UNL     1     -40.683  21.421  -0.685  0.00  0.00    +0.292 HD
ENDBRANCH  10  24
TORSDOF 4
ENDMDL
MODEL 5
REMARK VINA RESULT:      -6.3      1.921      5.917
REMARK  Name = 54685141
REMARK  4 active torsions:
REMARK  status: ('A' for Active; 'I' for Inactive)
REMARK    1  A    between atoms: C_4  and  O_22
REMARK    2  A    between atoms: C_7  and  C_15
REMARK    3  A    between atoms: C_10  and  O_24
REMARK    4  A    between atoms: C_17  and  O_20
REMARK                            x       y       z     vdW  Elec       q    Type
REMARK                         _______ _______ _______ _____ _____    ______ ____
ROOT
ATOM      1  O   UNL     1     -36.032  20.249   3.000  0.00  0.00    -0.291 OA
ATOM      2  C   UNL     1     -35.268  24.008   1.347  0.00  0.00    +0.056 C 
ATOM      3  C   UNL     1     -35.169  23.755   2.827  0.00  0.00    -0.011 C 
ATOM      4  C   UNL     1     -35.064  22.742   0.520  0.00  0.00    +0.123 C 
ATOM      5  C   UNL     1     -35.910  21.582   1.019  0.00  0.00    +0.099 C 
ATOM      6  C   UNL     1     -35.422  22.492   3.382  0.00  0.00    +0.065 C 
ATOM      7  C   UNL     1     -34.858  24.821   3.684  0.00  0.00    +0.027 C 
ATOM      8  C   UNL     1     -35.787  21.348   2.510  0.00  0.00    +0.178 C 
ATOM      9  C   UNL     1     -34.776  24.626   5.063  0.00  0.00    -0.016 C 
ATOM     10  C   UNL     1     -35.337  22.297   4.766  0.00  0.00    +0.136 C 
ATOM     11  C   UNL     1     -35.012  23.365   5.603  0.00  0.00    +0.033 C 
ATOM     12  C   UNL     1     -34.440  25.743   6.000  0.00  0.00    +0.031 C 
ENDROOT
BRANCH   7  15
ATOM     13  O   UNL     1     -33.258  26.525   2.993  0.00  0.00    -0.421 OA
ATOM     14  O   UNL     1     -31.713  28.071   2.371  0.00  0.00    -0.244 OA
ATOM     15  C   UNL     1     -34.625  26.180   3.161  0.00  0.00    +0.151 C 
ATOM     16  C   UNL     1     -35.601  27.053   2.874  0.00  0.00    +0.074 C 
ATOM     17  C   UNL     1     -35.249  28.353   2.378  0.00  0.00    +0.143 C 
ATOM     18  C   UNL     1     -32.888  27.757   2.524  0.00  0.00    +0.349 C 
ATOM     19  C   UNL     1     -33.972  28.708   2.205  0.00  0.00    +0.119 C 
BRANCH  17  20
ATOM     20  O   UNL     1     -36.312  29.182   2.104  0.00  0.00    -0.505 OA
ATOM     21  H   UNL     1     -36.219  30.109   2.194  0.00  0.00    +0.292 HD
ENDBRANCH  17  20
ENDBRANCH   7  15
BRANCH   4  22
ATOM     22  O   UNL     1     -33.684  22.378   0.502  0.00  0.00    -0.384 OA
ATOM     23  H   UNL     1     -33.602  21.414   0.574  0.00  0.00    +0.210 HD
ENDBRANCH   4  22
BRANCH  10  24
ATOM     24  O   UNL     1     -35.562  21.090   5.359  0.00  0.00    -0.505 OA
ATOM     25  H   UNL     1     -36.128  21.032   6.104  0.00  0.00    +0.292 HD
ENDBRANCH  10  24
TORSDOF 4
ENDMDL
MODEL 6
REMARK VINA RESULT:      -6.2      2.204      4.132
REMARK  Name = 54685141
REMARK  4 active torsions:
REMARK  status: ('A' for Active; 'I' for Inactive)
REMARK    1  A    between atoms: C_4  and  O_22
REMARK    2  A    between atoms: C_7  and  C_15
REMARK    3  A    between atoms: C_10  and  O_24
REMARK    4  A    between atoms: C_17  and  O_20
REMARK                            x       y       z     vdW  Elec       q    Type
REMARK                         _______ _______ _______ _____ _____    ______ ____
ROOT
ATOM      1  O   UNL     1     -39.554  27.561   0.989  0.00  0.00    -0.291 OA
ATOM      2  C   UNL     1     -38.663  23.896   2.784  0.00  0.00    +0.056 C 
ATOM      3  C   UNL     1     -37.612  24.950   2.562  0.00  0.00    -0.011 C 
ATOM      4  C   UNL     1     -40.070  24.480   2.872  0.00  0.00    +0.123 C 
ATOM      5  C   UNL     1     -40.370  25.440   1.732  0.00  0.00    +0.099 C 
ATOM      6  C   UNL     1     -37.911  26.182   1.964  0.00  0.00    +0.065 C 
ATOM      7  C   UNL     1     -36.284  24.679   2.925  0.00  0.00    +0.027 C 
ATOM      8  C   UNL     1     -39.298  26.492   1.536  0.00  0.00    +0.178 C 
ATOM      9  C   UNL     1     -35.281  25.626   2.718  0.00  0.00    -0.016 C 
ATOM     10  C   UNL     1     -36.904  27.133   1.757  0.00  0.00    +0.136 C 
ATOM     11  C   UNL     1     -35.591  26.853   2.138  0.00  0.00    +0.033 C 
ATOM     12  C   UNL     1     -33.858  25.367   3.100  0.00  0.00    +0.031 C 
ENDROOT
BRANCH   7  15
ATOM     13  O   UNL     1     -35.846  23.375   4.938  0.00  0.00    -0.421 OA
ATOM     14  O   UNL     1     -35.444  22.220   6.853  0.00  0.00    -0.244 OA
ATOM     15  C   UNL     1     -35.903  23.384   3.519  0.00  0.00    +0.151 C 
ATOM     16  C   UNL     1     -35.609  22.287   2.806  0.00  0.00    +0.074 C 
ATOM     17  C   UNL     1     -35.241  21.085   3.499  0.00  0.00    +0.143 C 
ATOM     18  C   UNL     1     -35.497  22.245   5.628  0.00  0.00    +0.349 C 
ATOM     19  C   UNL     1     -35.182  21.042   4.834  0.00  0.00    +0.119 C 
BRANCH  17  20
ATOM     20  O   UNL     1     -34.963  20.007   2.690  0.00  0.00    -0.505 OA
ATOM     21  H   UNL     1     -34.191  19.498   2.839  0.00  0.00    +0.292 HD
ENDBRANCH  17  20
ENDBRANCH   7  15
BRANCH   4  22
ATOM     22  O   UNL     1     -40.262  25.127   4.129  0.00  0.00    -0.384 OA
ATOM     23  H   UNL     1     -40.609  26.021   3.984  0.00  0.00    +0.210 HD
ENDBRANCH   4  22
BRANCH  10  24
ATOM     24  O   UNL     1     -37.139  28.351   1.189  0.00  0.00    -0.505 OA
ATOM     25  H   UNL     1     -36.428  28.846   0.833  0.00  0.00    +0.292 HD
ENDBRANCH  10  24
TORSDOF 4
ENDMDL
MODEL 7
REMARK VINA RESULT:      -6.0      2.149      6.128
REMARK  Name = 54685141
REMARK  4 active torsions:
REMARK  status: ('A' for Active; 'I' for Inactive)
REMARK    1  A    between atoms: C_4  and  O_22
REMARK    2  A    between atoms: C_7  and  C_15
REMARK    3  A    between atoms: C_10  and  O_24
REMARK    4  A    between atoms: C_17  and  O_20
REMARK                            x       y       z     vdW  Elec       q    Type
REMARK                         _______ _______ _______ _____ _____    ______ ____
ROOT
ATOM      1  O   UNL     1     -35.760  20.272   0.812  0.00  0.00    -0.291 OA
ATOM      2  C   UNL     1     -34.395  24.219   0.707  0.00  0.00    +0.056 C 
ATOM      3  C   UNL     1     -34.774  23.542   1.997  0.00  0.00    -0.011 C 
ATOM      4  C   UNL     1     -33.984  23.228  -0.378  0.00  0.00    +0.123 C 
ATOM      5  C   UNL     1     -34.981  22.090  -0.531  0.00  0.00    +0.099 C 
ATOM      6  C   UNL     1     -35.228  22.215   2.032  0.00  0.00    +0.065 C 
ATOM      7  C   UNL     1     -34.712  24.269   3.194  0.00  0.00    +0.027 C 
ATOM      8  C   UNL     1     -35.338  21.425   0.781  0.00  0.00    +0.178 C 
ATOM      9  C   UNL     1     -35.073  23.678   4.406  0.00  0.00    -0.016 C 
ATOM     10  C   UNL     1     -35.588  21.623   3.249  0.00  0.00    +0.136 C 
ATOM     11  C   UNL     1     -35.507  22.356   4.433  0.00  0.00    +0.033 C 
ATOM     12  C   UNL     1     -35.011  24.427   5.699  0.00  0.00    +0.031 C 
ENDROOT
BRANCH   7  15
ATOM     13  O   UNL     1     -32.882  25.873   3.331  0.00  0.00    -0.421 OA
ATOM     14  O   UNL     1     -31.130  27.314   3.470  0.00  0.00    -0.244 OA
ATOM     15  C   UNL     1     -34.284  25.680   3.212  0.00  0.00    +0.151 C 
ATOM     16  C   UNL     1     -35.124  26.722   3.141  0.00  0.00    +0.074 C 
ATOM     17  C   UNL     1     -34.587  28.053   3.176  0.00  0.00    +0.143 C 
ATOM     18  C   UNL     1     -32.338  27.129   3.369  0.00  0.00    +0.349 C 
ATOM     19  C   UNL     1     -33.272  28.269   3.284  0.00  0.00    +0.119 C 
BRANCH  17  20
ATOM     20  O   UNL     1     -35.519  29.061   3.092  0.00  0.00    -0.505 OA
ATOM     21  H   UNL     1     -35.931  29.384   3.868  0.00  0.00    +0.292 HD
ENDBRANCH  17  20
ENDBRANCH   7  15
BRANCH   4  22
ATOM     22  O   UNL     1     -32.680  22.712  -0.110  0.00  0.00    -0.384 OA
ATOM     23  H   UNL     1     -32.105  22.872  -0.874  0.00  0.00    +0.210 HD
ENDBRANCH   4  22
BRANCH  10  24
ATOM     24  O   UNL     1     -36.026  20.335   3.345  0.00  0.00    -0.505 OA
ATOM     25  H   UNL     1     -36.902  20.118   3.091  0.00  0.00    +0.292 HD
ENDBRANCH  10  24
TORSDOF 4
ENDMDL
MODEL 8
REMARK VINA RESULT:      -6.0      2.753      5.232
REMARK  Name = 54685141
REMARK  4 active torsions:
REMARK  status: ('A' for Active; 'I' for Inactive)
REMARK    1  A    between atoms: C_4  and  O_22
REMARK    2  A    between atoms: C_7  and  C_15
REMARK    3  A    between atoms: C_10  and  O_24
REMARK    4  A    between atoms: C_17  and  O_20
REMARK                            x       y       z     vdW  Elec       q    Type
REMARK                         _______ _______ _______ _____ _____    ______ ____
ROOT
ATOM      1  O   UNL     1     -40.420  25.085  -0.463  0.00  0.00    -0.291 OA
ATOM      2  C   UNL     1     -38.792  24.316   3.306  0.00  0.00    +0.056 C 
ATOM      3  C   UNL     1     -37.976  24.195   2.047  0.00  0.00    -0.011 C 
ATOM      4  C   UNL     1     -39.970  25.272   3.153  0.00  0.00    +0.123 C 
ATOM      5  C   UNL     1     -40.783  24.991   1.899  0.00  0.00    +0.099 C 
ATOM      6  C   UNL     1     -38.521  24.457   0.782  0.00  0.00    +0.065 C 
ATOM      7  C   UNL     1     -36.643  23.767   2.134  0.00  0.00    +0.027 C 
ATOM      8  C   UNL     1     -39.937  24.880   0.648  0.00  0.00    +0.178 C 
ATOM      9  C   UNL     1     -35.863  23.626   0.985  0.00  0.00    -0.016 C 
ATOM     10  C   UNL     1     -37.737  24.318  -0.370  0.00  0.00    +0.136 C 
ATOM     11  C   UNL     1     -36.409  23.905  -0.265  0.00  0.00    +0.033 C 
ATOM     12  C   UNL     1     -34.438  23.177   1.049  0.00  0.00    +0.031 C 
ENDROOT
BRANCH   7  15
ATOM     13  O   UNL     1     -35.517  24.548   4.150  0.00  0.00    -0.421 OA
ATOM     14  O   UNL     1     -34.465  25.343   6.000  0.00  0.00    -0.244 OA
ATOM     15  C   UNL     1     -36.029  23.434   3.433  0.00  0.00    +0.151 C 
ATOM     16  C   UNL     1     -35.929  22.190   3.922  0.00  0.00    +0.074 C 
ATOM     17  C   UNL     1     -35.302  21.991   5.198  0.00  0.00    +0.143 C 
ATOM     18  C   UNL     1     -34.911  24.393   5.368  0.00  0.00    +0.349 C 
ATOM     19  C   UNL     1     -34.813  23.019   5.899  0.00  0.00    +0.119 C 
BRANCH  17  20
ATOM     20  O   UNL     1     -35.248  20.685   5.625  0.00  0.00    -0.505 OA
ATOM     21  H   UNL     1     -34.466  20.185   5.504  0.00  0.00    +0.292 HD
ENDBRANCH  17  20
ENDBRANCH   7  15
BRANCH   4  22
ATOM     22  O   UNL     1     -39.516  26.625   3.157  0.00  0.00    -0.384 OA
ATOM     23  H   UNL     1     -40.064  27.149   3.762  0.00  0.00    +0.210 HD
ENDBRANCH   4  22
BRANCH  10  24
ATOM     24  O   UNL     1     -38.211  24.569  -1.624  0.00  0.00    -0.505 OA
ATOM     25  H   UNL     1     -39.099  24.846  -1.742  0.00  0.00    +0.292 HD
ENDBRANCH  10  24
TORSDOF 4
ENDMDL
MODEL 9
REMARK VINA RESULT:      -5.9      2.955      4.730
REMARK  Name = 54685141
REMARK  4 active torsions:
REMARK  status: ('A' for Active; 'I' for Inactive)
REMARK    1  A    between atoms: C_4  and  O_22
REMARK    2  A    between atoms: C_7  and  C_15
REMARK    3  A    between atoms: C_10  and  O_24
REMARK    4  A    between atoms: C_17  and  O_20
REMARK                            x       y       z     vdW  Elec       q    Type
REMARK                         _______ _______ _______ _____ _____    ______ ____
ROOT
ATOM      1  O   UNL     1     -35.385  22.843   6.473  0.00  0.00    -0.291 OA
ATOM      2  C   UNL     1     -35.999  24.984   2.939  0.00  0.00    +0.056 C 
ATOM      3  C   UNL     1     -35.760  23.498   2.938  0.00  0.00    -0.011 C 
ATOM      4  C   UNL     1     -36.579  25.485   4.258  0.00  0.00    +0.123 C 
ATOM      5  C   UNL     1     -35.807  24.969   5.463  0.00  0.00    +0.099 C 
ATOM      6  C   UNL     1     -35.558  22.779   4.125  0.00  0.00    +0.065 C 
ATOM      7  C   UNL     1     -35.695  22.817   1.714  0.00  0.00    +0.027 C 
ATOM      8  C   UNL     1     -35.587  23.470   5.437  0.00  0.00    +0.178 C 
ATOM      9  C   UNL     1     -35.457  21.443   1.675  0.00  0.00    -0.016 C 
ATOM     10  C   UNL     1     -35.322  21.399   4.085  0.00  0.00    +0.136 C 
ATOM     11  C   UNL     1     -35.275  20.734   2.859  0.00  0.00    +0.033 C 
ATOM     12  C   UNL     1     -35.388  20.689   0.384  0.00  0.00    +0.031 C 
ENDROOT
BRANCH   7  15
ATOM     13  O   UNL     1     -34.649  24.031  -0.123  0.00  0.00    -0.421 OA
ATOM     14  O   UNL     1     -33.611  25.160  -1.800  0.00  0.00    -0.244 OA
ATOM     15  C   UNL     1     -35.856  23.529   0.433  0.00  0.00    +0.151 C 
ATOM     16  C   UNL     1     -37.033  23.722  -0.179  0.00  0.00    +0.074 C 
ATOM     17  C   UNL     1     -37.063  24.440  -1.421  0.00  0.00    +0.143 C 
ATOM     18  C   UNL     1     -34.643  24.721  -1.305  0.00  0.00    +0.349 C 
ATOM     19  C   UNL     1     -35.944  24.922  -1.973  0.00  0.00    +0.119 C 
BRANCH  17  20
ATOM     20  O   UNL     1     -38.311  24.586  -1.982  0.00  0.00    -0.505 OA
ATOM     21  H   UNL     1     -38.396  24.896  -2.861  0.00  0.00    +0.292 HD
ENDBRANCH  17  20
ENDBRANCH   7  15
BRANCH   4  22
ATOM     22  O   UNL     1     -37.957  25.128   4.362  0.00  0.00    -0.384 OA
ATOM     23  H   UNL     1     -38.388  25.245   3.501  0.00  0.00    +0.210 HD
ENDBRANCH   4  22
BRANCH  10  24
ATOM     24  O   UNL     1     -35.129  20.647   5.206  0.00  0.00    -0.505 OA
ATOM     25  H   UNL     1     -35.766  20.007   5.456  0.00  0.00    +0.292 HD
ENDBRANCH  10  24
TORSDOF 4
ENDMDL
