MODEL 1
REMARK VINA RESULT:      -6.9      0.000      0.000
REMARK  Name = 5312139
REMARK  6 active torsions:
REMARK  status: ('A' for Active; 'I' for Inactive)
REMARK    1  A    between atoms: C_1  and  S_7
REMARK    2  A    between atoms: C_2  and  N_22
REMARK    3  A    between atoms: C_5  and  N_21
REMARK    4  A    between atoms: S_7  and  N_11
REMARK    5  A    between atoms: N_12  and  C_16
REMARK    6  A    between atoms: N_22  and  C_24
REMARK                            x       y       z     vdW  Elec       q    Type
REMARK                         _______ _______ _______ _____ _____    ______ ____
ROOT
ATOM      1  C   UNL     1     -35.516  26.549   3.515  0.00  0.00    +0.140 C 
ATOM      2  C   UNL     1     -36.616  25.714   3.635  0.00  0.00    +0.068 C 
ATOM      3  C   UNL     1     -35.467  27.534   2.539  0.00  0.00    +0.046 C 
ATOM      4  C   UNL     1     -37.691  25.864   2.760  0.00  0.00    +0.018 C 
ATOM      5  C   UNL     1     -36.542  27.685   1.663  0.00  0.00    +0.144 C 
ATOM      6  C   UNL     1     -37.654  26.851   1.774  0.00  0.00    +0.025 C 
ENDROOT
BRANCH   1   7
ATOM      7  S   UNL     1     -34.134  26.389   4.605  0.00  0.00    +0.078 S 
ATOM      8  O   UNL     1     -33.346  25.252   4.169  0.00  0.00    -0.150 OA
ATOM      9  O   UNL     1     -34.657  26.447   5.956  0.00  0.00    -0.150 OA
BRANCH   7  11
ATOM     10  O   UNL     1     -31.601  27.657   5.879  0.00  0.00    -0.251 OA
ATOM     11  N   UNL     1     -33.282  27.832   4.267  0.00  0.00    -0.169 N 
ATOM     12  N   UNL     1     -31.640  29.487   4.467  0.00  0.00    -0.289 N 
ATOM     13  C   UNL     1     -32.113  28.285   4.958  0.00  0.00    +0.319 C 
ATOM     14  H   UNL     1     -33.623  28.397   3.537  0.00  0.00    +0.178 HD
ATOM     15  H   UNL     1     -32.123  29.913   3.723  0.00  0.00    +0.151 HD
BRANCH  12  16
ATOM     16  C   UNL     1     -30.469  30.145   4.998  0.00  0.00    +0.073 C 
ATOM     17  C   UNL     1     -29.207  29.611   4.331  0.00  0.00    +0.021 C 
ATOM     18  C   UNL     1     -30.586  31.653   4.827  0.00  0.00    +0.021 C 
ENDBRANCH  12  16
ENDBRANCH   7  11
ENDBRANCH   1   7
BRANCH   5  21
ATOM     19  O   UNL     1     -37.312  29.646   0.726  0.00  0.00    -0.126 OA
ATOM     20  O   UNL     1     -35.665  28.588  -0.269  0.00  0.00    -0.126 OA
ATOM     21  N   UNL     1     -36.505  28.687   0.658  0.00  0.00    +0.058 N 
ENDBRANCH   5  21
BRANCH   2  22
ATOM     22  N   UNL     1     -36.677  24.707   4.626  0.00  0.00    -0.311 N 
ATOM     23  H   UNL     1     -37.231  24.950   5.403  0.00  0.00    +0.152 HD
BRANCH  22  24
ATOM     24  C   UNL     1     -36.102  23.427   4.718  0.00  0.00    +0.048 C 
ATOM     25  C   UNL     1     -36.006  22.617   3.585  0.00  0.00    +0.010 C 
ATOM     26  C   UNL     1     -35.437  21.347   3.678  0.00  0.00    -0.021 C 
ATOM     27  C   UNL     1     -35.625  22.961   5.945  0.00  0.00    +0.015 C 
ATOM     28  C   UNL     1     -34.961  20.885   4.904  0.00  0.00    -0.004 C 
ATOM     29  C   UNL     1     -35.056  21.691   6.039  0.00  0.00    +0.001 C 
ATOM     30  C   UNL     1     -35.334  20.484   2.465  0.00  0.00    +0.031 C 
ENDBRANCH  22  24
ENDBRANCH   2  22
TORSDOF 6
ENDMDL
MODEL 2
REMARK VINA RESULT:      -6.6      4.219      7.296
REMARK  Name = 5312139
REMARK  6 active torsions:
REMARK  status: ('A' for Active; 'I' for Inactive)
REMARK    1  A    between atoms: C_1  and  S_7
REMARK    2  A    between atoms: C_2  and  N_22
REMARK    3  A    between atoms: C_5  and  N_21
REMARK    4  A    between atoms: S_7  and  N_11
REMARK    5  A    between atoms: N_12  and  C_16
REMARK    6  A    between atoms: N_22  and  C_24
REMARK                            x       y       z     vdW  Elec       q    Type
REMARK                         _______ _______ _______ _____ _____    ______ ____
ROOT
ATOM      1  C   UNL     1     -36.865  23.159   3.340  0.00  0.00    +0.140 C 
ATOM      2  C   UNL     1     -36.152  22.015   3.661  0.00  0.00    +0.068 C 
ATOM      3  C   UNL     1     -36.598  24.369   3.964  0.00  0.00    +0.046 C 
ATOM      4  C   UNL     1     -35.151  22.079   4.630  0.00  0.00    +0.018 C 
ATOM      5  C   UNL     1     -35.597  24.434   4.933  0.00  0.00    +0.144 C 
ATOM      6  C   UNL     1     -34.873  23.290   5.266  0.00  0.00    +0.025 C 
ENDROOT
BRANCH   1   7
ATOM      7  S   UNL     1     -38.141  23.117   2.118  0.00  0.00    +0.078 S 
ATOM      8  O   UNL     1     -38.919  21.909   2.320  0.00  0.00    -0.150 OA
ATOM      9  O   UNL     1     -37.508  23.379   0.840  0.00  0.00    -0.150 OA
BRANCH   7  11
ATOM     10  O   UNL     1     -41.042  23.977   1.416  0.00  0.00    -0.251 OA
ATOM     11  N   UNL     1     -39.075  24.474   2.573  0.00  0.00    -0.169 N 
ATOM     12  N   UNL     1     -40.922  25.908   2.682  0.00  0.00    -0.289 N 
ATOM     13  C   UNL     1     -40.420  24.733   2.156  0.00  0.00    +0.319 C 
ATOM     14  H   UNL     1     -38.653  25.133   3.171  0.00  0.00    +0.178 HD
ATOM     15  H   UNL     1     -40.342  26.445   3.268  0.00  0.00    +0.151 HD
BRANCH  12  16
ATOM     16  C   UNL     1     -42.258  26.381   2.411  0.00  0.00    +0.073 C 
ATOM     17  C   UNL     1     -42.928  26.857   3.695  0.00  0.00    +0.021 C 
ATOM     18  C   UNL     1     -42.226  27.487   1.364  0.00  0.00    +0.021 C 
ENDBRANCH  12  16
ENDBRANCH   7  11
ENDBRANCH   1   7
BRANCH   5  21
ATOM     19  O   UNL     1     -36.220  26.533   5.658  0.00  0.00    -0.126 OA
ATOM     20  O   UNL     1     -34.171  25.852   6.062  0.00  0.00    -0.126 OA
ATOM     21  N   UNL     1     -35.316  25.666   5.582  0.00  0.00    +0.058 N 
ENDBRANCH   5  21
BRANCH   2  22
ATOM     22  N   UNL     1     -36.414  20.777   3.031  0.00  0.00    -0.311 N 
ATOM     23  H   UNL     1     -37.167  20.283   3.428  0.00  0.00    +0.152 HD
BRANCH  22  24
ATOM     24  C   UNL     1     -35.808  20.113   1.949  0.00  0.00    +0.048 C 
ATOM     25  C   UNL     1     -34.430  19.884   1.949  0.00  0.00    +0.010 C 
ATOM     26  C   UNL     1     -33.830  19.227   0.875  0.00  0.00    -0.021 C 
ATOM     27  C   UNL     1     -36.582  19.683   0.870  0.00  0.00    +0.015 C 
ATOM     28  C   UNL     1     -34.606  18.798  -0.202  0.00  0.00    -0.004 C 
ATOM     29  C   UNL     1     -35.982  19.026  -0.205  0.00  0.00    +0.001 C 
ATOM     30  C   UNL     1     -32.359  18.982   0.877  0.00  0.00    +0.031 C 
ENDBRANCH  22  24
ENDBRANCH   2  22
TORSDOF 6
ENDMDL
MODEL 3
REMARK VINA RESULT:      -6.6      4.302      8.271
REMARK  Name = 5312139
REMARK  6 active torsions:
REMARK  status: ('A' for Active; 'I' for Inactive)
REMARK    1  A    between atoms: C_1  and  S_7
REMARK    2  A    between atoms: C_2  and  N_22
REMARK    3  A    between atoms: C_5  and  N_21
REMARK    4  A    between atoms: S_7  and  N_11
REMARK    5  A    between atoms: N_12  and  C_16
REMARK    6  A    between atoms: N_22  and  C_24
REMARK                            x       y       z     vdW  Elec       q    Type
REMARK                         _______ _______ _______ _____ _____    ______ ____
ROOT
ATOM      1  C   UNL     1     -36.941  22.527   2.887  0.00  0.00    +0.140 C 
ATOM      2  C   UNL     1     -36.705  23.704   3.578  0.00  0.00    +0.068 C 
ATOM      3  C   UNL     1     -38.141  22.311   2.226  0.00  0.00    +0.046 C 
ATOM      4  C   UNL     1     -37.692  24.689   3.613  0.00  0.00    +0.018 C 
ATOM      5  C   UNL     1     -39.129  23.295   2.260  0.00  0.00    +0.144 C 
ATOM      6  C   UNL     1     -38.904  24.484   2.953  0.00  0.00    +0.025 C 
ENDROOT
BRANCH   1   7
ATOM      7  S   UNL     1     -35.714  21.255   2.820  0.00  0.00    +0.078 S 
ATOM      8  O   UNL     1     -35.321  20.937   4.179  0.00  0.00    -0.150 OA
ATOM      9  O   UNL     1     -34.726  21.677   1.847  0.00  0.00    -0.150 OA
BRANCH   7  11
ATOM     10  O   UNL     1     -35.448  19.636   0.183  0.00  0.00    -0.251 OA
ATOM     11  N   UNL     1     -36.622  19.958   2.176  0.00  0.00    -0.169 N 
ATOM     12  N   UNL     1     -37.267  18.293   0.663  0.00  0.00    -0.289 N 
ATOM     13  C   UNL     1     -36.369  19.310   0.924  0.00  0.00    +0.319 C 
ATOM     14  H   UNL     1     -37.381  19.629   2.709  0.00  0.00    +0.178 HD
ATOM     15  H   UNL     1     -37.973  18.109   1.323  0.00  0.00    +0.151 HD
BRANCH  12  16
ATOM     16  C   UNL     1     -37.215  17.489  -0.536  0.00  0.00    +0.073 C 
ATOM     17  C   UNL     1     -37.851  16.126  -0.293  0.00  0.00    +0.021 C 
ATOM     18  C   UNL     1     -37.892  18.215  -1.690  0.00  0.00    +0.021 C 
ENDBRANCH  12  16
ENDBRANCH   7  11
ENDBRANCH   1   7
BRANCH   5  21
ATOM     19  O   UNL     1     -41.172  24.042   1.495  0.00  0.00    -0.126 OA
ATOM     20  O   UNL     1     -40.612  21.953   1.112  0.00  0.00    -0.126 OA
ATOM     21  N   UNL     1     -40.363  23.086   1.591  0.00  0.00    +0.058 N 
ENDBRANCH   5  21
BRANCH   2  22
ATOM     22  N   UNL     1     -35.485  23.936   4.254  0.00  0.00    -0.311 N 
ATOM     23  H   UNL     1     -35.166  23.161   4.770  0.00  0.00    +0.152 HD
BRANCH  22  24
ATOM     24  C   UNL     1     -34.640  25.057   4.334  0.00  0.00    +0.048 C 
ATOM     25  C   UNL     1     -34.183  25.506   5.575  0.00  0.00    +0.010 C 
ATOM     26  C   UNL     1     -33.346  26.618   5.653  0.00  0.00    -0.021 C 
ATOM     27  C   UNL     1     -34.257  25.728   3.171  0.00  0.00    +0.015 C 
ATOM     28  C   UNL     1     -32.964  27.286   4.490  0.00  0.00    -0.004 C 
ATOM     29  C   UNL     1     -33.420  26.842   3.248  0.00  0.00    +0.001 C 
ATOM     30  C   UNL     1     -32.858  27.094   6.980  0.00  0.00    +0.031 C 
ENDBRANCH  22  24
ENDBRANCH   2  22
TORSDOF 6
ENDMDL
MODEL 4
REMARK VINA RESULT:      -6.5      2.734      5.132
REMARK  Name = 5312139
REMARK  6 active torsions:
REMARK  status: ('A' for Active; 'I' for Inactive)
REMARK    1  A    between atoms: C_1  and  S_7
REMARK    2  A    between atoms: C_2  and  N_22
REMARK    3  A    between atoms: C_5  and  N_21
REMARK    4  A    between atoms: S_7  and  N_11
REMARK    5  A    between atoms: N_12  and  C_16
REMARK    6  A    between atoms: N_22  and  C_24
REMARK                            x       y       z     vdW  Elec       q    Type
REMARK                         _______ _______ _______ _____ _____    ______ ____
ROOT
ATOM      1  C   UNL     1     -35.919  25.817   3.686  0.00  0.00    +0.140 C 
ATOM      2  C   UNL     1     -36.128  24.586   4.289  0.00  0.00    +0.068 C 
ATOM      3  C   UNL     1     -34.934  26.681   4.141  0.00  0.00    +0.046 C 
ATOM      4  C   UNL     1     -35.335  24.211   5.373  0.00  0.00    +0.018 C 
ATOM      5  C   UNL     1     -34.141  26.306   5.226  0.00  0.00    +0.144 C 
ATOM      6  C   UNL     1     -34.341  25.071   5.842  0.00  0.00    +0.025 C 
ENDROOT
BRANCH   1   7
ATOM      7  S   UNL     1     -36.903  26.328   2.309  0.00  0.00    +0.078 S 
ATOM      8  O   UNL     1     -38.286  26.391   2.743  0.00  0.00    -0.150 OA
ATOM      9  O   UNL     1     -36.521  25.494   1.187  0.00  0.00    -0.150 OA
BRANCH   7  11
ATOM     10  O   UNL     1     -37.851  28.628   0.450  0.00  0.00    -0.251 OA
ATOM     11  N   UNL     1     -36.316  27.914   2.059  0.00  0.00    -0.169 N 
ATOM     12  N   UNL     1     -36.188  30.070   1.158  0.00  0.00    -0.289 N 
ATOM     13  C   UNL     1     -36.871  28.869   1.149  0.00  0.00    +0.319 C 
ATOM     14  H   UNL     1     -35.531  28.193   2.584  0.00  0.00    +0.178 HD
ATOM     15  H   UNL     1     -35.412  30.164   1.756  0.00  0.00    +0.151 HD
BRANCH  12  16
ATOM     16  C   UNL     1     -36.561  31.192   0.329  0.00  0.00    +0.073 C 
ATOM     17  C   UNL     1     -37.356  32.211   1.136  0.00  0.00    +0.021 C 
ATOM     18  C   UNL     1     -35.323  31.825  -0.293  0.00  0.00    +0.021 C 
ENDBRANCH  12  16
ENDBRANCH   7  11
ENDBRANCH   1   7
BRANCH   5  21
ATOM     19  O   UNL     1     -32.863  28.217   5.047  0.00  0.00    -0.126 OA
ATOM     20  O   UNL     1     -32.534  26.897   6.770  0.00  0.00    -0.126 OA
ATOM     21  N   UNL     1     -33.131  27.181   5.704  0.00  0.00    +0.058 N 
ENDBRANCH   5  21
BRANCH   2  22
ATOM     22  N   UNL     1     -37.128  23.697   3.834  0.00  0.00    -0.311 N 
ATOM     23  H   UNL     1     -38.021  23.884   4.203  0.00  0.00    +0.152 HD
BRANCH  22  24
ATOM     24  C   UNL     1     -37.095  22.598   2.956  0.00  0.00    +0.048 C 
ATOM     25  C   UNL     1     -35.929  21.842   2.820  0.00  0.00    +0.010 C 
ATOM     26  C   UNL     1     -35.897  20.754   1.949  0.00  0.00    -0.021 C 
ATOM     27  C   UNL     1     -38.230  22.260   2.216  0.00  0.00    +0.015 C 
ATOM     28  C   UNL     1     -37.032  20.418   1.212  0.00  0.00    -0.004 C 
ATOM     29  C   UNL     1     -38.199  21.172   1.344  0.00  0.00    +0.001 C 
ATOM     30  C   UNL     1     -34.651  19.947   1.807  0.00  0.00    +0.031 C 
ENDBRANCH  22  24
ENDBRANCH   2  22
TORSDOF 6
ENDMDL
MODEL 5
REMARK VINA RESULT:      -6.4      4.775      8.268
REMARK  Name = 5312139
REMARK  6 active torsions:
REMARK  status: ('A' for Active; 'I' for Inactive)
REMARK    1  A    between atoms: C_1  and  S_7
REMARK    2  A    between atoms: C_2  and  N_22
REMARK    3  A    between atoms: C_5  and  N_21
REMARK    4  A    between atoms: S_7  and  N_11
REMARK    5  A    between atoms: N_12  and  C_16
REMARK    6  A    between atoms: N_22  and  C_24
REMARK                            x       y       z     vdW  Elec       q    Type
REMARK                         _______ _______ _______ _____ _____    ______ ____
ROOT
ATOM      1  C   UNL     1     -37.211  21.775   2.118  0.00  0.00    +0.140 C 
ATOM      2  C   UNL     1     -37.686  22.820   2.895  0.00  0.00    +0.068 C 
ATOM      3  C   UNL     1     -38.004  21.191   1.141  0.00  0.00    +0.046 C 
ATOM      4  C   UNL     1     -38.983  23.291   2.692  0.00  0.00    +0.018 C 
ATOM      5  C   UNL     1     -39.301  21.661   0.938  0.00  0.00    +0.144 C 
ATOM      6  C   UNL     1     -39.791  22.712   1.713  0.00  0.00    +0.025 C 
ENDROOT
BRANCH   1   7
ATOM      7  S   UNL     1     -35.573  21.150   2.344  0.00  0.00    +0.078 S 
ATOM      8  O   UNL     1     -35.426  20.765   3.734  0.00  0.00    -0.150 OA
ATOM      9  O   UNL     1     -34.670  22.115   1.748  0.00  0.00    -0.150 OA
BRANCH   7  11
ATOM     10  O   UNL     1     -33.358  19.174   1.432  0.00  0.00    -0.251 OA
ATOM     11  N   UNL     1     -35.621  19.747   1.370  0.00  0.00    -0.169 N 
ATOM     12  N   UNL     1     -34.833  17.860   0.230  0.00  0.00    -0.289 N 
ATOM     13  C   UNL     1     -34.493  18.931   1.034  0.00  0.00    +0.319 C 
ATOM     14  H   UNL     1     -36.497  19.476   1.010  0.00  0.00    +0.178 HD
ATOM     15  H   UNL     1     -35.775  17.753  -0.035  0.00  0.00    +0.151 HD
BRANCH  12  16
ATOM     16  C   UNL     1     -33.869  16.893  -0.237  0.00  0.00    +0.073 C 
ATOM     17  C   UNL     1     -34.504  15.511  -0.340  0.00  0.00    +0.021 C 
ATOM     18  C   UNL     1     -33.283  17.331  -1.573  0.00  0.00    +0.021 C 
ENDBRANCH  12  16
ENDBRANCH   7  11
ENDBRANCH   1   7
BRANCH   5  21
ATOM     19  O   UNL     1     -39.679  20.957  -1.225  0.00  0.00    -0.126 OA
ATOM     20  O   UNL     1     -41.273  20.678   0.259  0.00  0.00    -0.126 OA
ATOM     21  N   UNL     1     -40.124  21.071  -0.057  0.00  0.00    +0.058 N 
ENDBRANCH   5  21
BRANCH   2  22
ATOM     22  N   UNL     1     -36.887  23.424   3.892  0.00  0.00    -0.311 N 
ATOM     23  H   UNL     1     -36.897  22.943   4.751  0.00  0.00    +0.152 HD
BRANCH  22  24
ATOM     24  C   UNL     1     -36.082  24.578   3.897  0.00  0.00    +0.048 C 
ATOM     25  C   UNL     1     -35.316  24.895   5.022  0.00  0.00    +0.010 C 
ATOM     26  C   UNL     1     -34.520  26.039   5.026  0.00  0.00    -0.021 C 
ATOM     27  C   UNL     1     -36.049  25.412   2.778  0.00  0.00    +0.015 C 
ATOM     28  C   UNL     1     -34.488  26.870   3.906  0.00  0.00    -0.004 C 
ATOM     29  C   UNL     1     -35.252  26.557   2.782  0.00  0.00    +0.001 C 
ATOM     30  C   UNL     1     -33.702  26.375   6.226  0.00  0.00    +0.031 C 
ENDBRANCH  22  24
ENDBRANCH   2  22
TORSDOF 6
ENDMDL
MODEL 6
REMARK VINA RESULT:      -6.4      2.828      4.176
REMARK  Name = 5312139
REMARK  6 active torsions:
REMARK  status: ('A' for Active; 'I' for Inactive)
REMARK    1  A    between atoms: C_1  and  S_7
REMARK    2  A    between atoms: C_2  and  N_22
REMARK    3  A    between atoms: C_5  and  N_21
REMARK    4  A    between atoms: S_7  and  N_11
REMARK    5  A    between atoms: N_12  and  C_16
REMARK    6  A    between atoms: N_22  and  C_24
REMARK                            x       y       z     vdW  Elec       q    Type
REMARK                         _______ _______ _______ _____ _____    ______ ____
ROOT
ATOM      1  C   UNL     1     -37.467  24.192   3.295  0.00  0.00    +0.140 C 
ATOM      2  C   UNL     1     -37.891  22.970   2.798  0.00  0.00    +0.068 C 
ATOM      3  C   UNL     1     -38.253  25.329   3.169  0.00  0.00    +0.046 C 
ATOM      4  C   UNL     1     -39.127  22.881   2.158  0.00  0.00    +0.018 C 
ATOM      5  C   UNL     1     -39.489  25.240   2.529  0.00  0.00    +0.144 C 
ATOM      6  C   UNL     1     -39.926  24.016   2.024  0.00  0.00    +0.025 C 
ENDROOT
BRANCH   1   7
ATOM      7  S   UNL     1     -35.907  24.345   4.112  0.00  0.00    +0.078 S 
ATOM      8  O   UNL     1     -34.882  23.825   3.228  0.00  0.00    -0.150 OA
ATOM      9  O   UNL     1     -36.077  23.799   5.444  0.00  0.00    -0.150 OA
BRANCH   7  11
ATOM     10  O   UNL     1     -34.549  26.430   2.254  0.00  0.00    -0.251 OA
ATOM     11  N   UNL     1     -35.757  26.045   4.215  0.00  0.00    -0.169 N 
ATOM     12  N   UNL     1     -35.126  28.214   3.606  0.00  0.00    -0.289 N 
ATOM     13  C   UNL     1     -35.088  26.877   3.261  0.00  0.00    +0.319 C 
ATOM     14  H   UNL     1     -36.165  26.488   4.993  0.00  0.00    +0.178 HD
ATOM     15  H   UNL     1     -35.584  28.472   4.438  0.00  0.00    +0.151 HD
BRANCH  12  16
ATOM     16  C   UNL     1     -34.523  29.250   2.799  0.00  0.00    +0.073 C 
ATOM     17  C   UNL     1     -35.354  30.526   2.861  0.00  0.00    +0.021 C 
ATOM     18  C   UNL     1     -33.090  29.503   3.247  0.00  0.00    +0.021 C 
ENDBRANCH  12  16
ENDBRANCH   7  11
ENDBRANCH   1   7
BRANCH   5  21
ATOM     19  O   UNL     1     -40.367  26.963   1.273  0.00  0.00    -0.126 OA
ATOM     20  O   UNL     1     -40.933  26.819   3.389  0.00  0.00    -0.126 OA
ATOM     21  N   UNL     1     -40.301  26.396   2.390  0.00  0.00    +0.058 N 
ENDBRANCH   5  21
BRANCH   2  22
ATOM     22  N   UNL     1     -37.100  21.805   2.921  0.00  0.00    -0.311 N 
ATOM     23  H   UNL     1     -36.895  21.563   3.853  0.00  0.00    +0.152 HD
BRANCH  22  24
ATOM     24  C   UNL     1     -36.549  20.924   1.972  0.00  0.00    +0.048 C 
ATOM     25  C   UNL     1     -35.262  20.413   2.153  0.00  0.00    +0.010 C 
ATOM     26  C   UNL     1     -34.716  19.542   1.211  0.00  0.00    -0.021 C 
ATOM     27  C   UNL     1     -37.288  20.560   0.845  0.00  0.00    +0.015 C 
ATOM     28  C   UNL     1     -35.456  19.179   0.086  0.00  0.00    -0.004 C 
ATOM     29  C   UNL     1     -36.742  19.688  -0.098  0.00  0.00    +0.001 C 
ATOM     30  C   UNL     1     -33.342  18.996   1.406  0.00  0.00    +0.031 C 
ENDBRANCH  22  24
ENDBRANCH   2  22
TORSDOF 6
ENDMDL
MODEL 7
REMARK VINA RESULT:      -6.3      2.893      6.585
REMARK  Name = 5312139
REMARK  6 active torsions:
REMARK  status: ('A' for Active; 'I' for Inactive)
REMARK    1  A    between atoms: C_1  and  S_7
REMARK    2  A    between atoms: C_2  and  N_22
REMARK    3  A    between atoms: C_5  and  N_21
REMARK    4  A    between atoms: S_7  and  N_11
REMARK    5  A    between atoms: N_12  and  C_16
REMARK    6  A    between atoms: N_22  and  C_24
REMARK                            x       y       z     vdW  Elec       q    Type
REMARK                         _______ _______ _______ _____ _____    ______ ____
ROOT
ATOM      1  C   UNL     1     -35.893  25.745   3.620  0.00  0.00    +0.140 C 
ATOM      2  C   UNL     1     -36.076  24.515   4.232  0.00  0.00    +0.068 C 
ATOM      3  C   UNL     1     -34.932  26.637   4.075  0.00  0.00    +0.046 C 
ATOM      4  C   UNL     1     -35.281  24.167   5.324  0.00  0.00    +0.018 C 
ATOM      5  C   UNL     1     -34.137  26.290   5.167  0.00  0.00    +0.144 C 
ATOM      6  C   UNL     1     -34.311  25.055   5.791  0.00  0.00    +0.025 C 
ENDROOT
BRANCH   1   7
ATOM      7  S   UNL     1     -36.880  26.222   2.234  0.00  0.00    +0.078 S 
ATOM      8  O   UNL     1     -36.713  25.222   1.197  0.00  0.00    -0.150 OA
ATOM      9  O   UNL     1     -36.583  27.616   1.967  0.00  0.00    -0.150 OA
BRANCH   7  11
ATOM     10  O   UNL     1     -39.672  27.007   1.121  0.00  0.00    -0.251 OA
ATOM     11  N   UNL     1     -38.452  26.097   2.893  0.00  0.00    -0.169 N 
ATOM     12  N   UNL     1     -40.782  26.289   3.018  0.00  0.00    -0.289 N 
ATOM     13  C   UNL     1     -39.659  26.513   2.244  0.00  0.00    +0.319 C 
ATOM     14  H   UNL     1     -38.535  25.707   3.793  0.00  0.00    +0.178 HD
ATOM     15  H   UNL     1     -40.665  25.886   3.908  0.00  0.00    +0.151 HD
BRANCH  12  16
ATOM     16  C   UNL     1     -42.117  26.621   2.578  0.00  0.00    +0.073 C 
ATOM     17  C   UNL     1     -42.682  25.509   1.703  0.00  0.00    +0.021 C 
ATOM     18  C   UNL     1     -43.016  26.891   3.776  0.00  0.00    +0.021 C 
ENDBRANCH  12  16
ENDBRANCH   7  11
ENDBRANCH   1   7
BRANCH   5  21
ATOM     19  O   UNL     1     -32.542  26.922   6.707  0.00  0.00    -0.126 OA
ATOM     20  O   UNL     1     -32.917  28.238   4.990  0.00  0.00    -0.126 OA
ATOM     21  N   UNL     1     -33.152  27.194   5.644  0.00  0.00    +0.058 N 
ENDBRANCH   5  21
BRANCH   2  22
ATOM     22  N   UNL     1     -37.051  23.598   3.777  0.00  0.00    -0.311 N 
ATOM     23  H   UNL     1     -37.952  23.771   4.133  0.00  0.00    +0.152 HD
BRANCH  22  24
ATOM     24  C   UNL     1     -36.984  22.488   2.916  0.00  0.00    +0.048 C 
ATOM     25  C   UNL     1     -35.801  21.753   2.808  0.00  0.00    +0.010 C 
ATOM     26  C   UNL     1     -35.736  20.653   1.953  0.00  0.00    -0.021 C 
ATOM     27  C   UNL     1     -38.101  22.119   2.164  0.00  0.00    +0.015 C 
ATOM     28  C   UNL     1     -36.853  20.286   1.204  0.00  0.00    -0.004 C 
ATOM     29  C   UNL     1     -38.036  21.019   1.308  0.00  0.00    +0.001 C 
ATOM     30  C   UNL     1     -34.472  19.869   1.842  0.00  0.00    +0.031 C 
ENDBRANCH  22  24
ENDBRANCH   2  22
TORSDOF 6
ENDMDL
MODEL 8
REMARK VINA RESULT:      -6.3      3.115      4.103
REMARK  Name = 5312139
REMARK  6 active torsions:
REMARK  status: ('A' for Active; 'I' for Inactive)
REMARK    1  A    between atoms: C_1  and  S_7
REMARK    2  A    between atoms: C_2  and  N_22
REMARK    3  A    between atoms: C_5  and  N_21
REMARK    4  A    between atoms: S_7  and  N_11
REMARK    5  A    between atoms: N_12  and  C_16
REMARK    6  A    between atoms: N_22  and  C_24
REMARK                            x       y       z     vdW  Elec       q    Type
REMARK                         _______ _______ _______ _____ _____    ______ ____
ROOT
ATOM      1  C   UNL     1     -37.363  24.060   3.545  0.00  0.00    +0.140 C 
ATOM      2  C   UNL     1     -37.418  22.826   2.915  0.00  0.00    +0.068 C 
ATOM      3  C   UNL     1     -38.406  24.967   3.436  0.00  0.00    +0.046 C 
ATOM      4  C   UNL     1     -38.541  22.492   2.159  0.00  0.00    +0.018 C 
ATOM      5  C   UNL     1     -39.529  24.634   2.680  0.00  0.00    +0.144 C 
ATOM      6  C   UNL     1     -39.597  23.396   2.041  0.00  0.00    +0.025 C 
ENDROOT
BRANCH   1   7
ATOM      7  S   UNL     1     -35.957  24.520   4.512  0.00  0.00    +0.078 S 
ATOM      8  O   UNL     1     -35.407  23.318   5.109  0.00  0.00    -0.150 OA
ATOM      9  O   UNL     1     -36.367  25.633   5.345  0.00  0.00    -0.150 OA
BRANCH   7  11
ATOM     10  O   UNL     1     -33.166  25.875   4.655  0.00  0.00    -0.251 OA
ATOM     11  N   UNL     1     -34.895  25.086   3.298  0.00  0.00    -0.169 N 
ATOM     12  N   UNL     1     -32.984  26.056   2.357  0.00  0.00    -0.289 N 
ATOM     13  C   UNL     1     -33.623  25.699   3.530  0.00  0.00    +0.319 C 
ATOM     14  H   UNL     1     -35.182  24.980   2.362  0.00  0.00    +0.178 HD
ATOM     15  H   UNL     1     -33.436  25.871   1.502  0.00  0.00    +0.151 HD
BRANCH  12  16
ATOM     16  C   UNL     1     -31.686  26.687   2.331  0.00  0.00    +0.073 C 
ATOM     17  C   UNL     1     -30.995  26.432   0.997  0.00  0.00    +0.021 C 
ATOM     18  C   UNL     1     -31.817  28.179   2.608  0.00  0.00    +0.021 C 
ENDBRANCH  12  16
ENDBRANCH   7  11
ENDBRANCH   1   7
BRANCH   5  21
ATOM     19  O   UNL     1     -41.558  25.277   1.792  0.00  0.00    -0.126 OA
ATOM     20  O   UNL     1     -40.569  26.619   3.221  0.00  0.00    -0.126 OA
ATOM     21  N   UNL     1     -40.604  25.554   2.559  0.00  0.00    +0.058 N 
ENDBRANCH   5  21
BRANCH   2  22
ATOM     22  N   UNL     1     -36.362  21.893   3.019  0.00  0.00    -0.311 N 
ATOM     23  H   UNL     1     -36.326  21.431   3.887  0.00  0.00    +0.152 HD
BRANCH  22  24
ATOM     24  C   UNL     1     -35.352  21.496   2.124  0.00  0.00    +0.048 C 
ATOM     25  C   UNL     1     -34.819  20.206   2.193  0.00  0.00    +0.010 C 
ATOM     26  C   UNL     1     -33.817  19.815   1.306  0.00  0.00    -0.021 C 
ATOM     27  C   UNL     1     -34.877  22.391   1.164  0.00  0.00    +0.015 C 
ATOM     28  C   UNL     1     -33.345  20.711   0.347  0.00  0.00    -0.004 C 
ATOM     29  C   UNL     1     -33.875  22.000   0.276  0.00  0.00    +0.001 C 
ATOM     30  C   UNL     1     -33.251  18.437   1.381  0.00  0.00    +0.031 C 
ENDBRANCH  22  24
ENDBRANCH   2  22
TORSDOF 6
ENDMDL
MODEL 9
REMARK VINA RESULT:      -6.2      5.536      9.227
REMARK  Name = 5312139
REMARK  6 active torsions:
REMARK  status: ('A' for Active; 'I' for Inactive)
REMARK    1  A    between atoms: C_1  and  S_7
REMARK    2  A    between atoms: C_2  and  N_22
REMARK    3  A    between atoms: C_5  and  N_21
REMARK    4  A    between atoms: S_7  and  N_11
REMARK    5  A    between atoms: N_12  and  C_16
REMARK    6  A    between atoms: N_22  and  C_24
REMARK                            x       y       z     vdW  Elec       q    Type
REMARK                         _______ _______ _______ _____ _____    ______ ____
ROOT
ATOM      1  C   UNL     1     -36.853  21.241   1.591  0.00  0.00    +0.140 C 
ATOM      2  C   UNL     1     -35.698  20.751   2.180  0.00  0.00    +0.068 C 
ATOM      3  C   UNL     1     -37.517  22.339   2.117  0.00  0.00    +0.046 C 
ATOM      4  C   UNL     1     -35.196  21.372   3.324  0.00  0.00    +0.018 C 
ATOM      5  C   UNL     1     -37.015  22.960   3.261  0.00  0.00    +0.144 C 
ATOM      6  C   UNL     1     -35.854  22.477   3.864  0.00  0.00    +0.025 C 
ENDROOT
BRANCH   1   7
ATOM      7  S   UNL     1     -37.521  20.482   0.141  0.00  0.00    +0.078 S 
ATOM      8  O   UNL     1     -37.380  19.045   0.279  0.00  0.00    -0.150 OA
ATOM      9  O   UNL     1     -36.945  21.171  -0.997  0.00  0.00    -0.150 OA
BRANCH   7  11
ATOM     10  O   UNL     1     -39.939  20.087  -1.768  0.00  0.00    -0.251 OA
ATOM     11  N   UNL     1     -39.171  20.905   0.280  0.00  0.00    -0.169 N 
ATOM     12  N   UNL     1     -41.424  21.105  -0.319  0.00  0.00    -0.289 N 
ATOM     13  C   UNL     1     -40.178  20.651  -0.705  0.00  0.00    +0.319 C 
ATOM     14  H   UNL     1     -39.452  21.360   1.107  0.00  0.00    +0.178 HD
ATOM     15  H   UNL     1     -41.513  21.546   0.557  0.00  0.00    +0.151 HD
BRANCH  12  16
ATOM     16  C   UNL     1     -42.602  20.961  -1.142  0.00  0.00    +0.073 C 
ATOM     17  C   UNL     1     -43.512  19.872  -0.586  0.00  0.00    +0.021 C 
ATOM     18  C   UNL     1     -43.336  22.290  -1.252  0.00  0.00    +0.021 C 
ENDBRANCH  12  16
ENDBRANCH   7  11
ENDBRANCH   1   7
BRANCH   5  21
ATOM     19  O   UNL     1     -38.863  24.327   3.450  0.00  0.00    -0.126 OA
ATOM     20  O   UNL     1     -37.084  24.802   4.646  0.00  0.00    -0.126 OA
ATOM     21  N   UNL     1     -37.686  24.084   3.812  0.00  0.00    +0.058 N 
ENDBRANCH   5  21
BRANCH   2  22
ATOM     22  N   UNL     1     -35.013  19.633   1.653  0.00  0.00    -0.311 N 
ATOM     23  H   UNL     1     -35.563  18.818   1.605  0.00  0.00    +0.152 HD
BRANCH  22  24
ATOM     24  C   UNL     1     -33.699  19.459   1.183  0.00  0.00    +0.048 C 
ATOM     25  C   UNL     1     -33.090  20.453   0.413  0.00  0.00    +0.010 C 
ATOM     26  C   UNL     1     -31.788  20.278  -0.054  0.00  0.00    -0.021 C 
ATOM     27  C   UNL     1     -32.998  18.289   1.483  0.00  0.00    +0.015 C 
ATOM     28  C   UNL     1     -31.090  19.108   0.248  0.00  0.00    -0.004 C 
ATOM     29  C   UNL     1     -31.695  18.113   1.016  0.00  0.00    +0.001 C 
ATOM     30  C   UNL     1     -31.140  21.341  -0.874  0.00  0.00    +0.031 C 
ENDBRANCH  22  24
ENDBRANCH   2  22
TORSDOF 6
ENDMDL
