MODEL 1
REMARK VINA RESULT:      -5.7      0.000      0.000
REMARK  Name = 193415
REMARK  11 active torsions:
REMARK  status: ('A' for Active; 'I' for Inactive)
REMARK    1  A    between atoms: C_1  and  C_3
REMARK    2  A    between atoms: C_1  and  O_14
REMARK    3  A    between atoms: C_1  and  C_16
REMARK    4  A    between atoms: C_6  and  C_10
REMARK    5  A    between atoms: C_10  and  O_11
REMARK    6  A    between atoms: O_11  and  C_12
REMARK    7  A    between atoms: C_16  and  O_17
REMARK    8  A    between atoms: C_16  and  C_19
REMARK    9  A    between atoms: C_19  and  O_20
REMARK   10  A    between atoms: C_19  and  C_22
REMARK   11  A    between atoms: C_22  and  O_23
REMARK                            x       y       z     vdW  Elec       q    Type
REMARK                         _______ _______ _______ _____ _____    ______ ____
ROOT
ATOM      1  C   UNL     1     -35.741  21.507   1.653  0.00  0.00    +0.175 C 
ENDROOT
BRANCH   1   3
ATOM      2  N   UNL     1     -35.610  21.628   4.127  0.00  0.00    -0.317 N 
ATOM      3  C   UNL     1     -35.577  22.281   2.946  0.00  0.00    +0.055 C 
ATOM      4  C   UNL     1     -35.390  23.604   3.138  0.00  0.00    +0.020 C 
ATOM      5  C   UNL     1     -35.440  22.550   5.127  0.00  0.00    +0.032 C 
ATOM      6  C   UNL     1     -35.300  23.788   4.540  0.00  0.00    +0.086 C 
ATOM      7  C   UNL     1     -35.431  22.139   6.544  0.00  0.00    +0.047 C 
ATOM      8  H   UNL     1     -35.734  20.659   4.249  0.00  0.00    +0.152 HD
BRANCH   6  10
ATOM      9  O   UNL     1     -36.023  25.728   5.689  0.00  0.00    -0.245 OA
ATOM     10  C   UNL     1     -35.101  25.019   5.251  0.00  0.00    +0.342 C 
BRANCH  10  11
ATOM     11  O   UNL     1     -33.775  25.368   5.417  0.00  0.00    -0.445 OA
BRANCH  11  12
ATOM     12  C   UNL     1     -33.476  26.764   5.513  0.00  0.00    +0.209 C 
ATOM     13  C   UNL     1     -32.819  27.037   6.850  0.00  0.00    +0.051 C 
ENDBRANCH  11  12
ENDBRANCH  10  11
ENDBRANCH   6  10
ENDBRANCH   1   3
BRANCH   1  14
ATOM     14  O   UNL     1     -34.583  20.690   1.491  0.00  0.00    -0.376 OA
ATOM     15  H   UNL     1     -34.615  20.251   0.627  0.00  0.00    +0.211 HD
ENDBRANCH   1  14
BRANCH   1  16
ATOM     16  C   UNL     1     -37.007  20.629   1.655  0.00  0.00    +0.172 C 
BRANCH  16  17
ATOM     17  O   UNL     1     -36.824  19.555   2.580  0.00  0.00    -0.379 OA
ATOM     18  H   UNL     1     -36.821  19.905   3.485  0.00  0.00    +0.211 HD
ENDBRANCH  16  17
BRANCH  16  19
ATOM     19  C   UNL     1     -37.354  20.049   0.271  0.00  0.00    +0.169 C 
BRANCH  19  20
ATOM     20  O   UNL     1     -38.763  19.818   0.203  0.00  0.00    -0.379 OA
ATOM     21  H   UNL     1     -39.137  19.832   1.099  0.00  0.00    +0.211 HD
ENDBRANCH  19  20
BRANCH  19  22
ATOM     22  C   UNL     1     -36.634  18.731  -0.004  0.00  0.00    +0.169 C 
BRANCH  22  23
ATOM     23  O   UNL     1     -37.420  17.662   0.513  0.00  0.00    -0.379 OA
ATOM     24  H   UNL     1     -37.810  17.927   1.361  0.00  0.00    +0.211 HD
ENDBRANCH  22  23
ENDBRANCH  19  22
ENDBRANCH  16  19
ENDBRANCH   1  16
TORSDOF 11
ENDMDL
MODEL 2
REMARK VINA RESULT:      -5.5      3.027      4.702
REMARK  Name = 193415
REMARK  11 active torsions:
REMARK  status: ('A' for Active; 'I' for Inactive)
REMARK    1  A    between atoms: C_1  and  C_3
REMARK    2  A    between atoms: C_1  and  O_14
REMARK    3  A    between atoms: C_1  and  C_16
REMARK    4  A    between atoms: C_6  and  C_10
REMARK    5  A    between atoms: C_10  and  O_11
REMARK    6  A    between atoms: O_11  and  C_12
REMARK    7  A    between atoms: C_16  and  O_17
REMARK    8  A    between atoms: C_16  and  C_19
REMARK    9  A    between atoms: C_19  and  O_20
REMARK   10  A    between atoms: C_19  and  C_22
REMARK   11  A    between atoms: C_22  and  O_23
REMARK                            x       y       z     vdW  Elec       q    Type
REMARK                         _______ _______ _______ _____ _____    ______ ____
ROOT
ATOM      1  C   UNL     1     -36.701  24.393   4.428  0.00  0.00    +0.175 C 
ENDROOT
BRANCH   1   3
ATOM      2  N   UNL     1     -36.119  26.514   3.280  0.00  0.00    -0.317 N 
ATOM      3  C   UNL     1     -35.745  25.531   4.125  0.00  0.00    +0.055 C 
ATOM      4  C   UNL     1     -34.495  25.750   4.588  0.00  0.00    +0.020 C 
ATOM      5  C   UNL     1     -35.084  27.408   3.182  0.00  0.00    +0.032 C 
ATOM      6  C   UNL     1     -34.060  26.956   3.986  0.00  0.00    +0.086 C 
ATOM      7  C   UNL     1     -35.191  28.601   2.322  0.00  0.00    +0.047 C 
ATOM      8  H   UNL     1     -36.984  26.579   2.815  0.00  0.00    +0.152 HD
BRANCH   6  10
ATOM      9  O   UNL     1     -31.726  27.208   3.675  0.00  0.00    -0.245 OA
ATOM     10  C   UNL     1     -32.797  27.615   4.157  0.00  0.00    +0.342 C 
BRANCH  10  11
ATOM     11  O   UNL     1     -32.859  28.766   4.919  0.00  0.00    -0.445 OA
BRANCH  11  12
ATOM     12  C   UNL     1     -31.764  29.020   5.806  0.00  0.00    +0.209 C 
ATOM     13  C   UNL     1     -31.794  30.474   6.222  0.00  0.00    +0.051 C 
ENDBRANCH  11  12
ENDBRANCH  10  11
ENDBRANCH   6  10
ENDBRANCH   1   3
BRANCH   1  14
ATOM     14  O   UNL     1     -38.028  24.900   4.296  0.00  0.00    -0.376 OA
ATOM     15  H   UNL     1     -38.624  24.401   4.876  0.00  0.00    +0.211 HD
ENDBRANCH   1  14
BRANCH   1  16
ATOM     16  C   UNL     1     -36.499  23.195   3.481  0.00  0.00    +0.172 C 
BRANCH  16  17
ATOM     17  O   UNL     1     -37.763  22.565   3.257  0.00  0.00    -0.379 OA
ATOM     18  H   UNL     1     -37.667  21.881   2.576  0.00  0.00    +0.211 HD
ENDBRANCH  16  17
BRANCH  16  19
ATOM     19  C   UNL     1     -35.501  22.151   4.016  0.00  0.00    +0.169 C 
BRANCH  19  20
ATOM     20  O   UNL     1     -35.891  20.856   3.555  0.00  0.00    -0.379 OA
ATOM     21  H   UNL     1     -35.136  20.424   3.124  0.00  0.00    +0.211 HD
ENDBRANCH  19  20
BRANCH  19  22
ATOM     22  C   UNL     1     -35.450  22.125   5.542  0.00  0.00    +0.169 C 
BRANCH  22  23
ATOM     23  O   UNL     1     -35.374  20.771   5.976  0.00  0.00    -0.379 OA
ATOM     24  H   UNL     1     -35.326  20.744   6.944  0.00  0.00    +0.211 HD
ENDBRANCH  22  23
ENDBRANCH  19  22
ENDBRANCH  16  19
ENDBRANCH   1  16
TORSDOF 11
ENDMDL
MODEL 3
REMARK VINA RESULT:      -5.5      2.018      2.886
REMARK  Name = 193415
REMARK  11 active torsions:
REMARK  status: ('A' for Active; 'I' for Inactive)
REMARK    1  A    between atoms: C_1  and  C_3
REMARK    2  A    between atoms: C_1  and  O_14
REMARK    3  A    between atoms: C_1  and  C_16
REMARK    4  A    between atoms: C_6  and  C_10
REMARK    5  A    between atoms: C_10  and  O_11
REMARK    6  A    between atoms: O_11  and  C_12
REMARK    7  A    between atoms: C_16  and  O_17
REMARK    8  A    between atoms: C_16  and  C_19
REMARK    9  A    between atoms: C_19  and  O_20
REMARK   10  A    between atoms: C_19  and  C_22
REMARK   11  A    between atoms: C_22  and  O_23
REMARK                            x       y       z     vdW  Elec       q    Type
REMARK                         _______ _______ _______ _____ _____    ______ ____
ROOT
ATOM      1  C   UNL     1     -36.525  21.069   1.862  0.00  0.00    +0.175 C 
ENDROOT
BRANCH   1   3
ATOM      2  N   UNL     1     -35.930  21.455   4.238  0.00  0.00    -0.317 N 
ATOM      3  C   UNL     1     -35.991  21.941   2.981  0.00  0.00    +0.055 C 
ATOM      4  C   UNL     1     -35.532  23.210   2.938  0.00  0.00    +0.020 C 
ATOM      5  C   UNL     1     -35.416  22.434   5.049  0.00  0.00    +0.032 C 
ATOM      6  C   UNL     1     -35.159  23.537   4.264  0.00  0.00    +0.086 C 
ATOM      7  C   UNL     1     -35.227  22.202   6.493  0.00  0.00    +0.047 C 
ATOM      8  H   UNL     1     -36.208  20.555   4.525  0.00  0.00    +0.152 HD
BRANCH   6  10
ATOM      9  O   UNL     1     -35.187  25.530   5.543  0.00  0.00    -0.245 OA
ATOM     10  C   UNL     1     -34.611  24.775   4.741  0.00  0.00    +0.342 C 
BRANCH  10  11
ATOM     11  O   UNL     1     -33.364  25.076   4.228  0.00  0.00    -0.445 OA
BRANCH  11  12
ATOM     12  C   UNL     1     -33.266  26.231   3.388  0.00  0.00    +0.209 C 
ATOM     13  C   UNL     1     -32.643  25.830   2.069  0.00  0.00    +0.051 C 
ENDBRANCH  11  12
ENDBRANCH  10  11
ENDBRANCH   6  10
ENDBRANCH   1   3
BRANCH   1  14
ATOM     14  O   UNL     1     -36.771  19.773   2.406  0.00  0.00    -0.376 OA
ATOM     15  H   UNL     1     -37.082  19.860   3.320  0.00  0.00    +0.211 HD
ENDBRANCH   1  14
BRANCH   1  16
ATOM     16  C   UNL     1     -37.820  21.636   1.248  0.00  0.00    +0.172 C 
BRANCH  16  17
ATOM     17  O   UNL     1     -37.518  22.868   0.589  0.00  0.00    -0.379 OA
ATOM     18  H   UNL     1     -37.055  23.458   1.203  0.00  0.00    +0.211 HD
ENDBRANCH  16  17
BRANCH  16  19
ATOM     19  C   UNL     1     -38.935  21.877   2.283  0.00  0.00    +0.169 C 
BRANCH  19  20
ATOM     20  O   UNL     1     -40.023  20.992   2.008  0.00  0.00    -0.379 OA
ATOM     21  H   UNL     1     -40.858  21.417   2.263  0.00  0.00    +0.211 HD
ENDBRANCH  19  20
BRANCH  19  22
ATOM     22  C   UNL     1     -39.457  23.311   2.250  0.00  0.00    +0.169 C 
BRANCH  22  23
ATOM     23  O   UNL     1     -38.808  24.059   3.274  0.00  0.00    -0.379 OA
ATOM     24  H   UNL     1     -39.355  24.055   4.074  0.00  0.00    +0.211 HD
ENDBRANCH  22  23
ENDBRANCH  19  22
ENDBRANCH  16  19
ENDBRANCH   1  16
TORSDOF 11
ENDMDL
MODEL 4
REMARK VINA RESULT:      -5.5      1.603      2.086
REMARK  Name = 193415
REMARK  11 active torsions:
REMARK  status: ('A' for Active; 'I' for Inactive)
REMARK    1  A    between atoms: C_1  and  C_3
REMARK    2  A    between atoms: C_1  and  O_14
REMARK    3  A    between atoms: C_1  and  C_16
REMARK    4  A    between atoms: C_6  and  C_10
REMARK    5  A    between atoms: C_10  and  O_11
REMARK    6  A    between atoms: O_11  and  C_12
REMARK    7  A    between atoms: C_16  and  O_17
REMARK    8  A    between atoms: C_16  and  C_19
REMARK    9  A    between atoms: C_19  and  O_20
REMARK   10  A    between atoms: C_19  and  C_22
REMARK   11  A    between atoms: C_22  and  O_23
REMARK                            x       y       z     vdW  Elec       q    Type
REMARK                         _______ _______ _______ _____ _____    ______ ____
ROOT
ATOM      1  C   UNL     1     -37.379  22.017   2.048  0.00  0.00    +0.175 C 
ENDROOT
BRANCH   1   3
ATOM      2  N   UNL     1     -36.351  22.045   4.305  0.00  0.00    -0.317 N 
ATOM      3  C   UNL     1     -36.632  22.715   3.168  0.00  0.00    +0.055 C 
ATOM      4  C   UNL     1     -36.165  23.980   3.231  0.00  0.00    +0.020 C 
ATOM      5  C   UNL     1     -35.678  22.895   5.144  0.00  0.00    +0.032 C 
ATOM      6  C   UNL     1     -35.549  24.106   4.500  0.00  0.00    +0.086 C 
ATOM      7  C   UNL     1     -35.232  22.449   6.478  0.00  0.00    +0.047 C 
ATOM      8  H   UNL     1     -36.588  21.109   4.499  0.00  0.00    +0.152 HD
BRANCH   6  10
ATOM      9  O   UNL     1     -35.453  26.083   5.801  0.00  0.00    -0.245 OA
ATOM     10  C   UNL     1     -34.900  25.263   5.048  0.00  0.00    +0.342 C 
BRANCH  10  11
ATOM     11  O   UNL     1     -33.580  25.406   4.666  0.00  0.00    -0.445 OA
BRANCH  11  12
ATOM     12  C   UNL     1     -33.277  26.462   3.748  0.00  0.00    +0.209 C 
ATOM     13  C   UNL     1     -32.887  25.860   2.415  0.00  0.00    +0.051 C 
ENDBRANCH  11  12
ENDBRANCH  10  11
ENDBRANCH   6  10
ENDBRANCH   1   3
BRANCH   1  14
ATOM     14  O   UNL     1     -37.456  22.925   0.951  0.00  0.00    -0.376 OA
ATOM     15  H   UNL     1     -38.050  23.658   1.178  0.00  0.00    +0.211 HD
ENDBRANCH   1  14
BRANCH   1  16
ATOM     16  C   UNL     1     -36.683  20.716   1.605  0.00  0.00    +0.172 C 
BRANCH  16  17
ATOM     17  O   UNL     1     -36.761  19.765   2.670  0.00  0.00    -0.379 OA
ATOM     18  H   UNL     1     -36.076  19.088   2.550  0.00  0.00    +0.211 HD
ENDBRANCH  16  17
BRANCH  16  19
ATOM     19  C   UNL     1     -35.207  20.912   1.211  0.00  0.00    +0.169 C 
BRANCH  19  20
ATOM     20  O   UNL     1     -35.133  21.187  -0.189  0.00  0.00    -0.379 OA
ATOM     21  H   UNL     1     -34.424  20.657  -0.586  0.00  0.00    +0.211 HD
ENDBRANCH  19  20
BRANCH  19  22
ATOM     22  C   UNL     1     -34.358  19.679   1.508  0.00  0.00    +0.169 C 
BRANCH  22  23
ATOM     23  O   UNL     1     -34.908  18.564   0.812  0.00  0.00    -0.379 OA
ATOM     24  H   UNL     1     -34.195  17.960   0.555  0.00  0.00    +0.211 HD
ENDBRANCH  22  23
ENDBRANCH  19  22
ENDBRANCH  16  19
ENDBRANCH   1  16
TORSDOF 11
ENDMDL
MODEL 5
REMARK VINA RESULT:      -5.4      2.020      7.304
REMARK  Name = 193415
REMARK  11 active torsions:
REMARK  status: ('A' for Active; 'I' for Inactive)
REMARK    1  A    between atoms: C_1  and  C_3
REMARK    2  A    between atoms: C_1  and  O_14
REMARK    3  A    between atoms: C_1  and  C_16
REMARK    4  A    between atoms: C_6  and  C_10
REMARK    5  A    between atoms: C_10  and  O_11
REMARK    6  A    between atoms: O_11  and  C_12
REMARK    7  A    between atoms: C_16  and  O_17
REMARK    8  A    between atoms: C_16  and  C_19
REMARK    9  A    between atoms: C_19  and  O_20
REMARK   10  A    between atoms: C_19  and  C_22
REMARK   11  A    between atoms: C_22  and  O_23
REMARK                            x       y       z     vdW  Elec       q    Type
REMARK                         _______ _______ _______ _____ _____    ______ ____
ROOT
ATOM      1  C   UNL     1     -34.452  26.185   4.086  0.00  0.00    +0.175 C 
ENDROOT
BRANCH   1   3
ATOM      2  N   UNL     1     -34.827  24.013   5.224  0.00  0.00    -0.317 N 
ATOM      3  C   UNL     1     -34.867  24.726   4.079  0.00  0.00    +0.055 C 
ATOM      4  C   UNL     1     -35.301  23.961   3.055  0.00  0.00    +0.020 C 
ATOM      5  C   UNL     1     -35.247  22.738   4.945  0.00  0.00    +0.032 C 
ATOM      6  C   UNL     1     -35.548  22.678   3.602  0.00  0.00    +0.086 C 
ATOM      7  C   UNL     1     -35.312  21.712   6.003  0.00  0.00    +0.047 C 
ATOM      8  H   UNL     1     -34.545  24.348   6.105  0.00  0.00    +0.152 HD
BRANCH   6  10
ATOM      9  O   UNL     1     -37.174  21.389   2.460  0.00  0.00    -0.245 OA
ATOM     10  C   UNL     1     -36.024  21.510   2.917  0.00  0.00    +0.342 C 
BRANCH  10  11
ATOM     11  O   UNL     1     -35.088  20.501   2.800  0.00  0.00    -0.445 OA
BRANCH  11  12
ATOM     12  C   UNL     1     -34.539  20.270   1.498  0.00  0.00    +0.209 C 
ATOM     13  C   UNL     1     -33.613  19.074   1.559  0.00  0.00    +0.051 C 
ENDBRANCH  11  12
ENDBRANCH  10  11
ENDBRANCH   6  10
ENDBRANCH   1   3
BRANCH   1  14
ATOM     14  O   UNL     1     -35.611  26.959   4.389  0.00  0.00    -0.376 OA
ATOM     15  H   UNL     1     -35.355  27.730   4.919  0.00  0.00    +0.211 HD
ENDBRANCH   1  14
BRANCH   1  16
ATOM     16  C   UNL     1     -33.344  26.471   5.117  0.00  0.00    +0.172 C 
BRANCH  16  17
ATOM     17  O   UNL     1     -33.930  26.541   6.419  0.00  0.00    -0.379 OA
ATOM     18  H   UNL     1     -34.745  26.014   6.435  0.00  0.00    +0.211 HD
ENDBRANCH  16  17
BRANCH  16  19
ATOM     19  C   UNL     1     -32.570  27.774   4.841  0.00  0.00    +0.169 C 
BRANCH  19  20
ATOM     20  O   UNL     1     -31.511  27.500   3.922  0.00  0.00    -0.379 OA
ATOM     21  H   UNL     1     -31.391  26.541   3.842  0.00  0.00    +0.211 HD
ENDBRANCH  19  20
BRANCH  19  22
ATOM     22  C   UNL     1     -31.968  28.372   6.110  0.00  0.00    +0.169 C 
BRANCH  22  23
ATOM     23  O   UNL     1     -31.213  27.365   6.777  0.00  0.00    -0.379 OA
ATOM     24  H   UNL     1     -31.391  27.404   7.730  0.00  0.00    +0.211 HD
ENDBRANCH  22  23
ENDBRANCH  19  22
ENDBRANCH  16  19
ENDBRANCH   1  16
TORSDOF 11
ENDMDL
MODEL 6
REMARK VINA RESULT:      -5.4      3.470      5.553
REMARK  Name = 193415
REMARK  11 active torsions:
REMARK  status: ('A' for Active; 'I' for Inactive)
REMARK    1  A    between atoms: C_1  and  C_3
REMARK    2  A    between atoms: C_1  and  O_14
REMARK    3  A    between atoms: C_1  and  C_16
REMARK    4  A    between atoms: C_6  and  C_10
REMARK    5  A    between atoms: C_10  and  O_11
REMARK    6  A    between atoms: O_11  and  C_12
REMARK    7  A    between atoms: C_16  and  O_17
REMARK    8  A    between atoms: C_16  and  C_19
REMARK    9  A    between atoms: C_19  and  O_20
REMARK   10  A    between atoms: C_19  and  C_22
REMARK   11  A    between atoms: C_22  and  O_23
REMARK                            x       y       z     vdW  Elec       q    Type
REMARK                         _______ _______ _______ _____ _____    ______ ____
ROOT
ATOM      1  C   UNL     1     -35.128  25.036   5.355  0.00  0.00    +0.175 C 
ENDROOT
BRANCH   1   3
ATOM      2  N   UNL     1     -33.905  26.826   4.150  0.00  0.00    -0.317 N 
ATOM      3  C   UNL     1     -34.095  26.146   5.300  0.00  0.00    +0.055 C 
ATOM      4  C   UNL     1     -33.276  26.606   6.268  0.00  0.00    +0.020 C 
ATOM      5  C   UNL     1     -32.928  27.764   4.368  0.00  0.00    +0.032 C 
ATOM      6  C   UNL     1     -32.519  27.648   5.678  0.00  0.00    +0.086 C 
ATOM      7  C   UNL     1     -32.492  28.670   3.289  0.00  0.00    +0.047 C 
ATOM      8  H   UNL     1     -34.383  26.676   3.303  0.00  0.00    +0.152 HD
BRANCH   6  10
ATOM      9  O   UNL     1     -31.744  29.379   7.097  0.00  0.00    -0.245 OA
ATOM     10  C   UNL     1     -31.508  28.456   6.299  0.00  0.00    +0.342 C 
BRANCH  10  11
ATOM     11  O   UNL     1     -30.217  28.125   5.933  0.00  0.00    -0.445 OA
BRANCH  11  12
ATOM     12  C   UNL     1     -29.154  28.731   6.677  0.00  0.00    +0.209 C 
ATOM     13  C   UNL     1     -28.208  27.649   7.153  0.00  0.00    +0.051 C 
ENDBRANCH  11  12
ENDBRANCH  10  11
ENDBRANCH   6  10
ENDBRANCH   1   3
BRANCH   1  14
ATOM     14  O   UNL     1     -36.417  25.647   5.341  0.00  0.00    -0.376 OA
ATOM     15  H   UNL     1     -36.679  25.828   4.425  0.00  0.00    +0.211 HD
ENDBRANCH   1  14
BRANCH   1  16
ATOM     16  C   UNL     1     -34.996  24.058   4.172  0.00  0.00    +0.172 C 
BRANCH  16  17
ATOM     17  O   UNL     1     -35.586  24.652   3.013  0.00  0.00    -0.379 OA
ATOM     18  H   UNL     1     -35.297  25.575   2.940  0.00  0.00    +0.211 HD
ENDBRANCH  16  17
BRANCH  16  19
ATOM     19  C   UNL     1     -35.656  22.690   4.430  0.00  0.00    +0.169 C 
BRANCH  19  20
ATOM     20  O   UNL     1     -37.060  22.798   4.187  0.00  0.00    -0.379 OA
ATOM     21  H   UNL     1     -37.270  22.405   3.325  0.00  0.00    +0.211 HD
ENDBRANCH  19  20
BRANCH  19  22
ATOM     22  C   UNL     1     -35.450  22.208   5.864  0.00  0.00    +0.169 C 
BRANCH  22  23
ATOM     23  O   UNL     1     -35.329  20.788   5.858  0.00  0.00    -0.379 OA
ATOM     24  H   UNL     1     -35.181  20.480   4.951  0.00  0.00    +0.211 HD
ENDBRANCH  22  23
ENDBRANCH  19  22
ENDBRANCH  16  19
ENDBRANCH   1  16
TORSDOF 11
ENDMDL
MODEL 7
REMARK VINA RESULT:      -5.3      2.388      2.968
REMARK  Name = 193415
REMARK  11 active torsions:
REMARK  status: ('A' for Active; 'I' for Inactive)
REMARK    1  A    between atoms: C_1  and  C_3
REMARK    2  A    between atoms: C_1  and  O_14
REMARK    3  A    between atoms: C_1  and  C_16
REMARK    4  A    between atoms: C_6  and  C_10
REMARK    5  A    between atoms: C_10  and  O_11
REMARK    6  A    between atoms: O_11  and  C_12
REMARK    7  A    between atoms: C_16  and  O_17
REMARK    8  A    between atoms: C_16  and  C_19
REMARK    9  A    between atoms: C_19  and  O_20
REMARK   10  A    between atoms: C_19  and  C_22
REMARK   11  A    between atoms: C_22  and  O_23
REMARK                            x       y       z     vdW  Elec       q    Type
REMARK                         _______ _______ _______ _____ _____    ______ ____
ROOT
ATOM      1  C   UNL     1     -37.884  21.913   1.995  0.00  0.00    +0.175 C 
ENDROOT
BRANCH   1   3
ATOM      2  N   UNL     1     -36.525  22.171   4.053  0.00  0.00    -0.317 N 
ATOM      3  C   UNL     1     -37.128  22.760   3.000  0.00  0.00    +0.055 C 
ATOM      4  C   UNL     1     -36.938  24.096   3.027  0.00  0.00    +0.020 C 
ATOM      5  C   UNL     1     -35.919  23.150   4.798  0.00  0.00    +0.032 C 
ATOM      6  C   UNL     1     -36.160  24.358   4.181  0.00  0.00    +0.086 C 
ATOM      7  C   UNL     1     -35.172  22.817   6.026  0.00  0.00    +0.047 C 
ATOM      8  H   UNL     1     -36.521  21.207   4.253  0.00  0.00    +0.152 HD
BRANCH   6  10
ATOM      9  O   UNL     1     -36.161  26.226   5.637  0.00  0.00    -0.245 OA
ATOM     10  C   UNL     1     -35.692  25.630   4.652  0.00  0.00    +0.342 C 
BRANCH  10  11
ATOM     11  O   UNL     1     -34.653  26.160   3.911  0.00  0.00    -0.445 OA
BRANCH  11  12
ATOM     12  C   UNL     1     -34.938  27.328   3.133  0.00  0.00    +0.209 C 
ATOM     13  C   UNL     1     -34.718  27.011   1.669  0.00  0.00    +0.051 C 
ENDBRANCH  11  12
ENDBRANCH  10  11
ENDBRANCH   6  10
ENDBRANCH   1   3
BRANCH   1  14
ATOM     14  O   UNL     1     -37.615  20.545   2.297  0.00  0.00    -0.376 OA
ATOM     15  H   UNL     1     -36.667  20.431   2.463  0.00  0.00    +0.211 HD
ENDBRANCH   1  14
BRANCH   1  16
ATOM     16  C   UNL     1     -39.402  22.172   2.039  0.00  0.00    +0.172 C 
BRANCH  16  17
ATOM     17  O   UNL     1     -40.061  20.989   2.499  0.00  0.00    -0.379 OA
ATOM     18  H   UNL     1     -40.960  21.211   2.786  0.00  0.00    +0.211 HD
ENDBRANCH  16  17
BRANCH  16  19
ATOM     19  C   UNL     1     -39.995  22.582   0.677  0.00  0.00    +0.169 C 
BRANCH  19  20
ATOM     20  O   UNL     1     -41.226  23.274   0.895  0.00  0.00    -0.379 OA
ATOM     21  H   UNL     1     -41.969  22.693   0.667  0.00  0.00    +0.211 HD
ENDBRANCH  19  20
BRANCH  19  22
ATOM     22  C   UNL     1     -40.268  21.380  -0.223  0.00  0.00    +0.169 C 
BRANCH  22  23
ATOM     23  O   UNL     1     -41.516  20.803   0.148  0.00  0.00    -0.379 OA
ATOM     24  H   UNL     1     -41.848  20.254  -0.580  0.00  0.00    +0.211 HD
ENDBRANCH  22  23
ENDBRANCH  19  22
ENDBRANCH  16  19
ENDBRANCH   1  16
TORSDOF 11
ENDMDL
MODEL 8
REMARK VINA RESULT:      -5.2      3.701      8.597
REMARK  Name = 193415
REMARK  11 active torsions:
REMARK  status: ('A' for Active; 'I' for Inactive)
REMARK    1  A    between atoms: C_1  and  C_3
REMARK    2  A    between atoms: C_1  and  O_14
REMARK    3  A    between atoms: C_1  and  C_16
REMARK    4  A    between atoms: C_6  and  C_10
REMARK    5  A    between atoms: C_10  and  O_11
REMARK    6  A    between atoms: O_11  and  C_12
REMARK    7  A    between atoms: C_16  and  O_17
REMARK    8  A    between atoms: C_16  and  C_19
REMARK    9  A    between atoms: C_19  and  O_20
REMARK   10  A    between atoms: C_19  and  C_22
REMARK   11  A    between atoms: C_22  and  O_23
REMARK                            x       y       z     vdW  Elec       q    Type
REMARK                         _______ _______ _______ _____ _____    ______ ____
ROOT
ATOM      1  C   UNL     1     -32.487  27.765   6.246  0.00  0.00    +0.175 C 
ENDROOT
BRANCH   1   3
ATOM      2  N   UNL     1     -33.221  26.849   4.061  0.00  0.00    -0.317 N 
ATOM      3  C   UNL     1     -33.328  26.823   5.405  0.00  0.00    +0.055 C 
ATOM      4  C   UNL     1     -34.229  25.896   5.795  0.00  0.00    +0.020 C 
ATOM      5  C   UNL     1     -34.079  25.910   3.548  0.00  0.00    +0.032 C 
ATOM      6  C   UNL     1     -34.718  25.303   4.606  0.00  0.00    +0.086 C 
ATOM      7  C   UNL     1     -34.191  25.700   2.092  0.00  0.00    +0.047 C 
ATOM      8  H   UNL     1     -32.631  27.439   3.538  0.00  0.00    +0.152 HD
BRANCH   6  10
ATOM      9  O   UNL     1     -36.918  24.425   4.655  0.00  0.00    -0.245 OA
ATOM     10  C   UNL     1     -35.698  24.260   4.486  0.00  0.00    +0.342 C 
BRANCH  10  11
ATOM     11  O   UNL     1     -35.171  23.025   4.161  0.00  0.00    -0.445 OA
BRANCH  11  12
ATOM     12  C   UNL     1     -35.602  21.906   4.944  0.00  0.00    +0.209 C 
ATOM     13  C   UNL     1     -35.144  22.101   6.374  0.00  0.00    +0.051 C 
ENDBRANCH  11  12
ENDBRANCH  10  11
ENDBRANCH   6  10
ENDBRANCH   1   3
BRANCH   1  14
ATOM     14  O   UNL     1     -31.675  26.966   7.105  0.00  0.00    -0.376 OA
ATOM     15  H   UNL     1     -30.750  27.022   6.819  0.00  0.00    +0.211 HD
ENDBRANCH   1  14
BRANCH   1  16
ATOM     16  C   UNL     1     -31.597  28.680   5.383  0.00  0.00    +0.172 C 
BRANCH  16  17
ATOM     17  O   UNL     1     -30.556  27.894   4.798  0.00  0.00    -0.379 OA
ATOM     18  H   UNL     1     -30.139  28.393   4.078  0.00  0.00    +0.211 HD
ENDBRANCH  16  17
BRANCH  16  19
ATOM     19  C   UNL     1     -30.969  29.845   6.170  0.00  0.00    +0.169 C 
BRANCH  19  20
ATOM     20  O   UNL     1     -31.184  31.061   5.450  0.00  0.00    -0.379 OA
ATOM     21  H   UNL     1     -31.291  31.794   6.077  0.00  0.00    +0.211 HD
ENDBRANCH  19  20
BRANCH  19  22
ATOM     22  C   UNL     1     -29.468  29.664   6.376  0.00  0.00    +0.169 C 
BRANCH  22  23
ATOM     23  O   UNL     1     -29.258  28.666   7.371  0.00  0.00    -0.379 OA
ATOM     24  H   UNL     1     -28.702  29.027   8.079  0.00  0.00    +0.211 HD
ENDBRANCH  22  23
ENDBRANCH  19  22
ENDBRANCH  16  19
ENDBRANCH   1  16
TORSDOF 11
ENDMDL
MODEL 9
REMARK VINA RESULT:      -5.2      3.598      6.062
REMARK  Name = 193415
REMARK  11 active torsions:
REMARK  status: ('A' for Active; 'I' for Inactive)
REMARK    1  A    between atoms: C_1  and  C_3
REMARK    2  A    between atoms: C_1  and  O_14
REMARK    3  A    between atoms: C_1  and  C_16
REMARK    4  A    between atoms: C_6  and  C_10
REMARK    5  A    between atoms: C_10  and  O_11
REMARK    6  A    between atoms: O_11  and  C_12
REMARK    7  A    between atoms: C_16  and  O_17
REMARK    8  A    between atoms: C_16  and  C_19
REMARK    9  A    between atoms: C_19  and  O_20
REMARK   10  A    between atoms: C_19  and  C_22
REMARK   11  A    between atoms: C_22  and  O_23
REMARK                            x       y       z     vdW  Elec       q    Type
REMARK                         _______ _______ _______ _____ _____    ______ ____
ROOT
ATOM      1  C   UNL     1     -35.171  25.735   5.958  0.00  0.00    +0.175 C 
ENDROOT
BRANCH   1   3
ATOM      2  N   UNL     1     -33.751  27.195   4.542  0.00  0.00    -0.317 N 
ATOM      3  C   UNL     1     -33.962  26.625   5.747  0.00  0.00    +0.055 C 
ATOM      4  C   UNL     1     -32.990  26.974   6.616  0.00  0.00    +0.020 C 
ATOM      5  C   UNL     1     -32.603  27.941   4.619  0.00  0.00    +0.032 C 
ATOM      6  C   UNL     1     -32.109  27.821   5.900  0.00  0.00    +0.086 C 
ATOM      7  C   UNL     1     -32.105  28.690   3.450  0.00  0.00    +0.047 C 
ATOM      8  H   UNL     1     -34.321  27.092   3.746  0.00  0.00    +0.152 HD
BRANCH   6  10
ATOM      9  O   UNL     1     -30.878  29.607   6.850  0.00  0.00    -0.245 OA
ATOM     10  C   UNL     1     -30.916  28.456   6.384  0.00  0.00    +0.342 C 
BRANCH  10  11
ATOM     11  O   UNL     1     -29.782  27.673   6.290  0.00  0.00    -0.445 OA
BRANCH  11  12
ATOM     12  C   UNL     1     -28.630  28.265   5.681  0.00  0.00    +0.209 C 
ATOM     13  C   UNL     1     -28.526  27.782   4.250  0.00  0.00    +0.051 C 
ENDBRANCH  11  12
ENDBRANCH  10  11
ENDBRANCH   6  10
ENDBRANCH   1   3
BRANCH   1  14
ATOM     14  O   UNL     1     -36.305  26.417   5.424  0.00  0.00    -0.376 OA
ATOM     15  H   UNL     1     -37.108  26.108   5.871  0.00  0.00    +0.211 HD
ENDBRANCH   1  14
BRANCH   1  16
ATOM     16  C   UNL     1     -35.012  24.364   5.274  0.00  0.00    +0.172 C 
BRANCH  16  17
ATOM     17  O   UNL     1     -33.762  24.335   4.581  0.00  0.00    -0.379 OA
ATOM     18  H   UNL     1     -33.441  23.421   4.531  0.00  0.00    +0.211 HD
ENDBRANCH  16  17
BRANCH  16  19
ATOM     19  C   UNL     1     -36.146  24.036   4.283  0.00  0.00    +0.169 C 
BRANCH  19  20
ATOM     20  O   UNL     1     -36.579  22.692   4.500  0.00  0.00    -0.379 OA
ATOM     21  H   UNL     1     -35.916  22.077   4.148  0.00  0.00    +0.211 HD
ENDBRANCH  19  20
BRANCH  19  22
ATOM     22  C   UNL     1     -35.703  24.174   2.829  0.00  0.00    +0.169 C 
BRANCH  22  23
ATOM     23  O   UNL     1     -35.455  25.549   2.552  0.00  0.00    -0.379 OA
ATOM     24  H   UNL     1     -36.278  25.976   2.267  0.00  0.00    +0.211 HD
ENDBRANCH  22  23
ENDBRANCH  19  22
ENDBRANCH  16  19
ENDBRANCH   1  16
TORSDOF 11
ENDMDL
