MODEL 1
REMARK VINA RESULT:      -5.4      0.000      0.000
REMARK  Name = 18990
REMARK  4 active torsions:
REMARK  status: ('A' for Active; 'I' for Inactive)
REMARK    1  A    between atoms: C_1  and  N_20
REMARK    2  A    between atoms: C_2  and  N_9
REMARK    3  A    between atoms: C_3  and  N_16
REMARK    4  A    between atoms: C_4  and  N_19
REMARK                            x       y       z     vdW  Elec       q    Type
REMARK                         _______ _______ _______ _____ _____    ______ ____
ROOT
ATOM      1  C   UNL     1     -37.468  20.800   0.395  0.00  0.00    +0.093 C 
ATOM      2  C   UNL     1     -36.528  22.020   2.721  0.00  0.00    +0.065 C 
ATOM      3  C   UNL     1     -36.132  20.652   0.769  0.00  0.00    +0.159 C 
ATOM      4  C   UNL     1     -38.334  21.557   1.184  0.00  0.00    +0.159 C 
ATOM      5  C   UNL     1     -35.662  21.262   1.932  0.00  0.00    +0.041 C 
ATOM      6  C   UNL     1     -37.863  22.168   2.346  0.00  0.00    +0.041 C 
ENDROOT
BRANCH   2   9
ATOM      7  O   UNL     1     -35.162  20.819   5.144  0.00  0.00    -0.269 OA
ATOM      8  O   UNL     1     -36.575  24.934   3.551  0.00  0.00    -0.269 OA
ATOM      9  N   UNL     1     -36.044  22.648   3.914  0.00  0.00    -0.201 N 
ATOM     10  C   UNL     1     -35.416  21.998   4.957  0.00  0.00    +0.259 C 
ATOM     11  C   UNL     1     -36.136  23.996   4.197  0.00  0.00    +0.259 C 
ATOM     12  C   UNL     1     -35.088  23.020   5.960  0.00  0.00    +0.063 C 
ATOM     13  C   UNL     1     -35.523  24.195   5.518  0.00  0.00    +0.063 C 
ENDBRANCH   2   9
BRANCH   3  16
ATOM     14  O   UNL     1     -34.579  20.454  -0.924  0.00  0.00    -0.126 OA
ATOM     15  O   UNL     1     -35.104  18.661   0.228  0.00  0.00    -0.126 OA
ATOM     16  N   UNL     1     -35.226  19.884  -0.015  0.00  0.00    +0.059 N 
ENDBRANCH   3  16
BRANCH   4  19
ATOM     17  O   UNL     1     -40.547  20.915   1.276  0.00  0.00    -0.126 OA
ATOM     18  O   UNL     1     -40.020  22.679   0.081  0.00  0.00    -0.126 OA
ATOM     19  N   UNL     1     -39.702  21.725   0.829  0.00  0.00    +0.059 N 
ENDBRANCH   4  19
BRANCH   1  20
ATOM     20  N   UNL     1     -37.945  20.181  -0.787  0.00  0.00    -0.301 N 
ATOM     21  C   UNL     1     -37.886  20.882  -2.050  0.00  0.00    +0.112 C 
ATOM     22  C   UNL     1     -38.481  18.839  -0.740  0.00  0.00    +0.112 C 
ENDBRANCH   1  20
TORSDOF 4
ENDMDL
MODEL 2
REMARK VINA RESULT:      -5.4      0.021      1.605
REMARK  Name = 18990
REMARK  4 active torsions:
REMARK  status: ('A' for Active; 'I' for Inactive)
REMARK    1  A    between atoms: C_1  and  N_20
REMARK    2  A    between atoms: C_2  and  N_9
REMARK    3  A    between atoms: C_3  and  N_16
REMARK    4  A    between atoms: C_4  and  N_19
REMARK                            x       y       z     vdW  Elec       q    Type
REMARK                         _______ _______ _______ _____ _____    ______ ____
ROOT
ATOM      1  C   UNL     1     -37.451  20.802   0.397  0.00  0.00    +0.093 C 
ATOM      2  C   UNL     1     -36.513  22.025   2.723  0.00  0.00    +0.065 C 
ATOM      3  C   UNL     1     -36.114  20.661   0.768  0.00  0.00    +0.159 C 
ATOM      4  C   UNL     1     -38.319  21.554   1.188  0.00  0.00    +0.159 C 
ATOM      5  C   UNL     1     -35.645  21.272   1.931  0.00  0.00    +0.041 C 
ATOM      6  C   UNL     1     -37.850  22.166   2.350  0.00  0.00    +0.041 C 
ENDROOT
BRANCH   2   9
ATOM      7  O   UNL     1     -36.543  24.941   3.542  0.00  0.00    -0.269 OA
ATOM      8  O   UNL     1     -35.168  20.823   5.158  0.00  0.00    -0.269 OA
ATOM      9  N   UNL     1     -36.031  22.653   3.916  0.00  0.00    -0.201 N 
ATOM     10  C   UNL     1     -36.113  24.003   4.193  0.00  0.00    +0.259 C 
ATOM     11  C   UNL     1     -35.412  22.003   4.964  0.00  0.00    +0.259 C 
ATOM     12  C   UNL     1     -35.504  24.204   5.515  0.00  0.00    +0.063 C 
ATOM     13  C   UNL     1     -35.081  23.027   5.964  0.00  0.00    +0.063 C 
ENDBRANCH   2   9
BRANCH   3  16
ATOM     14  O   UNL     1     -34.568  20.471  -0.932  0.00  0.00    -0.126 OA
ATOM     15  O   UNL     1     -35.071  18.677   0.228  0.00  0.00    -0.126 OA
ATOM     16  N   UNL     1     -35.205  19.898  -0.018  0.00  0.00    +0.059 N 
ENDBRANCH   3  16
BRANCH   4  19
ATOM     17  O   UNL     1     -40.532  20.914   1.301  0.00  0.00    -0.126 OA
ATOM     18  O   UNL     1     -40.010  22.655   0.071  0.00  0.00    -0.126 OA
ATOM     19  N   UNL     1     -39.689  21.716   0.835  0.00  0.00    +0.059 N 
ENDBRANCH   4  19
BRANCH   1  20
ATOM     20  N   UNL     1     -37.927  20.182  -0.785  0.00  0.00    -0.301 N 
ATOM     21  C   UNL     1     -37.871  20.885  -2.048  0.00  0.00    +0.112 C 
ATOM     22  C   UNL     1     -38.458  18.838  -0.739  0.00  0.00    +0.112 C 
ENDBRANCH   1  20
TORSDOF 4
ENDMDL
MODEL 3
REMARK VINA RESULT:      -5.4      0.110      3.633
REMARK  Name = 18990
REMARK  4 active torsions:
REMARK  status: ('A' for Active; 'I' for Inactive)
REMARK    1  A    between atoms: C_1  and  N_20
REMARK    2  A    between atoms: C_2  and  N_9
REMARK    3  A    between atoms: C_3  and  N_16
REMARK    4  A    between atoms: C_4  and  N_19
REMARK                            x       y       z     vdW  Elec       q    Type
REMARK                         _______ _______ _______ _____ _____    ______ ____
ROOT
ATOM      1  C   UNL     1     -37.357  20.771   0.413  0.00  0.00    +0.093 C 
ATOM      2  C   UNL     1     -36.454  22.020   2.739  0.00  0.00    +0.065 C 
ATOM      3  C   UNL     1     -38.236  21.536   1.180  0.00  0.00    +0.159 C 
ATOM      4  C   UNL     1     -36.027  20.630   0.809  0.00  0.00    +0.159 C 
ATOM      5  C   UNL     1     -37.784  22.161   2.342  0.00  0.00    +0.041 C 
ATOM      6  C   UNL     1     -35.576  21.254   1.972  0.00  0.00    +0.041 C 
ENDROOT
BRANCH   2   9
ATOM      7  O   UNL     1     -36.473  24.947   3.519  0.00  0.00    -0.269 OA
ATOM      8  O   UNL     1     -35.173  20.838   5.217  0.00  0.00    -0.269 OA
ATOM      9  N   UNL     1     -35.991  22.660   3.933  0.00  0.00    -0.201 N 
ATOM     10  C   UNL     1     -36.067  24.014   4.191  0.00  0.00    +0.259 C 
ATOM     11  C   UNL     1     -35.401  22.018   5.003  0.00  0.00    +0.259 C 
ATOM     12  C   UNL     1     -35.484  24.227   5.523  0.00  0.00    +0.063 C 
ATOM     13  C   UNL     1     -35.081  23.052   5.997  0.00  0.00    +0.063 C 
ENDBRANCH   2   9
BRANCH   3  16
ATOM     14  O   UNL     1     -40.455  20.918   1.274  0.00  0.00    -0.126 OA
ATOM     15  O   UNL     1     -39.897  22.618   0.003  0.00  0.00    -0.126 OA
ATOM     16  N   UNL     1     -39.598  21.699   0.800  0.00  0.00    +0.059 N 
ENDBRANCH   3  16
BRANCH   4  19
ATOM     17  O   UNL     1     -34.435  20.423  -0.846  0.00  0.00    -0.126 OA
ATOM     18  O   UNL     1     -34.995  18.633   0.293  0.00  0.00    -0.126 OA
ATOM     19  N   UNL     1     -35.106  19.856   0.046  0.00  0.00    +0.059 N 
ENDBRANCH   4  19
BRANCH   1  20
ATOM     20  N   UNL     1     -37.816  20.135  -0.767  0.00  0.00    -0.301 N 
ATOM     21  C   UNL     1     -37.715  20.810  -2.043  0.00  0.00    +0.112 C 
ATOM     22  C   UNL     1     -38.374  18.803  -0.706  0.00  0.00    +0.112 C 
ENDBRANCH   1  20
TORSDOF 4
ENDMDL
MODEL 4
REMARK VINA RESULT:      -5.4      0.113      3.123
REMARK  Name = 18990
REMARK  4 active torsions:
REMARK  status: ('A' for Active; 'I' for Inactive)
REMARK    1  A    between atoms: C_1  and  N_20
REMARK    2  A    between atoms: C_2  and  N_9
REMARK    3  A    between atoms: C_3  and  N_16
REMARK    4  A    between atoms: C_4  and  N_19
REMARK                            x       y       z     vdW  Elec       q    Type
REMARK                         _______ _______ _______ _____ _____    ______ ____
ROOT
ATOM      1  C   UNL     1     -37.359  20.768   0.409  0.00  0.00    +0.093 C 
ATOM      2  C   UNL     1     -36.440  22.008   2.733  0.00  0.00    +0.065 C 
ATOM      3  C   UNL     1     -38.232  21.535   1.182  0.00  0.00    +0.159 C 
ATOM      4  C   UNL     1     -36.028  20.620   0.798  0.00  0.00    +0.159 C 
ATOM      5  C   UNL     1     -37.772  22.155   2.343  0.00  0.00    +0.041 C 
ATOM      6  C   UNL     1     -35.569  21.240   1.960  0.00  0.00    +0.041 C 
ENDROOT
BRANCH   2   9
ATOM      7  O   UNL     1     -35.181  20.812   5.215  0.00  0.00    -0.269 OA
ATOM      8  O   UNL     1     -36.414  24.938   3.506  0.00  0.00    -0.269 OA
ATOM      9  N   UNL     1     -35.969  22.644   3.927  0.00  0.00    -0.201 N 
ATOM     10  C   UNL     1     -35.391  21.994   4.999  0.00  0.00    +0.259 C 
ATOM     11  C   UNL     1     -36.024  23.999   4.182  0.00  0.00    +0.259 C 
ATOM     12  C   UNL     1     -35.057  23.025   5.991  0.00  0.00    +0.063 C 
ATOM     13  C   UNL     1     -35.440  24.205   5.515  0.00  0.00    +0.063 C 
ENDBRANCH   2   9
BRANCH   3  16
ATOM     14  O   UNL     1     -39.895  22.624   0.014  0.00  0.00    -0.126 OA
ATOM     15  O   UNL     1     -40.453  20.928   1.290  0.00  0.00    -0.126 OA
ATOM     16  N   UNL     1     -39.595  21.704   0.809  0.00  0.00    +0.059 N 
ENDBRANCH   3  16
BRANCH   4  19
ATOM     17  O   UNL     1     -35.025  18.616   0.256  0.00  0.00    -0.126 OA
ATOM     18  O   UNL     1     -34.430  20.415  -0.852  0.00  0.00    -0.126 OA
ATOM     19  N   UNL     1     -35.115  19.845   0.029  0.00  0.00    +0.059 N 
ENDBRANCH   4  19
BRANCH   1  20
ATOM     20  N   UNL     1     -37.827  20.137  -0.770  0.00  0.00    -0.301 N 
ATOM     21  C   UNL     1     -37.720  20.809  -2.046  0.00  0.00    +0.112 C 
ATOM     22  C   UNL     1     -38.400  18.811  -0.708  0.00  0.00    +0.112 C 
ENDBRANCH   1  20
TORSDOF 4
ENDMDL
MODEL 5
REMARK VINA RESULT:      -5.3      1.856      2.358
REMARK  Name = 18990
REMARK  4 active torsions:
REMARK  status: ('A' for Active; 'I' for Inactive)
REMARK    1  A    between atoms: C_1  and  N_20
REMARK    2  A    between atoms: C_2  and  N_9
REMARK    3  A    between atoms: C_3  and  N_16
REMARK    4  A    between atoms: C_4  and  N_19
REMARK                            x       y       z     vdW  Elec       q    Type
REMARK                         _______ _______ _______ _____ _____    ______ ____
ROOT
ATOM      1  C   UNL     1     -37.876  22.812   0.171  0.00  0.00    +0.093 C 
ATOM      2  C   UNL     1     -36.672  22.755   2.688  0.00  0.00    +0.065 C 
ATOM      3  C   UNL     1     -36.510  23.066   0.297  0.00  0.00    +0.159 C 
ATOM      4  C   UNL     1     -38.640  22.529   1.303  0.00  0.00    +0.159 C 
ATOM      5  C   UNL     1     -35.909  23.037   1.555  0.00  0.00    +0.041 C 
ATOM      6  C   UNL     1     -38.039  22.501   2.561  0.00  0.00    +0.041 C 
ENDROOT
BRANCH   2   9
ATOM      7  O   UNL     1     -35.153  20.533   4.078  0.00  0.00    -0.269 OA
ATOM      8  O   UNL     1     -36.507  24.901   4.820  0.00  0.00    -0.269 OA
ATOM      9  N   UNL     1     -36.055  22.727   3.979  0.00  0.00    -0.201 N 
ATOM     10  C   UNL     1     -35.367  21.654   4.510  0.00  0.00    +0.259 C 
ATOM     11  C   UNL     1     -36.057  23.768   4.885  0.00  0.00    +0.259 C 
ATOM     12  C   UNL     1     -34.903  22.063   5.842  0.00  0.00    +0.063 C 
ATOM     13  C   UNL     1     -35.319  23.304   6.068  0.00  0.00    +0.063 C 
ENDBRANCH   2   9
BRANCH   3  16
ATOM     14  O   UNL     1     -35.121  22.415  -1.424  0.00  0.00    -0.126 OA
ATOM     15  O   UNL     1     -35.605  24.546  -1.222  0.00  0.00    -0.126 OA
ATOM     16  N   UNL     1     -35.705  23.356  -0.840  0.00  0.00    +0.059 N 
ENDBRANCH   3  16
BRANCH   4  19
ATOM     17  O   UNL     1     -40.840  23.222   1.286  0.00  0.00    -0.126 OA
ATOM     18  O   UNL     1     -40.417  21.082   1.042  0.00  0.00    -0.126 OA
ATOM     19  N   UNL     1     -40.036  22.264   1.206  0.00  0.00    +0.059 N 
ENDBRANCH   4  19
BRANCH   1  20
ATOM     20  N   UNL     1     -38.487  22.842  -1.107  0.00  0.00    -0.301 N 
ATOM     21  C   UNL     1     -38.549  21.643  -1.912  0.00  0.00    +0.112 C 
ATOM     22  C   UNL     1     -39.067  24.069  -1.607  0.00  0.00    +0.112 C 
ENDBRANCH   1  20
TORSDOF 4
ENDMDL
MODEL 6
REMARK VINA RESULT:      -5.3      1.596      3.775
REMARK  Name = 18990
REMARK  4 active torsions:
REMARK  status: ('A' for Active; 'I' for Inactive)
REMARK    1  A    between atoms: C_1  and  N_20
REMARK    2  A    between atoms: C_2  and  N_9
REMARK    3  A    between atoms: C_3  and  N_16
REMARK    4  A    between atoms: C_4  and  N_19
REMARK                            x       y       z     vdW  Elec       q    Type
REMARK                         _______ _______ _______ _____ _____    ______ ____
ROOT
ATOM      1  C   UNL     1     -37.832  22.502   0.184  0.00  0.00    +0.093 C 
ATOM      2  C   UNL     1     -36.659  22.724   2.706  0.00  0.00    +0.065 C 
ATOM      3  C   UNL     1     -38.618  22.389   1.331  0.00  0.00    +0.159 C 
ATOM      4  C   UNL     1     -36.460  22.726   0.297  0.00  0.00    +0.159 C 
ATOM      5  C   UNL     1     -38.032  22.500   2.592  0.00  0.00    +0.041 C 
ATOM      6  C   UNL     1     -35.874  22.837   1.558  0.00  0.00    +0.041 C 
ENDROOT
BRANCH   2   9
ATOM      7  O   UNL     1     -36.503  25.094   4.588  0.00  0.00    -0.269 OA
ATOM      8  O   UNL     1     -35.173  20.662   4.354  0.00  0.00    -0.269 OA
ATOM      9  N   UNL     1     -36.057  22.837   4.000  0.00  0.00    -0.201 N 
ATOM     10  C   UNL     1     -36.061  23.973   4.784  0.00  0.00    +0.259 C 
ATOM     11  C   UNL     1     -35.383  21.826   4.655  0.00  0.00    +0.259 C 
ATOM     12  C   UNL     1     -35.340  23.640   6.020  0.00  0.00    +0.063 C 
ATOM     13  C   UNL     1     -34.930  22.379   5.939  0.00  0.00    +0.063 C 
ENDBRANCH   2   9
BRANCH   3  16
ATOM     14  O   UNL     1     -40.793  23.147   1.232  0.00  0.00    -0.126 OA
ATOM     15  O   UNL     1     -40.439  20.982   1.190  0.00  0.00    -0.126 OA
ATOM     16  N   UNL     1     -40.021  22.162   1.247  0.00  0.00    +0.059 N 
ENDBRANCH   3  16
BRANCH   4  19
ATOM     17  O   UNL     1     -35.079  21.821  -1.312  0.00  0.00    -0.126 OA
ATOM     18  O   UNL     1     -35.486  23.976  -1.378  0.00  0.00    -0.126 OA
ATOM     19  N   UNL     1     -35.633  22.847  -0.855  0.00  0.00    +0.059 N 
ENDBRANCH   4  19
BRANCH   1  20
ATOM     20  N   UNL     1     -38.428  22.388  -1.097  0.00  0.00    -0.301 N 
ATOM     21  C   UNL     1     -38.513  21.099  -1.747  0.00  0.00    +0.112 C 
ATOM     22  C   UNL     1     -38.967  23.557  -1.755  0.00  0.00    +0.112 C 
ENDBRANCH   1  20
TORSDOF 4
ENDMDL
MODEL 7
REMARK VINA RESULT:      -5.2      1.479      1.808
REMARK  Name = 18990
REMARK  4 active torsions:
REMARK  status: ('A' for Active; 'I' for Inactive)
REMARK    1  A    between atoms: C_1  and  N_20
REMARK    2  A    between atoms: C_2  and  N_9
REMARK    3  A    between atoms: C_3  and  N_16
REMARK    4  A    between atoms: C_4  and  N_19
REMARK                            x       y       z     vdW  Elec       q    Type
REMARK                         _______ _______ _______ _____ _____    ______ ____
ROOT
ATOM      1  C   UNL     1     -37.656  21.954   0.680  0.00  0.00    +0.093 C 
ATOM      2  C   UNL     1     -36.719  23.587   2.739  0.00  0.00    +0.065 C 
ATOM      3  C   UNL     1     -36.300  22.277   0.752  0.00  0.00    +0.159 C 
ATOM      4  C   UNL     1     -38.543  22.448   1.636  0.00  0.00    +0.159 C 
ATOM      5  C   UNL     1     -35.832  23.093   1.782  0.00  0.00    +0.041 C 
ATOM      6  C   UNL     1     -38.075  23.265   2.665  0.00  0.00    +0.041 C 
ENDROOT
BRANCH   2   9
ATOM      7  O   UNL     1     -36.023  22.910   5.609  0.00  0.00    -0.269 OA
ATOM      8  O   UNL     1     -36.105  26.554   2.750  0.00  0.00    -0.269 OA
ATOM      9  N   UNL     1     -36.239  24.427   3.795  0.00  0.00    -0.201 N 
ATOM     10  C   UNL     1     -35.936  24.003   5.073  0.00  0.00    +0.259 C 
ATOM     11  C   UNL     1     -36.009  25.784   3.692  0.00  0.00    +0.259 C 
ATOM     12  C   UNL     1     -35.478  25.185   5.817  0.00  0.00    +0.063 C 
ATOM     13  C   UNL     1     -35.532  26.236   5.006  0.00  0.00    +0.063 C 
ENDBRANCH   2   9
BRANCH   3  16
ATOM     14  O   UNL     1     -35.179  22.446  -1.255  0.00  0.00    -0.126 OA
ATOM     15  O   UNL     1     -34.774  20.710   0.024  0.00  0.00    -0.126 OA
ATOM     16  N   UNL     1     -35.371  21.787  -0.208  0.00  0.00    +0.059 N 
ENDBRANCH   3  16
BRANCH   4  19
ATOM     17  O   UNL     1     -40.336  21.093   2.152  0.00  0.00    -0.126 OA
ATOM     18  O   UNL     1     -40.706  22.915   0.984  0.00  0.00    -0.126 OA
ATOM     19  N   UNL     1     -39.931  22.136   1.588  0.00  0.00    +0.059 N 
ENDBRANCH   4  19
BRANCH   1  20
ATOM     20  N   UNL     1     -38.131  21.126  -0.367  0.00  0.00    -0.301 N 
ATOM     21  C   UNL     1     -38.139  19.689  -0.211  0.00  0.00    +0.112 C 
ATOM     22  C   UNL     1     -38.626  21.714  -1.593  0.00  0.00    +0.112 C 
ENDBRANCH   1  20
TORSDOF 4
ENDMDL
MODEL 8
REMARK VINA RESULT:      -5.1      2.344      3.867
REMARK  Name = 18990
REMARK  4 active torsions:
REMARK  status: ('A' for Active; 'I' for Inactive)
REMARK    1  A    between atoms: C_1  and  N_20
REMARK    2  A    between atoms: C_2  and  N_9
REMARK    3  A    between atoms: C_3  and  N_16
REMARK    4  A    between atoms: C_4  and  N_19
REMARK                            x       y       z     vdW  Elec       q    Type
REMARK                         _______ _______ _______ _____ _____    ______ ____
ROOT
ATOM      1  C   UNL     1     -38.844  23.626   0.791  0.00  0.00    +0.093 C 
ATOM      2  C   UNL     1     -37.158  23.004   2.926  0.00  0.00    +0.065 C 
ATOM      3  C   UNL     1     -38.773  22.316   1.264  0.00  0.00    +0.159 C 
ATOM      4  C   UNL     1     -38.072  24.625   1.384  0.00  0.00    +0.159 C 
ATOM      5  C   UNL     1     -37.930  22.005   2.332  0.00  0.00    +0.041 C 
ATOM      6  C   UNL     1     -37.229  24.314   2.451  0.00  0.00    +0.041 C 
ENDROOT
BRANCH   2   9
ATOM      7  O   UNL     1     -36.523  24.575   5.437  0.00  0.00    -0.269 OA
ATOM      8  O   UNL     1     -35.430  20.560   3.399  0.00  0.00    -0.269 OA
ATOM      9  N   UNL     1     -36.292  22.684   4.020  0.00  0.00    -0.201 N 
ATOM     10  C   UNL     1     -36.090  23.476   5.133  0.00  0.00    +0.259 C 
ATOM     11  C   UNL     1     -35.530  21.538   4.124  0.00  0.00    +0.259 C 
ATOM     12  C   UNL     1     -35.135  22.764   5.994  0.00  0.00    +0.063 C 
ATOM     13  C   UNL     1     -34.797  21.628   5.394  0.00  0.00    +0.063 C 
ENDBRANCH   2   9
BRANCH   3  16
ATOM     14  O   UNL     1     -40.694  21.048   1.134  0.00  0.00    -0.126 OA
ATOM     15  O   UNL     1     -39.062  20.620  -0.270  0.00  0.00    -0.126 OA
ATOM     16  N   UNL     1     -39.549  21.276   0.680  0.00  0.00    +0.059 N 
ENDBRANCH   3  16
BRANCH   4  19
ATOM     17  O   UNL     1     -37.382  26.315  -0.025  0.00  0.00    -0.126 OA
ATOM     18  O   UNL     1     -38.913  26.771   1.480  0.00  0.00    -0.126 OA
ATOM     19  N   UNL     1     -38.125  25.971   0.923  0.00  0.00    +0.059 N 
ENDBRANCH   4  19
BRANCH   1  20
ATOM     20  N   UNL     1     -39.699  23.942  -0.294  0.00  0.00    -0.301 N 
ATOM     21  C   UNL     1     -41.058  24.372  -0.048  0.00  0.00    +0.112 C 
ATOM     22  C   UNL     1     -39.214  23.850  -1.653  0.00  0.00    +0.112 C 
ENDBRANCH   1  20
TORSDOF 4
ENDMDL
MODEL 9
REMARK VINA RESULT:      -5.0      2.606      3.753
REMARK  Name = 18990
REMARK  4 active torsions:
REMARK  status: ('A' for Active; 'I' for Inactive)
REMARK    1  A    between atoms: C_1  and  N_20
REMARK    2  A    between atoms: C_2  and  N_9
REMARK    3  A    between atoms: C_3  and  N_16
REMARK    4  A    between atoms: C_4  and  N_19
REMARK                            x       y       z     vdW  Elec       q    Type
REMARK                         _______ _______ _______ _____ _____    ______ ____
ROOT
ATOM      1  C   UNL     1     -34.736  18.418   0.171  0.00  0.00    +0.093 C 
ATOM      2  C   UNL     1     -35.367  20.553   1.853  0.00  0.00    +0.065 C 
ATOM      3  C   UNL     1     -33.735  19.031   0.925  0.00  0.00    +0.159 C 
ATOM      4  C   UNL     1     -36.052  18.873   0.257  0.00  0.00    +0.159 C 
ATOM      5  C   UNL     1     -34.051  20.098   1.766  0.00  0.00    +0.041 C 
ATOM      6  C   UNL     1     -36.367  19.940   1.097  0.00  0.00    +0.041 C 
ENDROOT
BRANCH   2   9
ATOM      7  O   UNL     1     -36.510  23.281   1.197  0.00  0.00    -0.269 OA
ATOM      8  O   UNL     1     -35.106  20.816   4.860  0.00  0.00    -0.269 OA
ATOM      9  N   UNL     1     -35.690  21.650   2.715  0.00  0.00    -0.201 N 
ATOM     10  C   UNL     1     -36.228  22.853   2.304  0.00  0.00    +0.259 C 
ATOM     11  C   UNL     1     -35.511  21.666   4.083  0.00  0.00    +0.259 C 
ATOM     12  C   UNL     1     -36.401  23.675   3.510  0.00  0.00    +0.063 C 
ATOM     13  C   UNL     1     -35.968  22.981   4.557  0.00  0.00    +0.063 C 
ENDBRANCH   2   9
BRANCH   3  16
ATOM     14  O   UNL     1     -31.621  19.100   0.007  0.00  0.00    -0.126 OA
ATOM     15  O   UNL     1     -32.000  17.700   1.654  0.00  0.00    -0.126 OA
ATOM     16  N   UNL     1     -32.384  18.589   0.859  0.00  0.00    +0.059 N 
ENDBRANCH   3  16
BRANCH   4  19
ATOM     17  O   UNL     1     -37.671  17.257  -0.034  0.00  0.00    -0.126 OA
ATOM     18  O   UNL     1     -37.404  18.763  -1.608  0.00  0.00    -0.126 OA
ATOM     19  N   UNL     1     -37.094  18.267  -0.500  0.00  0.00    +0.059 N 
ENDBRANCH   4  19
BRANCH   1  20
ATOM     20  N   UNL     1     -34.415  17.335  -0.684  0.00  0.00    -0.301 N 
ATOM     21  C   UNL     1     -34.452  15.978  -0.185  0.00  0.00    +0.112 C 
ATOM     22  C   UNL     1     -34.063  17.578  -2.066  0.00  0.00    +0.112 C 
ENDBRANCH   1  20
TORSDOF 4
ENDMDL
