MODEL 1
REMARK VINA RESULT:      -6.5      0.000      0.000
REMARK  Name = 191252
REMARK  9 active torsions:
REMARK  status: ('A' for Active; 'I' for Inactive)
REMARK    1  A    between atoms: C_2  and  C_20
REMARK    2  A    between atoms: C_3  and  O_16
REMARK    3  A    between atoms: C_4  and  O_18
REMARK    4  A    between atoms: C_5  and  N_6
REMARK    5  A    between atoms: C_10  and  C_13
REMARK    6  A    between atoms: C_20  and  C_21
REMARK    7  A    between atoms: C_21  and  P_22
REMARK    8  A    between atoms: P_22  and  O_24
REMARK    9  A    between atoms: P_22  and  O_26
REMARK                            x       y       z     vdW  Elec       q    Type
REMARK                         _______ _______ _______ _____ _____    ______ ____
ROOT
ATOM      1  O   UNL     1     -36.952  23.223   3.978  0.00  0.00    -0.335 OA
ATOM      2  C   UNL     1     -37.913  22.985   2.924  0.00  0.00    +0.147 C 
ATOM      3  C   UNL     1     -38.620  24.314   2.675  0.00  0.00    +0.169 C 
ATOM      4  C   UNL     1     -37.556  25.322   3.062  0.00  0.00    +0.188 C 
ATOM      5  C   UNL     1     -36.909  24.636   4.256  0.00  0.00    +0.240 C 
ENDROOT
BRANCH   5   6
ATOM      6  N   UNL     1     -35.529  25.049   4.503  0.00  0.00    -0.172 N 
ATOM      7  N   UNL     1     -35.256  26.196   5.140  0.00  0.00    -0.120 NA
ATOM      8  N   UNL     1     -33.346  25.086   4.553  0.00  0.00    -0.191 NA
ATOM      9  C   UNL     1     -34.388  24.394   4.156  0.00  0.00    +0.250 C 
ATOM     10  C   UNL     1     -33.922  26.173   5.144  0.00  0.00    +0.104 C 
BRANCH  10  13
ATOM     11  O   UNL     1     -32.852  28.282   5.134  0.00  0.00    -0.259 OA
ATOM     12  N   UNL     1     -32.745  27.068   7.062  0.00  0.00    -0.317 N 
ATOM     13  C   UNL     1     -33.155  27.227   5.735  0.00  0.00    +0.307 C 
ATOM     14  H   UNL     1     -32.215  27.773   7.501  0.00  0.00    +0.146 HD
ATOM     15  H   UNL     1     -32.986  26.253   7.557  0.00  0.00    +0.146 HD
ENDBRANCH  10  13
ENDBRANCH   5   6
BRANCH   3  16
ATOM     16  O   UNL     1     -39.727  24.420   3.570  0.00  0.00    -0.379 OA
ATOM     17  H   UNL     1     -39.488  24.995   4.314  0.00  0.00    +0.211 HD
ENDBRANCH   3  16
BRANCH   4  18
ATOM     18  O   UNL     1     -38.091  26.584   3.406  0.00  0.00    -0.378 OA
ATOM     19  H   UNL     1     -38.389  27.038   2.603  0.00  0.00    +0.211 HD
ENDBRANCH   4  18
BRANCH   2  20
ATOM     20  C   UNL     1     -37.166  22.471   1.700  0.00  0.00    +0.045 C 
BRANCH  20  21
ATOM     21  C   UNL     1     -35.706  22.170   2.002  0.00  0.00    +0.118 C 
BRANCH  21  22
ATOM     22  P   UNL     1     -35.422  20.490   2.604  0.00  0.00    +0.337 P 
ATOM     23  O   UNL     1     -34.266  19.811   1.957  0.00  0.00    -0.258 OA
BRANCH  22  24
ATOM     24  O   UNL     1     -36.861  19.799   2.395  0.00  0.00    -0.324 OA
ATOM     25  H   UNL     1     -36.744  18.847   2.251  0.00  0.00    +0.220 HD
ENDBRANCH  22  24
BRANCH  22  26
ATOM     26  O   UNL     1     -35.321  20.704   4.197  0.00  0.00    -0.324 OA
ATOM     27  H   UNL     1     -35.324  19.841   4.639  0.00  0.00    +0.220 HD
ENDBRANCH  22  26
ENDBRANCH  21  22
ENDBRANCH  20  21
ENDBRANCH   2  20
TORSDOF 9
ENDMDL
MODEL 2
REMARK VINA RESULT:      -6.2      2.485      3.623
REMARK  Name = 191252
REMARK  9 active torsions:
REMARK  status: ('A' for Active; 'I' for Inactive)
REMARK    1  A    between atoms: C_2  and  C_20
REMARK    2  A    between atoms: C_3  and  O_16
REMARK    3  A    between atoms: C_4  and  O_18
REMARK    4  A    between atoms: C_5  and  N_6
REMARK    5  A    between atoms: C_10  and  C_13
REMARK    6  A    between atoms: C_20  and  C_21
REMARK    7  A    between atoms: C_21  and  P_22
REMARK    8  A    between atoms: P_22  and  O_24
REMARK    9  A    between atoms: P_22  and  O_26
REMARK                            x       y       z     vdW  Elec       q    Type
REMARK                         _______ _______ _______ _____ _____    ______ ____
ROOT
ATOM      1  O   UNL     1     -39.321  24.215   3.400  0.00  0.00    -0.335 OA
ATOM      2  C   UNL     1     -40.094  24.530   2.220  0.00  0.00    +0.147 C 
ATOM      3  C   UNL     1     -39.560  25.859   1.695  0.00  0.00    +0.169 C 
ATOM      4  C   UNL     1     -38.117  25.832   2.157  0.00  0.00    +0.188 C 
ATOM      5  C   UNL     1     -38.247  25.169   3.520  0.00  0.00    +0.240 C 
ENDROOT
BRANCH   5   6
ATOM      6  N   UNL     1     -37.033  24.492   3.970  0.00  0.00    -0.172 N 
ATOM      7  N   UNL     1     -37.006  23.161   4.132  0.00  0.00    -0.120 NA
ATOM      8  N   UNL     1     -34.990  24.112   4.643  0.00  0.00    -0.191 NA
ATOM      9  C   UNL     1     -35.832  25.051   4.277  0.00  0.00    +0.250 C 
ATOM     10  C   UNL     1     -35.748  22.982   4.540  0.00  0.00    +0.104 C 
BRANCH  10  13
ATOM     11  O   UNL     1     -35.209  20.737   4.025  0.00  0.00    -0.259 OA
ATOM     12  N   UNL     1     -34.726  21.468   6.130  0.00  0.00    -0.317 N 
ATOM     13  C   UNL     1     -35.237  21.680   4.847  0.00  0.00    +0.307 C 
ATOM     14  H   UNL     1     -34.366  20.585   6.377  0.00  0.00    +0.146 HD
ATOM     15  H   UNL     1     -34.724  22.201   6.787  0.00  0.00    +0.146 HD
ENDBRANCH  10  13
ENDBRANCH   5   6
BRANCH   3  16
ATOM     16  O   UNL     1     -40.251  26.923   2.350  0.00  0.00    -0.379 OA
ATOM     17  H   UNL     1     -40.315  27.684   1.752  0.00  0.00    +0.211 HD
ENDBRANCH   3  16
BRANCH   4  18
ATOM     18  O   UNL     1     -37.542  27.120   2.250  0.00  0.00    -0.378 OA
ATOM     19  H   UNL     1     -37.432  27.358   3.183  0.00  0.00    +0.211 HD
ENDBRANCH   4  18
BRANCH   2  20
ATOM     20  C   UNL     1     -39.933  23.390   1.222  0.00  0.00    +0.045 C 
BRANCH  20  21
ATOM     21  C   UNL     1     -39.542  22.085   1.898  0.00  0.00    +0.118 C 
BRANCH  21  22
ATOM     22  P   UNL     1     -38.059  21.324   1.201  0.00  0.00    +0.337 P 
ATOM     23  O   UNL     1     -38.305  20.585  -0.067  0.00  0.00    -0.258 OA
BRANCH  22  24
ATOM     24  O   UNL     1     -37.502  20.453   2.436  0.00  0.00    -0.324 OA
ATOM     25  H   UNL     1     -37.867  19.555   2.388  0.00  0.00    +0.220 HD
ENDBRANCH  22  24
BRANCH  22  26
ATOM     26  O   UNL     1     -37.039  22.568   1.113  0.00  0.00    -0.324 OA
ATOM     27  H   UNL     1     -36.165  22.250   0.839  0.00  0.00    +0.220 HD
ENDBRANCH  22  26
ENDBRANCH  21  22
ENDBRANCH  20  21
ENDBRANCH   2  20
TORSDOF 9
ENDMDL
MODEL 3
REMARK VINA RESULT:      -6.2      2.456      4.494
REMARK  Name = 191252
REMARK  9 active torsions:
REMARK  status: ('A' for Active; 'I' for Inactive)
REMARK    1  A    between atoms: C_2  and  C_20
REMARK    2  A    between atoms: C_3  and  O_16
REMARK    3  A    between atoms: C_4  and  O_18
REMARK    4  A    between atoms: C_5  and  N_6
REMARK    5  A    between atoms: C_10  and  C_13
REMARK    6  A    between atoms: C_20  and  C_21
REMARK    7  A    between atoms: C_21  and  P_22
REMARK    8  A    between atoms: P_22  and  O_24
REMARK    9  A    between atoms: P_22  and  O_26
REMARK                            x       y       z     vdW  Elec       q    Type
REMARK                         _______ _______ _______ _____ _____    ______ ____
ROOT
ATOM      1  O   UNL     1     -36.995  23.334   1.381  0.00  0.00    -0.335 OA
ATOM      2  C   UNL     1     -38.142  22.750   0.722  0.00  0.00    +0.147 C 
ATOM      3  C   UNL     1     -38.119  21.261   1.055  0.00  0.00    +0.169 C 
ATOM      4  C   UNL     1     -37.430  21.243   2.405  0.00  0.00    +0.188 C 
ATOM      5  C   UNL     1     -36.389  22.338   2.227  0.00  0.00    +0.240 C 
ENDROOT
BRANCH   5   6
ATOM      6  N   UNL     1     -35.953  22.953   3.479  0.00  0.00    -0.172 N 
ATOM      7  N   UNL     1     -35.987  24.284   3.642  0.00  0.00    -0.120 NA
ATOM      8  N   UNL     1     -35.194  23.228   5.509  0.00  0.00    -0.191 NA
ATOM      9  C   UNL     1     -35.479  22.332   4.593  0.00  0.00    +0.250 C 
ATOM     10  C   UNL     1     -35.518  24.399   4.886  0.00  0.00    +0.104 C 
BRANCH  10  13
ATOM     11  O   UNL     1     -34.329  26.031   6.116  0.00  0.00    -0.259 OA
ATOM     12  N   UNL     1     -36.436  26.572   5.433  0.00  0.00    -0.317 N 
ATOM     13  C   UNL     1     -35.367  25.676   5.517  0.00  0.00    +0.307 C 
ATOM     14  H   UNL     1     -36.368  27.459   5.855  0.00  0.00    +0.146 HD
ATOM     15  H   UNL     1     -37.256  26.318   4.952  0.00  0.00    +0.146 HD
ENDBRANCH  10  13
ENDBRANCH   5   6
BRANCH   3  16
ATOM     16  O   UNL     1     -37.306  20.587   0.095  0.00  0.00    -0.379 OA
ATOM     17  H   UNL     1     -36.373  20.799   0.255  0.00  0.00    +0.211 HD
ENDBRANCH   3  16
BRANCH   4  18
ATOM     18  O   UNL     1     -36.836  19.996   2.706  0.00  0.00    -0.378 OA
ATOM     19  H   UNL     1     -37.497  19.413   3.110  0.00  0.00    +0.211 HD
ENDBRANCH   4  18
BRANCH   2  20
ATOM     20  C   UNL     1     -39.395  23.452   1.226  0.00  0.00    +0.045 C 
BRANCH  20  21
ATOM     21  C   UNL     1     -39.280  24.966   1.140  0.00  0.00    +0.118 C 
BRANCH  21  22
ATOM     22  P   UNL     1     -39.271  25.784   2.751  0.00  0.00    +0.337 P 
ATOM     23  O   UNL     1     -40.508  26.562   3.035  0.00  0.00    -0.258 OA
BRANCH  22  24
ATOM     24  O   UNL     1     -37.897  26.625   2.706  0.00  0.00    -0.324 OA
ATOM     25  H   UNL     1     -37.957  27.374   3.319  0.00  0.00    +0.220 HD
ENDBRANCH  22  24
BRANCH  22  26
ATOM     26  O   UNL     1     -38.949  24.568   3.757  0.00  0.00    -0.324 OA
ATOM     27  H   UNL     1     -38.000  24.555   3.955  0.00  0.00    +0.220 HD
ENDBRANCH  22  26
ENDBRANCH  21  22
ENDBRANCH  20  21
ENDBRANCH   2  20
TORSDOF 9
ENDMDL
MODEL 4
REMARK VINA RESULT:      -6.1      2.826      5.056
REMARK  Name = 191252
REMARK  9 active torsions:
REMARK  status: ('A' for Active; 'I' for Inactive)
REMARK    1  A    between atoms: C_2  and  C_20
REMARK    2  A    between atoms: C_3  and  O_16
REMARK    3  A    between atoms: C_4  and  O_18
REMARK    4  A    between atoms: C_5  and  N_6
REMARK    5  A    between atoms: C_10  and  C_13
REMARK    6  A    between atoms: C_20  and  C_21
REMARK    7  A    between atoms: C_21  and  P_22
REMARK    8  A    between atoms: P_22  and  O_24
REMARK    9  A    between atoms: P_22  and  O_26
REMARK                            x       y       z     vdW  Elec       q    Type
REMARK                         _______ _______ _______ _____ _____    ______ ____
ROOT
ATOM      1  O   UNL     1     -37.027  23.085   4.148  0.00  0.00    -0.335 OA
ATOM      2  C   UNL     1     -35.873  22.263   4.437  0.00  0.00    +0.147 C 
ATOM      3  C   UNL     1     -35.492  21.577   3.129  0.00  0.00    +0.169 C 
ATOM      4  C   UNL     1     -35.970  22.573   2.091  0.00  0.00    +0.188 C 
ATOM      5  C   UNL     1     -37.257  23.078   2.726  0.00  0.00    +0.240 C 
ENDROOT
BRANCH   5   6
ATOM      6  N   UNL     1     -37.655  24.412   2.283  0.00  0.00    -0.172 N 
ATOM      7  N   UNL     1     -36.763  25.411   2.218  0.00  0.00    -0.120 NA
ATOM      8  N   UNL     1     -38.846  26.100   1.572  0.00  0.00    -0.191 NA
ATOM      9  C   UNL     1     -38.892  24.829   1.899  0.00  0.00    +0.250 C 
ATOM     10  C   UNL     1     -37.533  26.410   1.782  0.00  0.00    +0.104 C 
BRANCH  10  13
ATOM     11  O   UNL     1     -37.468  28.514   0.704  0.00  0.00    -0.259 OA
ATOM     12  N   UNL     1     -35.927  28.135   2.341  0.00  0.00    -0.317 N 
ATOM     13  C   UNL     1     -37.005  27.721   1.553  0.00  0.00    +0.307 C 
ATOM     14  H   UNL     1     -35.538  29.030   2.212  0.00  0.00    +0.146 HD
ATOM     15  H   UNL     1     -35.558  27.532   3.026  0.00  0.00    +0.146 HD
ENDBRANCH  10  13
ENDBRANCH   5   6
BRANCH   3  16
ATOM     16  O   UNL     1     -36.242  20.367   3.009  0.00  0.00    -0.379 OA
ATOM     17  H   UNL     1     -35.861  19.819   2.306  0.00  0.00    +0.211 HD
ENDBRANCH   3  16
BRANCH   4  18
ATOM     18  O   UNL     1     -36.201  21.986   0.826  0.00  0.00    -0.378 OA
ATOM     19  H   UNL     1     -36.537  21.085   0.945  0.00  0.00    +0.211 HD
ENDBRANCH   4  18
BRANCH   2  20
ATOM     20  C   UNL     1     -34.768  23.160   4.980  0.00  0.00    +0.045 C 
BRANCH  20  21
ATOM     21  C   UNL     1     -35.314  24.284   5.849  0.00  0.00    +0.118 C 
BRANCH  21  22
ATOM     22  P   UNL     1     -34.867  25.934   5.265  0.00  0.00    +0.337 P 
ATOM     23  O   UNL     1     -33.866  26.622   6.125  0.00  0.00    -0.258 OA
BRANCH  22  24
ATOM     24  O   UNL     1     -36.300  26.653   5.126  0.00  0.00    -0.324 OA
ATOM     25  H   UNL     1     -36.262  27.532   5.535  0.00  0.00    +0.220 HD
ENDBRANCH  22  24
BRANCH  22  26
ATOM     26  O   UNL     1     -34.422  25.655   3.742  0.00  0.00    -0.324 OA
ATOM     27  H   UNL     1     -33.477  25.848   3.641  0.00  0.00    +0.220 HD
ENDBRANCH  22  26
ENDBRANCH  21  22
ENDBRANCH  20  21
ENDBRANCH   2  20
TORSDOF 9
ENDMDL
MODEL 5
REMARK VINA RESULT:      -5.8      2.783      5.043
REMARK  Name = 191252
REMARK  9 active torsions:
REMARK  status: ('A' for Active; 'I' for Inactive)
REMARK    1  A    between atoms: C_2  and  C_20
REMARK    2  A    between atoms: C_3  and  O_16
REMARK    3  A    between atoms: C_4  and  O_18
REMARK    4  A    between atoms: C_5  and  N_6
REMARK    5  A    between atoms: C_10  and  C_13
REMARK    6  A    between atoms: C_20  and  C_21
REMARK    7  A    between atoms: C_21  and  P_22
REMARK    8  A    between atoms: P_22  and  O_24
REMARK    9  A    between atoms: P_22  and  O_26
REMARK                            x       y       z     vdW  Elec       q    Type
REMARK                         _______ _______ _______ _____ _____    ______ ____
ROOT
ATOM      1  O   UNL     1     -35.491  24.228   3.052  0.00  0.00    -0.335 OA
ATOM      2  C   UNL     1     -34.872  23.633   4.216  0.00  0.00    +0.147 C 
ATOM      3  C   UNL     1     -34.990  24.658   5.340  0.00  0.00    +0.169 C 
ATOM      4  C   UNL     1     -36.249  25.410   4.959  0.00  0.00    +0.188 C 
ATOM      5  C   UNL     1     -36.126  25.461   3.444  0.00  0.00    +0.240 C 
ENDROOT
BRANCH   5   6
ATOM      6  N   UNL     1     -37.403  25.601   2.748  0.00  0.00    -0.172 N 
ATOM      7  N   UNL     1     -38.302  24.607   2.750  0.00  0.00    -0.120 NA
ATOM      8  N   UNL     1     -39.050  26.414   1.564  0.00  0.00    -0.191 NA
ATOM      9  C   UNL     1     -37.853  26.672   2.040  0.00  0.00    +0.250 C 
ATOM     10  C   UNL     1     -39.280  25.148   2.021  0.00  0.00    +0.104 C 
BRANCH  10  13
ATOM     11  O   UNL     1     -41.590  24.996   1.539  0.00  0.00    -0.259 OA
ATOM     12  N   UNL     1     -40.423  23.042   1.671  0.00  0.00    -0.317 N 
ATOM     13  C   UNL     1     -40.490  24.436   1.741  0.00  0.00    +0.307 C 
ATOM     14  H   UNL     1     -41.235  22.519   1.480  0.00  0.00    +0.146 HD
ATOM     15  H   UNL     1     -39.564  22.582   1.810  0.00  0.00    +0.146 HD
ENDBRANCH  10  13
ENDBRANCH   5   6
BRANCH   3  16
ATOM     16  O   UNL     1     -33.869  25.540   5.277  0.00  0.00    -0.379 OA
ATOM     17  H   UNL     1     -34.158  26.407   4.951  0.00  0.00    +0.211 HD
ENDBRANCH   3  16
BRANCH   4  18
ATOM     18  O   UNL     1     -36.313  26.703   5.527  0.00  0.00    -0.378 OA
ATOM     19  H   UNL     1     -35.551  26.837   6.111  0.00  0.00    +0.211 HD
ENDBRANCH   4  18
BRANCH   2  20
ATOM     20  C   UNL     1     -35.590  22.326   4.526  0.00  0.00    +0.045 C 
BRANCH  20  21
ATOM     21  C   UNL     1     -35.230  21.224   3.541  0.00  0.00    +0.118 C 
BRANCH  21  22
ATOM     22  P   UNL     1     -36.425  21.032   2.200  0.00  0.00    +0.337 P 
ATOM     23  O   UNL     1     -35.895  21.423   0.865  0.00  0.00    -0.258 OA
BRANCH  22  24
ATOM     24  O   UNL     1     -37.689  21.872   2.738  0.00  0.00    -0.324 OA
ATOM     25  H   UNL     1     -37.379  22.692   3.152  0.00  0.00    +0.220 HD
ENDBRANCH  22  24
BRANCH  22  26
ATOM     26  O   UNL     1     -36.882  19.496   2.361  0.00  0.00    -0.324 OA
ATOM     27  H   UNL     1     -37.337  19.208   1.553  0.00  0.00    +0.220 HD
ENDBRANCH  22  26
ENDBRANCH  21  22
ENDBRANCH  20  21
ENDBRANCH   2  20
TORSDOF 9
ENDMDL
MODEL 6
REMARK VINA RESULT:      -5.7      4.213      6.676
REMARK  Name = 191252
REMARK  9 active torsions:
REMARK  status: ('A' for Active; 'I' for Inactive)
REMARK    1  A    between atoms: C_2  and  C_20
REMARK    2  A    between atoms: C_3  and  O_16
REMARK    3  A    between atoms: C_4  and  O_18
REMARK    4  A    between atoms: C_5  and  N_6
REMARK    5  A    between atoms: C_10  and  C_13
REMARK    6  A    between atoms: C_20  and  C_21
REMARK    7  A    between atoms: C_21  and  P_22
REMARK    8  A    between atoms: P_22  and  O_24
REMARK    9  A    between atoms: P_22  and  O_26
REMARK                            x       y       z     vdW  Elec       q    Type
REMARK                         _______ _______ _______ _____ _____    ______ ____
ROOT
ATOM      1  O   UNL     1     -35.272  22.482   0.793  0.00  0.00    -0.335 OA
ATOM      2  C   UNL     1     -36.040  23.185   1.797  0.00  0.00    +0.147 C 
ATOM      3  C   UNL     1     -36.834  22.124   2.554  0.00  0.00    +0.169 C 
ATOM      4  C   UNL     1     -35.946  20.903   2.424  0.00  0.00    +0.188 C 
ATOM      5  C   UNL     1     -35.412  21.065   1.008  0.00  0.00    +0.240 C 
ENDROOT
BRANCH   5   6
ATOM      6  N   UNL     1     -34.132  20.401   0.775  0.00  0.00    -0.172 N 
ATOM      7  N   UNL     1     -33.898  19.168   1.249  0.00  0.00    -0.120 NA
ATOM      8  N   UNL     1     -32.094  19.986   0.107  0.00  0.00    -0.191 NA
ATOM      9  C   UNL     1     -33.054  20.881   0.098  0.00  0.00    +0.250 C 
ATOM     10  C   UNL     1     -32.652  18.964   0.819  0.00  0.00    +0.104 C 
BRANCH  10  13
ATOM     11  O   UNL     1     -31.004  17.657   1.901  0.00  0.00    -0.259 OA
ATOM     12  N   UNL     1     -32.380  16.588   0.430  0.00  0.00    -0.317 N 
ATOM     13  C   UNL     1     -31.954  17.743   1.092  0.00  0.00    +0.307 C 
ATOM     14  H   UNL     1     -31.924  15.731   0.593  0.00  0.00    +0.146 HD
ATOM     15  H   UNL     1     -33.136  16.631  -0.199  0.00  0.00    +0.146 HD
ENDBRANCH  10  13
ENDBRANCH   5   6
BRANCH   3  16
ATOM     16  O   UNL     1     -38.064  21.894   1.867  0.00  0.00    -0.379 OA
ATOM     17  H   UNL     1     -37.977  22.176   0.943  0.00  0.00    +0.211 HD
ENDBRANCH   3  16
BRANCH   4  18
ATOM     18  O   UNL     1     -36.649  19.688   2.586  0.00  0.00    -0.378 OA
ATOM     19  H   UNL     1     -37.549  19.875   2.895  0.00  0.00    +0.211 HD
ENDBRANCH   4  18
BRANCH   2  20
ATOM     20  C   UNL     1     -35.075  23.953   2.690  0.00  0.00    +0.045 C 
BRANCH  20  21
ATOM     21  C   UNL     1     -35.654  25.280   3.155  0.00  0.00    +0.118 C 
BRANCH  21  22
ATOM     22  P   UNL     1     -36.565  25.167   4.711  0.00  0.00    +0.337 P 
ATOM     23  O   UNL     1     -36.075  24.091   5.615  0.00  0.00    -0.258 OA
BRANCH  22  24
ATOM     24  O   UNL     1     -38.091  25.037   4.212  0.00  0.00    -0.324 OA
ATOM     25  H   UNL     1     -38.663  24.836   4.969  0.00  0.00    +0.220 HD
ENDBRANCH  22  24
BRANCH  22  26
ATOM     26  O   UNL     1     -36.470  26.671   5.280  0.00  0.00    -0.324 OA
ATOM     27  H   UNL     1     -36.144  26.651   6.193  0.00  0.00    +0.220 HD
ENDBRANCH  22  26
ENDBRANCH  21  22
ENDBRANCH  20  21
ENDBRANCH   2  20
TORSDOF 9
ENDMDL
MODEL 7
REMARK VINA RESULT:      -5.7      2.095      4.148
REMARK  Name = 191252
REMARK  9 active torsions:
REMARK  status: ('A' for Active; 'I' for Inactive)
REMARK    1  A    between atoms: C_2  and  C_20
REMARK    2  A    between atoms: C_3  and  O_16
REMARK    3  A    between atoms: C_4  and  O_18
REMARK    4  A    between atoms: C_5  and  N_6
REMARK    5  A    between atoms: C_10  and  C_13
REMARK    6  A    between atoms: C_20  and  C_21
REMARK    7  A    between atoms: C_21  and  P_22
REMARK    8  A    between atoms: P_22  and  O_24
REMARK    9  A    between atoms: P_22  and  O_26
REMARK                            x       y       z     vdW  Elec       q    Type
REMARK                         _______ _______ _______ _____ _____    ______ ____
ROOT
ATOM      1  O   UNL     1     -36.242  23.469   1.539  0.00  0.00    -0.335 OA
ATOM      2  C   UNL     1     -37.349  22.578   1.268  0.00  0.00    +0.147 C 
ATOM      3  C   UNL     1     -37.096  21.314   2.084  0.00  0.00    +0.169 C 
ATOM      4  C   UNL     1     -36.301  21.844   3.261  0.00  0.00    +0.188 C 
ATOM      5  C   UNL     1     -35.437  22.903   2.591  0.00  0.00    +0.240 C 
ENDROOT
BRANCH   5   6
ATOM      6  N   UNL     1     -34.988  23.961   3.493  0.00  0.00    -0.172 N 
ATOM      7  N   UNL     1     -34.897  25.231   3.074  0.00  0.00    -0.120 NA
ATOM      8  N   UNL     1     -34.276  25.022   5.265  0.00  0.00    -0.191 NA
ATOM      9  C   UNL     1     -34.616  23.844   4.797  0.00  0.00    +0.250 C 
ATOM     10  C   UNL     1     -34.462  25.833   4.183  0.00  0.00    +0.104 C 
BRANCH  10  13
ATOM     11  O   UNL     1     -33.239  27.753   4.823  0.00  0.00    -0.259 OA
ATOM     12  N   UNL     1     -35.089  28.080   3.532  0.00  0.00    -0.317 N 
ATOM     13  C   UNL     1     -34.210  27.242   4.223  0.00  0.00    +0.307 C 
ATOM     14  H   UNL     1     -34.947  29.055   3.537  0.00  0.00    +0.146 HD
ATOM     15  H   UNL     1     -35.850  27.697   3.040  0.00  0.00    +0.146 HD
ENDBRANCH  10  13
ENDBRANCH   5   6
BRANCH   3  16
ATOM     16  O   UNL     1     -36.280  20.428   1.318  0.00  0.00    -0.379 OA
ATOM     17  H   UNL     1     -36.382  19.523   1.653  0.00  0.00    +0.211 HD
ENDBRANCH   3  16
BRANCH   4  18
ATOM     18  O   UNL     1     -35.520  20.849   3.892  0.00  0.00    -0.378 OA
ATOM     19  H   UNL     1     -34.851  20.521   3.272  0.00  0.00    +0.211 HD
ENDBRANCH   4  18
BRANCH   2  20
ATOM     20  C   UNL     1     -38.641  23.286   1.656  0.00  0.00    +0.045 C 
BRANCH  20  21
ATOM     21  C   UNL     1     -38.604  24.771   1.328  0.00  0.00    +0.118 C 
BRANCH  21  22
ATOM     22  P   UNL     1     -38.673  25.836   2.785  0.00  0.00    +0.337 P 
ATOM     23  O   UNL     1     -40.021  26.414   3.041  0.00  0.00    -0.258 OA
BRANCH  22  24
ATOM     24  O   UNL     1     -37.489  26.891   2.501  0.00  0.00    -0.324 OA
ATOM     25  H   UNL     1     -36.654  26.539   2.847  0.00  0.00    +0.220 HD
ENDBRANCH  22  24
BRANCH  22  26
ATOM     26  O   UNL     1     -38.077  24.885   3.940  0.00  0.00    -0.324 OA
ATOM     27  H   UNL     1     -37.187  24.592   3.690  0.00  0.00    +0.220 HD
ENDBRANCH  22  26
ENDBRANCH  21  22
ENDBRANCH  20  21
ENDBRANCH   2  20
TORSDOF 9
ENDMDL
MODEL 8
REMARK VINA RESULT:      -5.6      1.784      2.055
REMARK  Name = 191252
REMARK  9 active torsions:
REMARK  status: ('A' for Active; 'I' for Inactive)
REMARK    1  A    between atoms: C_2  and  C_20
REMARK    2  A    between atoms: C_3  and  O_16
REMARK    3  A    between atoms: C_4  and  O_18
REMARK    4  A    between atoms: C_5  and  N_6
REMARK    5  A    between atoms: C_10  and  C_13
REMARK    6  A    between atoms: C_20  and  C_21
REMARK    7  A    between atoms: C_21  and  P_22
REMARK    8  A    between atoms: P_22  and  O_24
REMARK    9  A    between atoms: P_22  and  O_26
REMARK                            x       y       z     vdW  Elec       q    Type
REMARK                         _______ _______ _______ _____ _____    ______ ____
ROOT
ATOM      1  O   UNL     1     -35.508  24.226   4.571  0.00  0.00    -0.335 OA
ATOM      2  C   UNL     1     -36.488  23.454   3.840  0.00  0.00    +0.147 C 
ATOM      3  C   UNL     1     -37.415  24.461   3.165  0.00  0.00    +0.169 C 
ATOM      4  C   UNL     1     -36.503  25.655   2.966  0.00  0.00    +0.188 C 
ATOM      5  C   UNL     1     -35.673  25.619   4.241  0.00  0.00    +0.240 C 
ENDROOT
BRANCH   5   6
ATOM      6  N   UNL     1     -34.364  26.255   4.116  0.00  0.00    -0.172 N 
ATOM      7  N   UNL     1     -34.027  27.297   4.890  0.00  0.00    -0.120 NA
ATOM      8  N   UNL     1     -32.337  26.734   3.457  0.00  0.00    -0.191 NA
ATOM      9  C   UNL     1     -33.354  25.927   3.266  0.00  0.00    +0.250 C 
ATOM     10  C   UNL     1     -32.793  27.550   4.452  0.00  0.00    +0.104 C 
BRANCH  10  13
ATOM     11  O   UNL     1     -32.266  29.177   6.085  0.00  0.00    -0.259 OA
ATOM     12  N   UNL     1     -30.874  29.018   4.287  0.00  0.00    -0.317 N 
ATOM     13  C   UNL     1     -32.005  28.612   5.000  0.00  0.00    +0.307 C 
ATOM     14  H   UNL     1     -30.308  29.746   4.633  0.00  0.00    +0.146 HD
ATOM     15  H   UNL     1     -30.641  28.575   3.439  0.00  0.00    +0.146 HD
ENDBRANCH  10  13
ENDBRANCH   5   6
BRANCH   3  16
ATOM     16  O   UNL     1     -38.460  24.805   4.075  0.00  0.00    -0.379 OA
ATOM     17  H   UNL     1     -39.016  25.496   3.682  0.00  0.00    +0.211 HD
ENDBRANCH   3  16
BRANCH   4  18
ATOM     18  O   UNL     1     -37.209  26.873   2.832  0.00  0.00    -0.378 OA
ATOM     19  H   UNL     1     -37.497  27.177   3.706  0.00  0.00    +0.211 HD
ENDBRANCH   4  18
BRANCH   2  20
ATOM     20  C   UNL     1     -35.754  22.564   2.846  0.00  0.00    +0.045 C 
BRANCH  20  21
ATOM     21  C   UNL     1     -36.556  22.340   1.573  0.00  0.00    +0.118 C 
BRANCH  21  22
ATOM     22  P   UNL     1     -37.436  20.763   1.538  0.00  0.00    +0.337 P 
ATOM     23  O   UNL     1     -37.563  20.178   0.175  0.00  0.00    -0.258 OA
BRANCH  22  24
ATOM     24  O   UNL     1     -38.814  21.117   2.292  0.00  0.00    -0.324 OA
ATOM     25  H   UNL     1     -39.364  20.320   2.352  0.00  0.00    +0.220 HD
ENDBRANCH  22  24
BRANCH  22  26
ATOM     26  O   UNL     1     -36.619  19.886   2.614  0.00  0.00    -0.324 OA
ATOM     27  H   UNL     1     -37.239  19.338   3.120  0.00  0.00    +0.220 HD
ENDBRANCH  22  26
ENDBRANCH  21  22
ENDBRANCH  20  21
ENDBRANCH   2  20
TORSDOF 9
ENDMDL
MODEL 9
REMARK VINA RESULT:      -5.6      3.129      5.632
REMARK  Name = 191252
REMARK  9 active torsions:
REMARK  status: ('A' for Active; 'I' for Inactive)
REMARK    1  A    between atoms: C_2  and  C_20
REMARK    2  A    between atoms: C_3  and  O_16
REMARK    3  A    between atoms: C_4  and  O_18
REMARK    4  A    between atoms: C_5  and  N_6
REMARK    5  A    between atoms: C_10  and  C_13
REMARK    6  A    between atoms: C_20  and  C_21
REMARK    7  A    between atoms: C_21  and  P_22
REMARK    8  A    between atoms: P_22  and  O_24
REMARK    9  A    between atoms: P_22  and  O_26
REMARK                            x       y       z     vdW  Elec       q    Type
REMARK                         _______ _______ _______ _____ _____    ______ ____
ROOT
ATOM      1  O   UNL     1     -36.242  25.362   4.983  0.00  0.00    -0.335 OA
ATOM      2  C   UNL     1     -35.133  24.480   5.271  0.00  0.00    +0.147 C 
ATOM      3  C   UNL     1     -35.547  23.093   4.787  0.00  0.00    +0.169 C 
ATOM      4  C   UNL     1     -36.500  23.419   3.654  0.00  0.00    +0.188 C 
ATOM      5  C   UNL     1     -37.217  24.643   4.203  0.00  0.00    +0.240 C 
ENDROOT
BRANCH   5   6
ATOM      6  N   UNL     1     -37.771  25.520   3.174  0.00  0.00    -0.172 N 
ATOM      7  N   UNL     1     -36.968  26.188   2.334  0.00  0.00    -0.120 NA
ATOM      8  N   UNL     1     -39.173  26.623   1.913  0.00  0.00    -0.191 NA
ATOM      9  C   UNL     1     -39.081  25.784   2.919  0.00  0.00    +0.250 C 
ATOM     10  C   UNL     1     -37.865  26.841   1.592  0.00  0.00    +0.104 C 
BRANCH  10  13
ATOM     11  O   UNL     1     -38.005  28.819   0.304  0.00  0.00    -0.259 OA
ATOM     12  N   UNL     1     -36.407  27.304  -0.286  0.00  0.00    -0.317 N 
ATOM     13  C   UNL     1     -37.467  27.712   0.527  0.00  0.00    +0.307 C 
ATOM     14  H   UNL     1     -36.106  27.878  -1.028  0.00  0.00    +0.146 HD
ATOM     15  H   UNL     1     -35.960  26.444  -0.118  0.00  0.00    +0.146 HD
ENDBRANCH  10  13
ENDBRANCH   5   6
BRANCH   3  16
ATOM     16  O   UNL     1     -36.259  22.434   5.834  0.00  0.00    -0.379 OA
ATOM     17  H   UNL     1     -36.823  21.742   5.456  0.00  0.00    +0.211 HD
ENDBRANCH   3  16
BRANCH   4  18
ATOM     18  O   UNL     1     -37.399  22.366   3.368  0.00  0.00    -0.378 OA
ATOM     19  H   UNL     1     -37.516  21.817   4.159  0.00  0.00    +0.211 HD
ENDBRANCH   4  18
BRANCH   2  20
ATOM     20  C   UNL     1     -33.898  25.013   4.559  0.00  0.00    +0.045 C 
BRANCH  20  21
ATOM     21  C   UNL     1     -33.623  26.470   4.896  0.00  0.00    +0.118 C 
BRANCH  21  22
ATOM     22  P   UNL     1     -33.820  27.589   3.491  0.00  0.00    +0.337 P 
ATOM     23  O   UNL     1     -32.754  28.624   3.396  0.00  0.00    -0.258 OA
BRANCH  22  24
ATOM     24  O   UNL     1     -35.323  28.132   3.687  0.00  0.00    -0.324 OA
ATOM     25  H   UNL     1     -35.549  28.126   4.630  0.00  0.00    +0.220 HD
ENDBRANCH  22  24
BRANCH  22  26
ATOM     26  O   UNL     1     -33.934  26.570   2.249  0.00  0.00    -0.324 OA
ATOM     27  H   UNL     1     -33.102  26.573   1.751  0.00  0.00    +0.220 HD
ENDBRANCH  22  26
ENDBRANCH  21  22
ENDBRANCH  20  21
ENDBRANCH   2  20
TORSDOF 9
ENDMDL
