MODEL 1
REMARK VINA RESULT:      -5.0      0.000      0.000
REMARK  Name = 55456
REMARK  7 active torsions:
REMARK  status: ('A' for Active; 'I' for Inactive)
REMARK    1  A    between atoms: N_2  and  C_8
REMARK    2  A    between atoms: N_3  and  N_7
REMARK    3  A    between atoms: N_3  and  C_16
REMARK    4  A    between atoms: C_8  and  C_9
REMARK    5  A    between atoms: C_9  and  S_10
REMARK    6  A    between atoms: S_10  and  N_13
REMARK    7  A    between atoms: C_16  and  C_18
REMARK                            x       y       z     vdW  Elec       q    Type
REMARK                         _______ _______ _______ _____ _____    ______ ____
ROOT
ATOM      1  O   UNL     1     -37.256  24.957   3.406  0.00  0.00    -0.251 OA
ATOM      2  N   UNL     1     -36.900  22.700   3.667  0.00  0.00    -0.286 N 
ATOM      3  N   UNL     1     -35.878  24.256   5.134  0.00  0.00    -0.163 N 
ATOM      4  C   UNL     1     -36.714  24.037   4.028  0.00  0.00    +0.320 C 
ATOM      5  H   UNL     1     -36.448  21.999   4.190  0.00  0.00    +0.151 HD
ENDROOT
BRANCH   3   7
ATOM      6  O   UNL     1     -36.076  22.360   6.393  0.00  0.00    -0.078 OA
ATOM      7  N   UNL     1     -35.256  23.103   5.845  0.00  0.00    +0.054 NA
ENDBRANCH   3   7
BRANCH   2   8
ATOM      8  C   UNL     1     -37.728  22.312   2.558  0.00  0.00    +0.118 C 
BRANCH   8   9
ATOM      9  C   UNL     1     -37.164  21.118   1.811  0.00  0.00    +0.190 C 
BRANCH   9  10
ATOM     10  S   UNL     1     -35.421  20.899   2.105  0.00  0.00    +0.046 S 
ATOM     11  O   UNL     1     -35.265  20.434   3.470  0.00  0.00    -0.157 OA
ATOM     12  O   UNL     1     -34.750  22.107   1.663  0.00  0.00    -0.157 OA
BRANCH  10  13
ATOM     13  N   UNL     1     -35.059  19.616   1.021  0.00  0.00    -0.156 NA
ATOM     14  C   UNL     1     -35.481  19.761  -0.395  0.00  0.00    +0.115 C 
ATOM     15  C   UNL     1     -33.737  18.952   1.147  0.00  0.00    +0.115 C 
ENDBRANCH  10  13
ENDBRANCH   9  10
ENDBRANCH   8   9
ENDBRANCH   2   8
BRANCH   3  16
ATOM     16  C   UNL     1     -35.599  25.603   5.618  0.00  0.00    +0.134 C 
BRANCH  16  18
ATOM     17 CL   UNL     1     -33.309  26.710   6.607  0.00  0.00    -0.112 Cl
ATOM     18  C   UNL     1     -34.221  26.097   5.207  0.00  0.00    +0.118 C 
ENDBRANCH  16  18
ENDBRANCH   3  16
TORSDOF 7
ENDMDL
MODEL 2
REMARK VINA RESULT:      -4.6      2.556      3.884
REMARK  Name = 55456
REMARK  7 active torsions:
REMARK  status: ('A' for Active; 'I' for Inactive)
REMARK    1  A    between atoms: N_2  and  C_8
REMARK    2  A    between atoms: N_3  and  N_7
REMARK    3  A    between atoms: N_3  and  C_16
REMARK    4  A    between atoms: C_8  and  C_9
REMARK    5  A    between atoms: C_9  and  S_10
REMARK    6  A    between atoms: S_10  and  N_13
REMARK    7  A    between atoms: C_16  and  C_18
REMARK                            x       y       z     vdW  Elec       q    Type
REMARK                         _______ _______ _______ _____ _____    ______ ____
ROOT
ATOM      1  O   UNL     1     -35.425  23.802   2.482  0.00  0.00    -0.251 OA
ATOM      2  N   UNL     1     -36.989  22.402   3.421  0.00  0.00    -0.286 N 
ATOM      3  N   UNL     1     -35.412  23.531   4.785  0.00  0.00    -0.163 N 
ATOM      4  C   UNL     1     -35.907  23.283   3.495  0.00  0.00    +0.320 C 
ATOM      5  H   UNL     1     -37.341  22.011   4.253  0.00  0.00    +0.151 HD
ENDROOT
BRANCH   3   7
ATOM      6  O   UNL     1     -35.612  21.738   6.188  0.00  0.00    -0.078 OA
ATOM      7  N   UNL     1     -36.040  22.875   5.967  0.00  0.00    +0.054 NA
ENDBRANCH   3   7
BRANCH   2   8
ATOM      8  C   UNL     1     -37.607  22.049   2.173  0.00  0.00    +0.118 C 
BRANCH   8   9
ATOM      9  C   UNL     1     -39.119  22.164   2.229  0.00  0.00    +0.190 C 
BRANCH   9  10
ATOM     10  S   UNL     1     -39.669  23.857   2.214  0.00  0.00    +0.046 S 
ATOM     11  O   UNL     1     -39.470  24.391   3.548  0.00  0.00    -0.157 OA
ATOM     12  O   UNL     1     -40.986  23.882   1.606  0.00  0.00    -0.157 OA
BRANCH  10  13
ATOM     13  N   UNL     1     -38.531  24.567   1.140  0.00  0.00    -0.156 NA
ATOM     14  C   UNL     1     -38.756  24.406  -0.318  0.00  0.00    +0.115 C 
ATOM     15  C   UNL     1     -38.000  25.911   1.480  0.00  0.00    +0.115 C 
ENDBRANCH  10  13
ENDBRANCH   9  10
ENDBRANCH   8   9
ENDBRANCH   2   8
BRANCH   3  16
ATOM     16  C   UNL     1     -34.286  24.430   5.005  0.00  0.00    +0.134 C 
BRANCH  16  18
ATOM     17 CL   UNL     1     -33.455  26.560   6.496  0.00  0.00    -0.112 Cl
ATOM     18  C   UNL     1     -34.721  25.799   5.503  0.00  0.00    +0.118 C 
ENDBRANCH  16  18
ENDBRANCH   3  16
TORSDOF 7
ENDMDL
MODEL 3
REMARK VINA RESULT:      -4.5      4.084      5.429
REMARK  Name = 55456
REMARK  7 active torsions:
REMARK  status: ('A' for Active; 'I' for Inactive)
REMARK    1  A    between atoms: N_2  and  C_8
REMARK    2  A    between atoms: N_3  and  N_7
REMARK    3  A    between atoms: N_3  and  C_16
REMARK    4  A    between atoms: C_8  and  C_9
REMARK    5  A    between atoms: C_9  and  S_10
REMARK    6  A    between atoms: S_10  and  N_13
REMARK    7  A    between atoms: C_16  and  C_18
REMARK                            x       y       z     vdW  Elec       q    Type
REMARK                         _______ _______ _______ _____ _____    ______ ____
ROOT
ATOM      1  O   UNL     1     -32.712  28.108   2.567  0.00  0.00    -0.251 OA
ATOM      2  N   UNL     1     -34.234  27.433   4.152  0.00  0.00    -0.286 N 
ATOM      3  N   UNL     1     -32.128  28.305   4.801  0.00  0.00    -0.163 N 
ATOM      4  C   UNL     1     -33.002  27.960   3.759  0.00  0.00    +0.320 C 
ATOM      5  H   UNL     1     -34.423  27.333   5.113  0.00  0.00    +0.151 HD
ENDROOT
BRANCH   3   7
ATOM      6  O   UNL     1     -32.402  26.944   6.617  0.00  0.00    -0.078 OA
ATOM      7  N   UNL     1     -32.538  28.105   6.221  0.00  0.00    +0.054 NA
ENDBRANCH   3   7
BRANCH   2   8
ATOM      8  C   UNL     1     -35.237  27.034   3.203  0.00  0.00    +0.118 C 
BRANCH   8   9
ATOM      9  C   UNL     1     -35.637  25.580   3.369  0.00  0.00    +0.190 C 
BRANCH   9  10
ATOM     10  S   UNL     1     -35.103  24.906   4.929  0.00  0.00    +0.046 S 
ATOM     11  O   UNL     1     -35.586  25.791   5.973  0.00  0.00    -0.157 OA
ATOM     12  O   UNL     1     -33.687  24.615   4.815  0.00  0.00    -0.157 OA
BRANCH  10  13
ATOM     13  N   UNL     1     -35.988  23.434   4.976  0.00  0.00    -0.156 NA
ATOM     14  C   UNL     1     -36.465  22.868   3.689  0.00  0.00    +0.115 C 
ATOM     15  C   UNL     1     -35.534  22.381   5.918  0.00  0.00    +0.115 C 
ENDBRANCH  10  13
ENDBRANCH   9  10
ENDBRANCH   8   9
ENDBRANCH   2   8
BRANCH   3  16
ATOM     16  C   UNL     1     -30.809  28.866   4.532  0.00  0.00    +0.134 C 
BRANCH  16  18
ATOM     17 CL   UNL     1     -29.403  29.406   6.808  0.00  0.00    -0.112 Cl
ATOM     18  C   UNL     1     -30.447  29.990   5.489  0.00  0.00    +0.118 C 
ENDBRANCH  16  18
ENDBRANCH   3  16
TORSDOF 7
ENDMDL
MODEL 4
REMARK VINA RESULT:      -4.5      4.949      7.469
REMARK  Name = 55456
REMARK  7 active torsions:
REMARK  status: ('A' for Active; 'I' for Inactive)
REMARK    1  A    between atoms: N_2  and  C_8
REMARK    2  A    between atoms: N_3  and  N_7
REMARK    3  A    between atoms: N_3  and  C_16
REMARK    4  A    between atoms: C_8  and  C_9
REMARK    5  A    between atoms: C_9  and  S_10
REMARK    6  A    between atoms: S_10  and  N_13
REMARK    7  A    between atoms: C_16  and  C_18
REMARK                            x       y       z     vdW  Elec       q    Type
REMARK                         _______ _______ _______ _____ _____    ______ ____
ROOT
ATOM      1  O   UNL     1     -34.922  25.763   2.387  0.00  0.00    -0.251 OA
ATOM      2  N   UNL     1     -34.992  27.706   3.614  0.00  0.00    -0.286 N 
ATOM      3  N   UNL     1     -34.571  25.628   4.674  0.00  0.00    -0.163 N 
ATOM      4  C   UNL     1     -34.834  26.324   3.484  0.00  0.00    +0.320 C 
ATOM      5  H   UNL     1     -34.913  28.111   4.508  0.00  0.00    +0.151 HD
ENDROOT
BRANCH   3   7
ATOM      6  O   UNL     1     -33.402  26.961   6.116  0.00  0.00    -0.078 OA
ATOM      7  N   UNL     1     -34.472  26.363   5.967  0.00  0.00    +0.054 NA
ENDBRANCH   3   7
BRANCH   2   8
ATOM      8  C   UNL     1     -35.264  28.557   2.489  0.00  0.00    +0.118 C 
BRANCH   8   9
ATOM      9  C   UNL     1     -34.064  29.405   2.108  0.00  0.00    +0.190 C 
BRANCH   9  10
ATOM     10  S   UNL     1     -33.705  30.653   3.325  0.00  0.00    +0.046 S 
ATOM     11  O   UNL     1     -34.941  30.946   4.026  0.00  0.00    -0.157 OA
ATOM     12  O   UNL     1     -32.973  31.713   2.659  0.00  0.00    -0.157 OA
BRANCH  10  13
ATOM     13  N   UNL     1     -32.645  29.800   4.375  0.00  0.00    -0.156 NA
ATOM     14  C   UNL     1     -31.627  28.910   3.762  0.00  0.00    +0.115 C 
ATOM     15  C   UNL     1     -32.121  30.516   5.565  0.00  0.00    +0.115 C 
ENDBRANCH  10  13
ENDBRANCH   9  10
ENDBRANCH   8   9
ENDBRANCH   2   8
BRANCH   3  16
ATOM     16  C   UNL     1     -34.384  24.182   4.681  0.00  0.00    +0.134 C 
BRANCH  16  18
ATOM     17 CL   UNL     1     -35.234  22.250   6.411  0.00  0.00    -0.112 Cl
ATOM     18  C   UNL     1     -35.625  23.436   5.142  0.00  0.00    +0.118 C 
ENDBRANCH  16  18
ENDBRANCH   3  16
TORSDOF 7
ENDMDL
MODEL 5
REMARK VINA RESULT:      -4.5      3.313      5.235
REMARK  Name = 55456
REMARK  7 active torsions:
REMARK  status: ('A' for Active; 'I' for Inactive)
REMARK    1  A    between atoms: N_2  and  C_8
REMARK    2  A    between atoms: N_3  and  N_7
REMARK    3  A    between atoms: N_3  and  C_16
REMARK    4  A    between atoms: C_8  and  C_9
REMARK    5  A    between atoms: C_9  and  S_10
REMARK    6  A    between atoms: S_10  and  N_13
REMARK    7  A    between atoms: C_16  and  C_18
REMARK                            x       y       z     vdW  Elec       q    Type
REMARK                         _______ _______ _______ _____ _____    ______ ____
ROOT
ATOM      1  O   UNL     1     -37.378  23.064   2.562  0.00  0.00    -0.251 OA
ATOM      2  N   UNL     1     -36.235  23.546   4.499  0.00  0.00    -0.286 N 
ATOM      3  N   UNL     1     -35.943  21.457   3.417  0.00  0.00    -0.163 N 
ATOM      4  C   UNL     1     -36.574  22.710   3.431  0.00  0.00    +0.320 C 
ATOM      5  H   UNL     1     -35.590  23.223   5.169  0.00  0.00    +0.151 HD
ENDROOT
BRANCH   3   7
ATOM      6  O   UNL     1     -35.495  21.000   5.611  0.00  0.00    -0.078 OA
ATOM      7  N   UNL     1     -34.978  21.091   4.493  0.00  0.00    +0.054 NA
ENDBRANCH   3   7
BRANCH   2   8
ATOM      8  C   UNL     1     -36.795  24.860   4.652  0.00  0.00    +0.118 C 
BRANCH   8   9
ATOM      9  C   UNL     1     -35.844  25.810   5.357  0.00  0.00    +0.190 C 
BRANCH   9  10
ATOM     10  S   UNL     1     -34.335  26.055   4.445  0.00  0.00    +0.046 S 
ATOM     11  O   UNL     1     -33.491  24.899   4.681  0.00  0.00    -0.157 OA
ATOM     12  O   UNL     1     -33.853  27.388   4.752  0.00  0.00    -0.157 OA
BRANCH  10  13
ATOM     13  N   UNL     1     -34.914  26.017   2.827  0.00  0.00    -0.156 NA
ATOM     14  C   UNL     1     -35.322  27.301   2.204  0.00  0.00    +0.115 C 
ATOM     15  C   UNL     1     -34.227  25.119   1.865  0.00  0.00    +0.115 C 
ENDBRANCH  10  13
ENDBRANCH   9  10
ENDBRANCH   8   9
ENDBRANCH   2   8
BRANCH   3  16
ATOM     16  C   UNL     1     -36.204  20.488   2.360  0.00  0.00    +0.134 C 
BRANCH  16  18
ATOM     17 CL   UNL     1     -34.163  21.519   0.871  0.00  0.00    -0.112 Cl
ATOM     18  C   UNL     1     -34.946  20.097   1.602  0.00  0.00    +0.118 C 
ENDBRANCH  16  18
ENDBRANCH   3  16
TORSDOF 7
ENDMDL
MODEL 6
REMARK VINA RESULT:      -4.4      3.522      6.169
REMARK  Name = 55456
REMARK  7 active torsions:
REMARK  status: ('A' for Active; 'I' for Inactive)
REMARK    1  A    between atoms: N_2  and  C_8
REMARK    2  A    between atoms: N_3  and  N_7
REMARK    3  A    between atoms: N_3  and  C_16
REMARK    4  A    between atoms: C_8  and  C_9
REMARK    5  A    between atoms: C_9  and  S_10
REMARK    6  A    between atoms: S_10  and  N_13
REMARK    7  A    between atoms: C_16  and  C_18
REMARK                            x       y       z     vdW  Elec       q    Type
REMARK                         _______ _______ _______ _____ _____    ______ ____
ROOT
ATOM      1  O   UNL     1     -35.415  24.408   0.947  0.00  0.00    -0.251 OA
ATOM      2  N   UNL     1     -36.212  25.380   2.872  0.00  0.00    -0.286 N 
ATOM      3  N   UNL     1     -36.445  23.048   2.516  0.00  0.00    -0.163 N 
ATOM      4  C   UNL     1     -35.985  24.284   2.036  0.00  0.00    +0.320 C 
ATOM      5  H   UNL     1     -36.670  25.235   3.732  0.00  0.00    +0.151 HD
ENDROOT
BRANCH   3   7
ATOM      6  O   UNL     1     -36.388  23.252   4.791  0.00  0.00    -0.078 OA
ATOM      7  N   UNL     1     -37.123  22.963   3.841  0.00  0.00    +0.054 NA
ENDBRANCH   3   7
BRANCH   2   8
ATOM      8  C   UNL     1     -35.798  26.711   2.523  0.00  0.00    +0.118 C 
BRANCH   8   9
ATOM      9  C   UNL     1     -34.445  27.064   3.112  0.00  0.00    +0.190 C 
BRANCH   9  10
ATOM     10  S   UNL     1     -34.220  26.383   4.742  0.00  0.00    +0.046 S 
ATOM     11  O   UNL     1     -33.562  25.099   4.589  0.00  0.00    -0.157 OA
ATOM     12  O   UNL     1     -35.492  26.475   5.432  0.00  0.00    -0.157 OA
BRANCH  10  13
ATOM     13  N   UNL     1     -33.117  27.510   5.424  0.00  0.00    -0.156 NA
ATOM     14  C   UNL     1     -32.569  27.218   6.773  0.00  0.00    +0.115 C 
ATOM     15  C   UNL     1     -32.103  28.121   4.528  0.00  0.00    +0.115 C 
ENDBRANCH  10  13
ENDBRANCH   9  10
ENDBRANCH   8   9
ENDBRANCH   2   8
BRANCH   3  16
ATOM     16  C   UNL     1     -36.273  21.823   1.744  0.00  0.00    +0.134 C 
BRANCH  16  18
ATOM     17 CL   UNL     1     -34.370  19.867   1.719  0.00  0.00    -0.112 Cl
ATOM     18  C   UNL     1     -35.699  20.686   2.574  0.00  0.00    +0.118 C 
ENDBRANCH  16  18
ENDBRANCH   3  16
TORSDOF 7
ENDMDL
MODEL 7
REMARK VINA RESULT:      -4.4      3.774      6.557
REMARK  Name = 55456
REMARK  7 active torsions:
REMARK  status: ('A' for Active; 'I' for Inactive)
REMARK    1  A    between atoms: N_2  and  C_8
REMARK    2  A    between atoms: N_3  and  N_7
REMARK    3  A    between atoms: N_3  and  C_16
REMARK    4  A    between atoms: C_8  and  C_9
REMARK    5  A    between atoms: C_9  and  S_10
REMARK    6  A    between atoms: S_10  and  N_13
REMARK    7  A    between atoms: C_16  and  C_18
REMARK                            x       y       z     vdW  Elec       q    Type
REMARK                         _______ _______ _______ _____ _____    ______ ____
ROOT
ATOM      1  O   UNL     1     -36.090  24.582   3.313  0.00  0.00    -0.251 OA
ATOM      2  N   UNL     1     -35.294  24.441   5.465  0.00  0.00    -0.286 N 
ATOM      3  N   UNL     1     -35.748  22.476   4.219  0.00  0.00    -0.163 N 
ATOM      4  C   UNL     1     -35.735  23.879   4.265  0.00  0.00    +0.320 C 
ATOM      5  H   UNL     1     -35.022  23.843   6.198  0.00  0.00    +0.151 HD
ENDROOT
BRANCH   3   7
ATOM      6  O   UNL     1     -35.970  21.897   6.418  0.00  0.00    -0.078 OA
ATOM      7  N   UNL     1     -35.304  21.683   5.401  0.00  0.00    +0.054 NA
ENDBRANCH   3   7
BRANCH   2   8
ATOM      8  C   UNL     1     -35.223  25.862   5.667  0.00  0.00    +0.118 C 
BRANCH   8   9
ATOM      9  C   UNL     1     -33.792  26.355   5.775  0.00  0.00    +0.190 C 
BRANCH   9  10
ATOM     10  S   UNL     1     -33.311  27.346   4.377  0.00  0.00    +0.046 S 
ATOM     11  O   UNL     1     -34.526  27.763   3.701  0.00  0.00    -0.157 OA
ATOM     12  O   UNL     1     -32.288  26.615   3.655  0.00  0.00    -0.157 OA
BRANCH  10  13
ATOM     13  N   UNL     1     -32.601  28.702   5.157  0.00  0.00    -0.156 NA
ATOM     14  C   UNL     1     -31.757  28.452   6.354  0.00  0.00    +0.115 C 
ATOM     15  C   UNL     1     -32.058  29.789   4.305  0.00  0.00    +0.115 C 
ENDBRANCH  10  13
ENDBRANCH   9  10
ENDBRANCH   8   9
ENDBRANCH   2   8
BRANCH   3  16
ATOM     16  C   UNL     1     -36.185  21.760   3.027  0.00  0.00    +0.134 C 
BRANCH  16  18
ATOM     17 CL   UNL     1     -34.542  19.877   1.930  0.00  0.00    -0.112 Cl
ATOM     18  C   UNL     1     -35.066  21.576   2.014  0.00  0.00    +0.118 C 
ENDBRANCH  16  18
ENDBRANCH   3  16
TORSDOF 7
ENDMDL
MODEL 8
REMARK VINA RESULT:      -4.3      3.267      4.870
REMARK  Name = 55456
REMARK  7 active torsions:
REMARK  status: ('A' for Active; 'I' for Inactive)
REMARK    1  A    between atoms: N_2  and  C_8
REMARK    2  A    between atoms: N_3  and  N_7
REMARK    3  A    between atoms: N_3  and  C_16
REMARK    4  A    between atoms: C_8  and  C_9
REMARK    5  A    between atoms: C_9  and  S_10
REMARK    6  A    between atoms: S_10  and  N_13
REMARK    7  A    between atoms: C_16  and  C_18
REMARK                            x       y       z     vdW  Elec       q    Type
REMARK                         _______ _______ _______ _____ _____    ______ ____
ROOT
ATOM      1  O   UNL     1     -32.987  26.579   6.179  0.00  0.00    -0.251 OA
ATOM      2  N   UNL     1     -34.840  26.688   4.821  0.00  0.00    -0.286 N 
ATOM      3  N   UNL     1     -32.884  27.918   4.289  0.00  0.00    -0.163 N 
ATOM      4  C   UNL     1     -33.530  27.032   5.166  0.00  0.00    +0.320 C 
ATOM      5  H   UNL     1     -35.233  27.073   4.004  0.00  0.00    +0.151 HD
ENDROOT
BRANCH   3   7
ATOM      6  O   UNL     1     -34.491  29.234   3.336  0.00  0.00    -0.078 OA
ATOM      7  N   UNL     1     -33.593  28.426   3.080  0.00  0.00    +0.054 NA
ENDBRANCH   3   7
BRANCH   2   8
ATOM      8  C   UNL     1     -35.632  25.790   5.616  0.00  0.00    +0.118 C 
BRANCH   8   9
ATOM      9  C   UNL     1     -36.664  25.049   4.787  0.00  0.00    +0.190 C 
BRANCH   9  10
ATOM     10  S   UNL     1     -36.082  23.452   4.256  0.00  0.00    +0.046 S 
ATOM     11  O   UNL     1     -36.040  22.594   5.425  0.00  0.00    -0.157 OA
ATOM     12  O   UNL     1     -34.888  23.665   3.462  0.00  0.00    -0.157 OA
BRANCH  10  13
ATOM     13  N   UNL     1     -37.368  22.953   3.230  0.00  0.00    -0.156 NA
ATOM     14  C   UNL     1     -38.217  24.005   2.617  0.00  0.00    +0.115 C 
ATOM     15  C   UNL     1     -37.116  21.823   2.301  0.00  0.00    +0.115 C 
ENDBRANCH  10  13
ENDBRANCH   9  10
ENDBRANCH   8   9
ENDBRANCH   2   8
BRANCH   3  16
ATOM     16  C   UNL     1     -31.515  28.359   4.530  0.00  0.00    +0.134 C 
BRANCH  16  18
ATOM     17 CL   UNL     1     -31.533  29.623   6.948  0.00  0.00    -0.112 Cl
ATOM     18  C   UNL     1     -31.450  29.734   5.174  0.00  0.00    +0.118 C 
ENDBRANCH  16  18
ENDBRANCH   3  16
TORSDOF 7
ENDMDL
MODEL 9
REMARK VINA RESULT:      -4.3      2.792      4.008
REMARK  Name = 55456
REMARK  7 active torsions:
REMARK  status: ('A' for Active; 'I' for Inactive)
REMARK    1  A    between atoms: N_2  and  C_8
REMARK    2  A    between atoms: N_3  and  N_7
REMARK    3  A    between atoms: N_3  and  C_16
REMARK    4  A    between atoms: C_8  and  C_9
REMARK    5  A    between atoms: C_9  and  S_10
REMARK    6  A    between atoms: S_10  and  N_13
REMARK    7  A    between atoms: C_16  and  C_18
REMARK                            x       y       z     vdW  Elec       q    Type
REMARK                         _______ _______ _______ _____ _____    ______ ____
ROOT
ATOM      1  O   UNL     1     -34.951  22.971   2.088  0.00  0.00    -0.251 OA
ATOM      2  N   UNL     1     -36.712  21.849   3.052  0.00  0.00    -0.286 N 
ATOM      3  N   UNL     1     -35.358  23.303   4.346  0.00  0.00    -0.163 N 
ATOM      4  C   UNL     1     -35.625  22.727   3.095  0.00  0.00    +0.320 C 
ATOM      5  H   UNL     1     -37.221  21.684   3.878  0.00  0.00    +0.151 HD
ENDROOT
BRANCH   3   7
ATOM      6  O   UNL     1     -35.827  21.979   6.148  0.00  0.00    -0.078 OA
ATOM      7  N   UNL     1     -36.212  22.971   5.522  0.00  0.00    +0.054 NA
ENDBRANCH   3   7
BRANCH   2   8
ATOM      8  C   UNL     1     -37.112  21.181   1.845  0.00  0.00    +0.118 C 
BRANCH   8   9
ATOM      9  C   UNL     1     -38.101  22.001   1.037  0.00  0.00    +0.190 C 
BRANCH   9  10
ATOM     10  S   UNL     1     -39.575  22.383   1.960  0.00  0.00    +0.046 S 
ATOM     11  O   UNL     1     -39.207  23.331   2.995  0.00  0.00    -0.157 OA
ATOM     12  O   UNL     1     -40.206  21.125   2.312  0.00  0.00    -0.157 OA
BRANCH  10  13
ATOM     13  N   UNL     1     -40.519  23.180   0.766  0.00  0.00    -0.156 NA
ATOM     14  C   UNL     1     -41.137  24.482   1.123  0.00  0.00    +0.115 C 
ATOM     15  C   UNL     1     -40.031  23.157  -0.635  0.00  0.00    +0.115 C 
ENDBRANCH  10  13
ENDBRANCH   9  10
ENDBRANCH   8   9
ENDBRANCH   2   8
BRANCH   3  16
ATOM     16  C   UNL     1     -34.254  24.237   4.531  0.00  0.00    +0.134 C 
BRANCH  16  18
ATOM     17 CL   UNL     1     -35.990  26.234   5.197  0.00  0.00    -0.112 Cl
ATOM     18  C   UNL     1     -34.544  25.278   5.600  0.00  0.00    +0.118 C 
ENDBRANCH  16  18
ENDBRANCH   3  16
TORSDOF 7
ENDMDL
