MODEL 1
REMARK VINA RESULT:      -6.4      0.000      0.000
REMARK  Name = 558793
REMARK  10 active torsions:
REMARK  status: ('A' for Active; 'I' for Inactive)
REMARK    1  A    between atoms: S_1  and  C_4
REMARK    2  A    between atoms: S_1  and  N_17
REMARK    3  A    between atoms: C_7  and  N_14
REMARK    4  A    between atoms: N_17  and  C_19
REMARK    5  A    between atoms: C_19  and  C_21
REMARK    6  A    between atoms: C_19  and  C_24
REMARK    7  A    between atoms: C_21  and  O_22
REMARK    8  A    between atoms: C_24  and  C_25
REMARK    9  A    between atoms: C_25  and  C_27
REMARK   10  A    between atoms: C_27  and  O_28
REMARK                            x       y       z     vdW  Elec       q    Type
REMARK                         _______ _______ _______ _____ _____    ______ ____
ROOT
ATOM      1  S   UNL     1     -35.651  20.751   1.903  0.00  0.00    +0.061 S 
ATOM      2  O   UNL     1     -36.564  19.959   1.102  0.00  0.00    -0.153 OA
ATOM      3  O   UNL     1     -35.219  20.275   3.203  0.00  0.00    -0.153 OA
ENDROOT
BRANCH   1   4
ATOM      4  C   UNL     1     -34.192  21.032   0.946  0.00  0.00    +0.122 C 
ATOM      5  C   UNL     1     -33.203  20.056   0.782  0.00  0.00    +0.020 C 
ATOM      6  C   UNL     1     -32.064  20.361  -0.002  0.00  0.00    +0.015 C 
ATOM      7  C   UNL     1     -31.067  19.386  -0.172  0.00  0.00    +0.048 C 
ATOM      8  C   UNL     1     -34.076  22.286   0.359  0.00  0.00    +0.020 C 
ATOM      9  C   UNL     1     -33.311  18.785   1.370  0.00  0.00    +0.001 C 
ATOM     10  C   UNL     1     -31.955  21.631  -0.591  0.00  0.00    +0.001 C 
ATOM     11  C   UNL     1     -32.956  22.587  -0.411  0.00  0.00    +0.001 C 
ATOM     12  C   UNL     1     -31.191  18.129   0.421  0.00  0.00    +0.015 C 
ATOM     13  C   UNL     1     -32.311  17.829   1.190  0.00  0.00    +0.001 C 
BRANCH   7  14
ATOM     14  N   UNL     1     -29.907  19.640  -0.945  0.00  0.00    -0.304 N 
ATOM     15  C   UNL     1     -28.701  20.125  -0.310  0.00  0.00    +0.112 C 
ATOM     16  C   UNL     1     -29.917  19.401  -2.371  0.00  0.00    +0.112 C 
ENDBRANCH   7  14
ENDBRANCH   1   4
BRANCH   1  17
ATOM     17  N   UNL     1     -36.269  22.326   2.071  0.00  0.00    -0.170 NA
ATOM     18  H   UNL     1     -37.199  22.323   1.654  0.00  0.00    +0.149 HD
BRANCH  17  19
ATOM     19  C   UNL     1     -36.404  22.926   3.417  0.00  0.00    +0.174 C 
BRANCH  19  21
ATOM     20  O   UNL     1     -38.376  23.997   2.478  0.00  0.00    -0.249 OA
ATOM     21  C   UNL     1     -37.546  23.914   3.375  0.00  0.00    +0.330 C 
BRANCH  21  22
ATOM     22  O   UNL     1     -37.572  24.714   4.473  0.00  0.00    -0.479 OA
ATOM     23  H   UNL     1     -38.389  24.922   4.882  0.00  0.00    +0.295 HD
ENDBRANCH  21  22
ENDBRANCH  19  21
BRANCH  19  24
ATOM     24  C   UNL     1     -35.068  23.516   3.884  0.00  0.00    +0.040 C 
BRANCH  24  25
ATOM     25  C   UNL     1     -34.751  23.388   5.376  0.00  0.00    +0.111 C 
BRANCH  25  27
ATOM     26  O   UNL     1     -36.303  22.137   6.739  0.00  0.00    -0.250 OA
ATOM     27  C   UNL     1     -35.316  22.145   6.016  0.00  0.00    +0.314 C 
BRANCH  27  28
ATOM     28  O   UNL     1     -34.601  21.031   5.720  0.00  0.00    -0.480 OA
ATOM     29  H   UNL     1     -33.831  20.824   6.212  0.00  0.00    +0.295 HD
ENDBRANCH  27  28
ENDBRANCH  25  27
ENDBRANCH  24  25
ENDBRANCH  19  24
ENDBRANCH  17  19
ENDBRANCH   1  17
TORSDOF 10
ENDMDL
MODEL 2
REMARK VINA RESULT:      -6.4      1.140      1.847
REMARK  Name = 558793
REMARK  10 active torsions:
REMARK  status: ('A' for Active; 'I' for Inactive)
REMARK    1  A    between atoms: S_1  and  C_4
REMARK    2  A    between atoms: S_1  and  N_17
REMARK    3  A    between atoms: C_7  and  N_14
REMARK    4  A    between atoms: N_17  and  C_19
REMARK    5  A    between atoms: C_19  and  C_21
REMARK    6  A    between atoms: C_19  and  C_24
REMARK    7  A    between atoms: C_21  and  O_22
REMARK    8  A    between atoms: C_24  and  C_25
REMARK    9  A    between atoms: C_25  and  C_27
REMARK   10  A    between atoms: C_27  and  O_28
REMARK                            x       y       z     vdW  Elec       q    Type
REMARK                         _______ _______ _______ _____ _____    ______ ____
ROOT
ATOM      1  S   UNL     1     -35.806  20.968   2.140  0.00  0.00    +0.061 S 
ATOM      2  O   UNL     1     -36.636  19.954   1.519  0.00  0.00    -0.153 OA
ATOM      3  O   UNL     1     -35.316  20.782   3.491  0.00  0.00    -0.153 OA
ENDROOT
BRANCH   1   4
ATOM      4  C   UNL     1     -34.392  21.220   1.109  0.00  0.00    +0.122 C 
ATOM      5  C   UNL     1     -33.422  20.232   0.911  0.00  0.00    +0.020 C 
ATOM      6  C   UNL     1     -32.319  20.514   0.069  0.00  0.00    +0.015 C 
ATOM      7  C   UNL     1     -31.341  19.527  -0.135  0.00  0.00    +0.048 C 
ATOM      8  C   UNL     1     -34.293  22.465   0.499  0.00  0.00    +0.020 C 
ATOM      9  C   UNL     1     -33.514  18.971   1.522  0.00  0.00    +0.001 C 
ATOM     10  C   UNL     1     -32.228  21.775  -0.543  0.00  0.00    +0.001 C 
ATOM     11  C   UNL     1     -33.209  22.743  -0.329  0.00  0.00    +0.001 C 
ATOM     12  C   UNL     1     -31.449  18.280   0.481  0.00  0.00    +0.015 C 
ATOM     13  C   UNL     1     -32.533  18.002   1.308  0.00  0.00    +0.001 C 
BRANCH   7  14
ATOM     14  N   UNL     1     -30.218  19.757  -0.967  0.00  0.00    -0.304 N 
ATOM     15  C   UNL     1     -30.313  19.541  -2.394  0.00  0.00    +0.112 C 
ATOM     16  C   UNL     1     -28.974  20.224  -0.396  0.00  0.00    +0.112 C 
ENDBRANCH   7  14
ENDBRANCH   1   4
BRANCH   1  17
ATOM     17  N   UNL     1     -36.586  22.475   2.039  0.00  0.00    -0.170 NA
ATOM     18  H   UNL     1     -37.483  22.313   1.581  0.00  0.00    +0.149 HD
BRANCH  17  19
ATOM     19  C   UNL     1     -36.869  23.243   3.272  0.00  0.00    +0.174 C 
BRANCH  19  21
ATOM     20  O   UNL     1     -38.985  23.734   2.177  0.00  0.00    -0.249 OA
ATOM     21  C   UNL     1     -38.200  23.936   3.096  0.00  0.00    +0.330 C 
BRANCH  21  22
ATOM     22  O   UNL     1     -38.456  24.816   4.098  0.00  0.00    -0.479 OA
ATOM     23  H   UNL     1     -38.731  24.504   4.938  0.00  0.00    +0.295 HD
ENDBRANCH  21  22
ENDBRANCH  19  21
BRANCH  19  24
ATOM     24  C   UNL     1     -35.703  24.181   3.604  0.00  0.00    +0.040 C 
BRANCH  24  25
ATOM     25  C   UNL     1     -35.387  24.376   5.090  0.00  0.00    +0.111 C 
BRANCH  25  27
ATOM     26  O   UNL     1     -34.300  26.341   5.977  0.00  0.00    -0.250 OA
ATOM     27  C   UNL     1     -35.306  25.821   5.513  0.00  0.00    +0.314 C 
BRANCH  27  28
ATOM     28  O   UNL     1     -36.476  26.485   5.342  0.00  0.00    -0.480 OA
ATOM     29  H   UNL     1     -37.215  26.045   4.970  0.00  0.00    +0.295 HD
ENDBRANCH  27  28
ENDBRANCH  25  27
ENDBRANCH  24  25
ENDBRANCH  19  24
ENDBRANCH  17  19
ENDBRANCH   1  17
TORSDOF 10
ENDMDL
MODEL 3
REMARK VINA RESULT:      -6.2      3.950      6.261
REMARK  Name = 558793
REMARK  10 active torsions:
REMARK  status: ('A' for Active; 'I' for Inactive)
REMARK    1  A    between atoms: S_1  and  C_4
REMARK    2  A    between atoms: S_1  and  N_17
REMARK    3  A    between atoms: C_7  and  N_14
REMARK    4  A    between atoms: N_17  and  C_19
REMARK    5  A    between atoms: C_19  and  C_21
REMARK    6  A    between atoms: C_19  and  C_24
REMARK    7  A    between atoms: C_21  and  O_22
REMARK    8  A    between atoms: C_24  and  C_25
REMARK    9  A    between atoms: C_25  and  C_27
REMARK   10  A    between atoms: C_27  and  O_28
REMARK                            x       y       z     vdW  Elec       q    Type
REMARK                         _______ _______ _______ _____ _____    ______ ____
ROOT
ATOM      1  S   UNL     1     -33.937  26.457   4.645  0.00  0.00    +0.061 S 
ATOM      2  O   UNL     1     -33.844  26.698   6.072  0.00  0.00    -0.153 OA
ATOM      3  O   UNL     1     -32.762  26.582   3.806  0.00  0.00    -0.153 OA
ENDROOT
BRANCH   1   4
ATOM      4  C   UNL     1     -34.568  24.822   4.408  0.00  0.00    +0.122 C 
ATOM      5  C   UNL     1     -34.553  24.186   3.163  0.00  0.00    +0.020 C 
ATOM      6  C   UNL     1     -35.078  22.875   3.058  0.00  0.00    +0.015 C 
ATOM      7  C   UNL     1     -35.066  22.228   1.811  0.00  0.00    +0.048 C 
ATOM      8  C   UNL     1     -35.085  24.196   5.535  0.00  0.00    +0.020 C 
ATOM      9  C   UNL     1     -34.032  24.810   2.017  0.00  0.00    +0.001 C 
ATOM     10  C   UNL     1     -35.598  22.250   4.202  0.00  0.00    +0.001 C 
ATOM     11  C   UNL     1     -35.601  22.908   5.433  0.00  0.00    +0.001 C 
ATOM     12  C   UNL     1     -34.544  22.864   0.684  0.00  0.00    +0.015 C 
ATOM     13  C   UNL     1     -34.028  24.152   0.787  0.00  0.00    +0.001 C 
BRANCH   7  14
ATOM     14  N   UNL     1     -35.578  20.917   1.651  0.00  0.00    -0.304 N 
ATOM     15  C   UNL     1     -36.994  20.711   1.437  0.00  0.00    +0.112 C 
ATOM     16  C   UNL     1     -34.687  19.779   1.686  0.00  0.00    +0.112 C 
ENDBRANCH   7  14
ENDBRANCH   1   4
BRANCH   1  17
ATOM     17  N   UNL     1     -35.183  27.411   3.991  0.00  0.00    -0.170 NA
ATOM     18  H   UNL     1     -35.347  28.173   4.649  0.00  0.00    +0.149 HD
BRANCH  17  19
ATOM     19  C   UNL     1     -35.019  28.027   2.656  0.00  0.00    +0.174 C 
BRANCH  19  21
ATOM     20  O   UNL     1     -33.384  29.823   2.521  0.00  0.00    -0.249 OA
ATOM     21  C   UNL     1     -34.497  29.431   2.850  0.00  0.00    +0.330 C 
BRANCH  21  22
ATOM     22  O   UNL     1     -35.419  30.246   3.425  0.00  0.00    -0.479 OA
ATOM     23  H   UNL     1     -35.159  30.854   4.090  0.00  0.00    +0.295 HD
ENDBRANCH  21  22
ENDBRANCH  19  21
BRANCH  19  24
ATOM     24  C   UNL     1     -36.324  27.939   1.855  0.00  0.00    +0.040 C 
BRANCH  24  25
ATOM     25  C   UNL     1     -36.948  26.547   1.722  0.00  0.00    +0.111 C 
BRANCH  25  27
ATOM     26  O   UNL     1     -39.320  26.490   2.168  0.00  0.00    -0.250 OA
ATOM     27  C   UNL     1     -38.175  26.344   2.574  0.00  0.00    +0.314 C 
BRANCH  27  28
ATOM     28  O   UNL     1     -37.876  26.000   3.851  0.00  0.00    -0.480 OA
ATOM     29  H   UNL     1     -38.279  25.249   4.241  0.00  0.00    +0.295 HD
ENDBRANCH  27  28
ENDBRANCH  25  27
ENDBRANCH  24  25
ENDBRANCH  19  24
ENDBRANCH  17  19
ENDBRANCH   1  17
TORSDOF 10
ENDMDL
MODEL 4
REMARK VINA RESULT:      -6.2      4.505      6.573
REMARK  Name = 558793
REMARK  10 active torsions:
REMARK  status: ('A' for Active; 'I' for Inactive)
REMARK    1  A    between atoms: S_1  and  C_4
REMARK    2  A    between atoms: S_1  and  N_17
REMARK    3  A    between atoms: C_7  and  N_14
REMARK    4  A    between atoms: N_17  and  C_19
REMARK    5  A    between atoms: C_19  and  C_21
REMARK    6  A    between atoms: C_19  and  C_24
REMARK    7  A    between atoms: C_21  and  O_22
REMARK    8  A    between atoms: C_24  and  C_25
REMARK    9  A    between atoms: C_25  and  C_27
REMARK   10  A    between atoms: C_27  and  O_28
REMARK                            x       y       z     vdW  Elec       q    Type
REMARK                         _______ _______ _______ _____ _____    ______ ____
ROOT
ATOM      1  S   UNL     1     -34.394  26.217   4.902  0.00  0.00    +0.061 S 
ATOM      2  O   UNL     1     -35.379  27.026   4.209  0.00  0.00    -0.153 OA
ATOM      3  O   UNL     1     -34.204  26.365   6.331  0.00  0.00    -0.153 OA
ENDROOT
BRANCH   1   4
ATOM      4  C   UNL     1     -34.782  24.517   4.606  0.00  0.00    +0.122 C 
ATOM      5  C   UNL     1     -34.808  23.966   3.321  0.00  0.00    +0.020 C 
ATOM      6  C   UNL     1     -35.127  22.595   3.170  0.00  0.00    +0.015 C 
ATOM      7  C   UNL     1     -35.155  22.035   1.882  0.00  0.00    +0.048 C 
ATOM      8  C   UNL     1     -35.063  23.748   5.729  0.00  0.00    +0.020 C 
ATOM      9  C   UNL     1     -34.525  24.735   2.179  0.00  0.00    +0.001 C 
ATOM     10  C   UNL     1     -35.409  21.827   4.310  0.00  0.00    +0.001 C 
ATOM     11  C   UNL     1     -35.377  22.401   5.582  0.00  0.00    +0.001 C 
ATOM     12  C   UNL     1     -34.871  22.813   0.759  0.00  0.00    +0.015 C 
ATOM     13  C   UNL     1     -34.557  24.161   0.908  0.00  0.00    +0.001 C 
BRANCH   7  14
ATOM     14  N   UNL     1     -35.469  20.669   1.675  0.00  0.00    -0.304 N 
ATOM     15  C   UNL     1     -36.846  20.254   1.522  0.00  0.00    +0.112 C 
ATOM     16  C   UNL     1     -34.413  19.683   1.602  0.00  0.00    +0.112 C 
ENDBRANCH   7  14
ENDBRANCH   1   4
BRANCH   1  17
ATOM     17  N   UNL     1     -32.890  26.373   4.127  0.00  0.00    -0.170 NA
ATOM     18  H   UNL     1     -32.773  25.546   3.541  0.00  0.00    +0.149 HD
BRANCH  17  19
ATOM     19  C   UNL     1     -32.621  27.547   3.267  0.00  0.00    +0.174 C 
BRANCH  19  21
ATOM     20  O   UNL     1     -30.954  27.969   1.547  0.00  0.00    -0.249 OA
ATOM     21  C   UNL     1     -31.459  27.208   2.363  0.00  0.00    +0.330 C 
BRANCH  21  22
ATOM     22  O   UNL     1     -31.005  25.944   2.565  0.00  0.00    -0.479 OA
ATOM     23  H   UNL     1     -31.613  25.240   2.684  0.00  0.00    +0.295 HD
ENDBRANCH  21  22
ENDBRANCH  19  21
BRANCH  19  24
ATOM     24  C   UNL     1     -32.417  28.806   4.118  0.00  0.00    +0.040 C 
BRANCH  24  25
ATOM     25  C   UNL     1     -31.175  28.829   5.013  0.00  0.00    +0.111 C 
BRANCH  25  27
ATOM     26  O   UNL     1     -31.623  29.552   7.273  0.00  0.00    -0.250 OA
ATOM     27  C   UNL     1     -31.474  28.634   6.478  0.00  0.00    +0.314 C 
BRANCH  27  28
ATOM     28  O   UNL     1     -31.543  27.326   6.831  0.00  0.00    -0.480 OA
ATOM     29  H   UNL     1     -30.839  26.931   7.306  0.00  0.00    +0.295 HD
ENDBRANCH  27  28
ENDBRANCH  25  27
ENDBRANCH  24  25
ENDBRANCH  19  24
ENDBRANCH  17  19
ENDBRANCH   1  17
TORSDOF 10
ENDMDL
MODEL 5
REMARK VINA RESULT:      -6.1      2.691      4.551
REMARK  Name = 558793
REMARK  10 active torsions:
REMARK  status: ('A' for Active; 'I' for Inactive)
REMARK    1  A    between atoms: S_1  and  C_4
REMARK    2  A    between atoms: S_1  and  N_17
REMARK    3  A    between atoms: C_7  and  N_14
REMARK    4  A    between atoms: N_17  and  C_19
REMARK    5  A    between atoms: C_19  and  C_21
REMARK    6  A    between atoms: C_19  and  C_24
REMARK    7  A    between atoms: C_21  and  O_22
REMARK    8  A    between atoms: C_24  and  C_25
REMARK    9  A    between atoms: C_25  and  C_27
REMARK   10  A    between atoms: C_27  and  O_28
REMARK                            x       y       z     vdW  Elec       q    Type
REMARK                         _______ _______ _______ _____ _____    ______ ____
ROOT
ATOM      1  S   UNL     1     -36.134  24.784   4.774  0.00  0.00    +0.061 S 
ATOM      2  O   UNL     1     -35.915  23.657   5.659  0.00  0.00    -0.153 OA
ATOM      3  O   UNL     1     -35.705  26.112   5.164  0.00  0.00    -0.153 OA
ENDROOT
BRANCH   1   4
ATOM      4  C   UNL     1     -35.353  24.422   3.229  0.00  0.00    +0.122 C 
ATOM      5  C   UNL     1     -35.216  23.117   2.746  0.00  0.00    +0.020 C 
ATOM      6  C   UNL     1     -34.577  22.913   1.499  0.00  0.00    +0.015 C 
ATOM      7  C   UNL     1     -34.436  21.605   1.006  0.00  0.00    +0.048 C 
ATOM      8  C   UNL     1     -34.878  25.514   2.513  0.00  0.00    +0.020 C 
ATOM      9  C   UNL     1     -35.693  22.007   3.462  0.00  0.00    +0.001 C 
ATOM     10  C   UNL     1     -34.100  24.022   0.782  0.00  0.00    +0.001 C 
ATOM     11  C   UNL     1     -34.250  25.314   1.287  0.00  0.00    +0.001 C 
ATOM     12  C   UNL     1     -34.916  20.514   1.732  0.00  0.00    +0.015 C 
ATOM     13  C   UNL     1     -35.544  20.715   2.957  0.00  0.00    +0.001 C 
BRANCH   7  14
ATOM     14  N   UNL     1     -33.805  21.345  -0.235  0.00  0.00    -0.304 N 
ATOM     15  C   UNL     1     -32.385  21.072  -0.287  0.00  0.00    +0.112 C 
ATOM     16  C   UNL     1     -34.579  21.337  -1.457  0.00  0.00    +0.112 C 
ENDBRANCH   7  14
ENDBRANCH   1   4
BRANCH   1  17
ATOM     17  N   UNL     1     -37.774  24.844   4.331  0.00  0.00    -0.170 NA
ATOM     18  H   UNL     1     -38.164  25.685   4.756  0.00  0.00    +0.149 HD
BRANCH  17  19
ATOM     19  C   UNL     1     -38.152  24.873   2.901  0.00  0.00    +0.174 C 
BRANCH  19  21
ATOM     20  O   UNL     1     -38.296  26.986   1.705  0.00  0.00    -0.249 OA
ATOM     21  C   UNL     1     -38.704  26.244   2.591  0.00  0.00    +0.330 C 
BRANCH  21  22
ATOM     22  O   UNL     1     -39.741  26.576   3.403  0.00  0.00    -0.479 OA
ATOM     23  H   UNL     1     -40.429  27.126   3.083  0.00  0.00    +0.295 HD
ENDBRANCH  21  22
ENDBRANCH  19  21
BRANCH  19  24
ATOM     24  C   UNL     1     -39.103  23.715   2.569  0.00  0.00    +0.040 C 
BRANCH  24  25
ATOM     25  C   UNL     1     -38.659  22.769   1.450  0.00  0.00    +0.111 C 
BRANCH  25  27
ATOM     26  O   UNL     1     -40.365  21.164   2.036  0.00  0.00    -0.250 OA
ATOM     27  C   UNL     1     -39.273  21.395   1.533  0.00  0.00    +0.314 C 
BRANCH  27  28
ATOM     28  O   UNL     1     -38.478  20.432   1.006  0.00  0.00    -0.480 OA
ATOM     29  H   UNL     1     -37.772  20.666   0.435  0.00  0.00    +0.295 HD
ENDBRANCH  27  28
ENDBRANCH  25  27
ENDBRANCH  24  25
ENDBRANCH  19  24
ENDBRANCH  17  19
ENDBRANCH   1  17
TORSDOF 10
ENDMDL
MODEL 6
REMARK VINA RESULT:      -6.1      4.845      7.392
REMARK  Name = 558793
REMARK  10 active torsions:
REMARK  status: ('A' for Active; 'I' for Inactive)
REMARK    1  A    between atoms: S_1  and  C_4
REMARK    2  A    between atoms: S_1  and  N_17
REMARK    3  A    between atoms: C_7  and  N_14
REMARK    4  A    between atoms: N_17  and  C_19
REMARK    5  A    between atoms: C_19  and  C_21
REMARK    6  A    between atoms: C_19  and  C_24
REMARK    7  A    between atoms: C_21  and  O_22
REMARK    8  A    between atoms: C_24  and  C_25
REMARK    9  A    between atoms: C_25  and  C_27
REMARK   10  A    between atoms: C_27  and  O_28
REMARK                            x       y       z     vdW  Elec       q    Type
REMARK                         _______ _______ _______ _____ _____    ______ ____
ROOT
ATOM      1  S   UNL     1     -35.688  24.435   4.354  0.00  0.00    +0.061 S 
ATOM      2  O   UNL     1     -34.815  23.370   4.809  0.00  0.00    -0.153 OA
ATOM      3  O   UNL     1     -36.691  24.986   5.244  0.00  0.00    -0.153 OA
ENDROOT
BRANCH   1   4
ATOM      4  C   UNL     1     -34.672  25.782   3.825  0.00  0.00    +0.122 C 
ATOM      5  C   UNL     1     -33.853  26.496   4.706  0.00  0.00    +0.020 C 
ATOM      6  C   UNL     1     -33.070  27.562   4.202  0.00  0.00    +0.015 C 
ATOM      7  C   UNL     1     -32.245  28.283   5.081  0.00  0.00    +0.048 C 
ATOM      8  C   UNL     1     -34.729  26.099   2.473  0.00  0.00    +0.020 C 
ATOM      9  C   UNL     1     -33.787  26.183   6.074  0.00  0.00    +0.001 C 
ATOM     10  C   UNL     1     -33.134  27.874   2.835  0.00  0.00    +0.001 C 
ATOM     11  C   UNL     1     -33.959  27.147   1.976  0.00  0.00    +0.001 C 
ATOM     12  C   UNL     1     -32.192  27.958   6.437  0.00  0.00    +0.015 C 
ATOM     13  C   UNL     1     -32.962  26.910   6.932  0.00  0.00    +0.001 C 
BRANCH   7  14
ATOM     14  N   UNL     1     -31.441  29.358   4.629  0.00  0.00    -0.304 N 
ATOM     15  C   UNL     1     -31.976  30.701   4.593  0.00  0.00    +0.112 C 
ATOM     16  C   UNL     1     -30.076  29.121   4.214  0.00  0.00    +0.112 C 
ENDBRANCH   7  14
ENDBRANCH   1   4
BRANCH   1  17
ATOM     17  N   UNL     1     -36.437  23.970   2.901  0.00  0.00    -0.170 NA
ATOM     18  H   UNL     1     -35.708  23.576   2.306  0.00  0.00    +0.149 HD
BRANCH  17  19
ATOM     19  C   UNL     1     -37.546  22.991   2.923  0.00  0.00    +0.174 C 
BRANCH  19  21
ATOM     20  O   UNL     1     -35.925  21.532   1.845  0.00  0.00    -0.249 OA
ATOM     21  C   UNL     1     -37.050  21.709   2.295  0.00  0.00    +0.330 C 
BRANCH  21  22
ATOM     22  O   UNL     1     -37.999  20.737   2.297  0.00  0.00    -0.479 OA
ATOM     23  H   UNL     1     -38.279  20.353   1.489  0.00  0.00    +0.295 HD
ENDBRANCH  21  22
ENDBRANCH  19  21
BRANCH  19  24
ATOM     24  C   UNL     1     -38.800  23.578   2.264  0.00  0.00    +0.040 C 
BRANCH  24  25
ATOM     25  C   UNL     1     -39.643  24.521   3.126  0.00  0.00    +0.111 C 
BRANCH  25  27
ATOM     26  O   UNL     1     -40.196  26.647   2.123  0.00  0.00    -0.250 OA
ATOM     27  C   UNL     1     -39.437  25.982   2.815  0.00  0.00    +0.314 C 
BRANCH  27  28
ATOM     28  O   UNL     1     -38.305  26.482   3.369  0.00  0.00    -0.480 OA
ATOM     29  H   UNL     1     -38.337  26.894   4.210  0.00  0.00    +0.295 HD
ENDBRANCH  27  28
ENDBRANCH  25  27
ENDBRANCH  24  25
ENDBRANCH  19  24
ENDBRANCH  17  19
ENDBRANCH   1  17
TORSDOF 10
ENDMDL
MODEL 7
REMARK VINA RESULT:      -6.0      4.597      6.846
REMARK  Name = 558793
REMARK  10 active torsions:
REMARK  status: ('A' for Active; 'I' for Inactive)
REMARK    1  A    between atoms: S_1  and  C_4
REMARK    2  A    between atoms: S_1  and  N_17
REMARK    3  A    between atoms: C_7  and  N_14
REMARK    4  A    between atoms: N_17  and  C_19
REMARK    5  A    between atoms: C_19  and  C_21
REMARK    6  A    between atoms: C_19  and  C_24
REMARK    7  A    between atoms: C_21  and  O_22
REMARK    8  A    between atoms: C_24  and  C_25
REMARK    9  A    between atoms: C_25  and  C_27
REMARK   10  A    between atoms: C_27  and  O_28
REMARK                            x       y       z     vdW  Elec       q    Type
REMARK                         _______ _______ _______ _____ _____    ______ ____
ROOT
ATOM      1  S   UNL     1     -34.624  26.302   4.994  0.00  0.00    +0.061 S 
ATOM      2  O   UNL     1     -35.863  26.399   5.742  0.00  0.00    -0.153 OA
ATOM      3  O   UNL     1     -33.381  26.001   5.677  0.00  0.00    -0.153 OA
ENDROOT
BRANCH   1   4
ATOM      4  C   UNL     1     -34.838  25.068   3.745  0.00  0.00    +0.122 C 
ATOM      5  C   UNL     1     -34.992  23.712   4.050  0.00  0.00    +0.020 C 
ATOM      6  C   UNL     1     -35.158  22.787   2.990  0.00  0.00    +0.015 C 
ATOM      7  C   UNL     1     -35.314  21.423   3.288  0.00  0.00    +0.048 C 
ATOM      8  C   UNL     1     -34.845  25.521   2.432  0.00  0.00    +0.020 C 
ATOM      9  C   UNL     1     -34.987  23.244   5.374  0.00  0.00    +0.001 C 
ATOM     10  C   UNL     1     -35.164  23.254   1.666  0.00  0.00    +0.001 C 
ATOM     11  C   UNL     1     -35.008  24.613   1.390  0.00  0.00    +0.001 C 
ATOM     12  C   UNL     1     -35.306  20.976   4.610  0.00  0.00    +0.015 C 
ATOM     13  C   UNL     1     -35.143  21.886   5.651  0.00  0.00    +0.001 C 
BRANCH   7  14
ATOM     14  N   UNL     1     -35.483  20.456   2.266  0.00  0.00    -0.304 N 
ATOM     15  C   UNL     1     -36.800  20.182   1.735  0.00  0.00    +0.112 C 
ATOM     16  C   UNL     1     -34.338  19.748   1.739  0.00  0.00    +0.112 C 
ENDBRANCH   7  14
ENDBRANCH   1   4
BRANCH   1  17
ATOM     17  N   UNL     1     -34.414  27.709   4.064  0.00  0.00    -0.170 NA
ATOM     18  H   UNL     1     -34.776  28.485   4.618  0.00  0.00    +0.149 HD
BRANCH  17  19
ATOM     19  C   UNL     1     -33.061  28.100   3.613  0.00  0.00    +0.174 C 
BRANCH  19  21
ATOM     20  O   UNL     1     -32.652  29.876   5.224  0.00  0.00    -0.249 OA
ATOM     21  C   UNL     1     -32.361  28.777   4.767  0.00  0.00    +0.330 C 
BRANCH  21  22
ATOM     22  O   UNL     1     -31.358  28.016   5.277  0.00  0.00    -0.479 OA
ATOM     23  H   UNL     1     -31.048  27.269   4.801  0.00  0.00    +0.295 HD
ENDBRANCH  21  22
ENDBRANCH  19  21
BRANCH  19  24
ATOM     24  C   UNL     1     -33.139  28.943   2.334  0.00  0.00    +0.040 C 
BRANCH  24  25
ATOM     25  C   UNL     1     -34.511  29.528   1.988  0.00  0.00    +0.111 C 
BRANCH  25  27
ATOM     26  O   UNL     1     -34.526  31.937   2.159  0.00  0.00    -0.250 OA
ATOM     27  C   UNL     1     -34.796  30.851   2.654  0.00  0.00    +0.314 C 
BRANCH  27  28
ATOM     28  O   UNL     1     -35.367  30.711   3.875  0.00  0.00    -0.480 OA
ATOM     29  H   UNL     1     -35.582  29.858   4.198  0.00  0.00    +0.295 HD
ENDBRANCH  27  28
ENDBRANCH  25  27
ENDBRANCH  24  25
ENDBRANCH  19  24
ENDBRANCH  17  19
ENDBRANCH   1  17
TORSDOF 10
ENDMDL
MODEL 8
REMARK VINA RESULT:      -6.0      4.403      7.501
REMARK  Name = 558793
REMARK  10 active torsions:
REMARK  status: ('A' for Active; 'I' for Inactive)
REMARK    1  A    between atoms: S_1  and  C_4
REMARK    2  A    between atoms: S_1  and  N_17
REMARK    3  A    between atoms: C_7  and  N_14
REMARK    4  A    between atoms: N_17  and  C_19
REMARK    5  A    between atoms: C_19  and  C_21
REMARK    6  A    between atoms: C_19  and  C_24
REMARK    7  A    between atoms: C_21  and  O_22
REMARK    8  A    between atoms: C_24  and  C_25
REMARK    9  A    between atoms: C_25  and  C_27
REMARK   10  A    between atoms: C_27  and  O_28
REMARK                            x       y       z     vdW  Elec       q    Type
REMARK                         _______ _______ _______ _____ _____    ______ ____
ROOT
ATOM      1  S   UNL     1     -35.889  25.426   4.271  0.00  0.00    +0.061 S 
ATOM      2  O   UNL     1     -36.296  25.701   5.636  0.00  0.00    -0.153 OA
ATOM      3  O   UNL     1     -36.874  25.396   3.208  0.00  0.00    -0.153 OA
ENDROOT
BRANCH   1   4
ATOM      4  C   UNL     1     -34.673  26.625   3.814  0.00  0.00    +0.122 C 
ATOM      5  C   UNL     1     -33.708  27.093   4.711  0.00  0.00    +0.020 C 
ATOM      6  C   UNL     1     -32.769  28.055   4.266  0.00  0.00    +0.015 C 
ATOM      7  C   UNL     1     -31.795  28.529   5.160  0.00  0.00    +0.048 C 
ATOM      8  C   UNL     1     -34.728  27.084   2.504  0.00  0.00    +0.020 C 
ATOM      9  C   UNL     1     -33.643  26.635   6.037  0.00  0.00    +0.001 C 
ATOM     10  C   UNL     1     -32.832  28.513   2.940  0.00  0.00    +0.001 C 
ATOM     11  C   UNL     1     -33.805  28.029   2.065  0.00  0.00    +0.001 C 
ATOM     12  C   UNL     1     -31.747  28.063   6.474  0.00  0.00    +0.015 C 
ATOM     13  C   UNL     1     -32.669  27.118   6.912  0.00  0.00    +0.001 C 
BRANCH   7  14
ATOM     14  N   UNL     1     -30.833  29.491   4.766  0.00  0.00    -0.304 N 
ATOM     15  C   UNL     1     -31.095  30.901   4.952  0.00  0.00    +0.112 C 
ATOM     16  C   UNL     1     -29.576  29.069   4.188  0.00  0.00    +0.112 C 
ENDBRANCH   7  14
ENDBRANCH   1   4
BRANCH   1  17
ATOM     17  N   UNL     1     -34.991  23.983   4.230  0.00  0.00    -0.170 NA
ATOM     18  H   UNL     1     -34.478  23.930   5.110  0.00  0.00    +0.149 HD
BRANCH  17  19
ATOM     19  C   UNL     1     -35.684  22.687   4.060  0.00  0.00    +0.174 C 
BRANCH  19  21
ATOM     20  O   UNL     1     -35.837  22.353   6.464  0.00  0.00    -0.249 OA
ATOM     21  C   UNL     1     -35.560  21.917   5.354  0.00  0.00    +0.330 C 
BRANCH  21  22
ATOM     22  O   UNL     1     -35.117  20.649   5.155  0.00  0.00    -0.479 OA
ATOM     23  H   UNL     1     -34.219  20.496   4.932  0.00  0.00    +0.295 HD
ENDBRANCH  21  22
ENDBRANCH  19  21
BRANCH  19  24
ATOM     24  C   UNL     1     -35.152  21.947   2.826  0.00  0.00    +0.040 C 
BRANCH  24  25
ATOM     25  C   UNL     1     -36.166  21.657   1.716  0.00  0.00    +0.111 C 
BRANCH  25  27
ATOM     26  O   UNL     1     -36.542  19.582   0.540  0.00  0.00    -0.250 OA
ATOM     27  C   UNL     1     -36.540  20.201   1.596  0.00  0.00    +0.314 C 
BRANCH  27  28
ATOM     28  O   UNL     1     -36.896  19.651   2.782  0.00  0.00    -0.480 OA
ATOM     29  H   UNL     1     -36.400  18.938   3.136  0.00  0.00    +0.295 HD
ENDBRANCH  27  28
ENDBRANCH  25  27
ENDBRANCH  24  25
ENDBRANCH  19  24
ENDBRANCH  17  19
ENDBRANCH   1  17
TORSDOF 10
ENDMDL
MODEL 9
REMARK VINA RESULT:      -6.0      2.146      3.827
REMARK  Name = 558793
REMARK  10 active torsions:
REMARK  status: ('A' for Active; 'I' for Inactive)
REMARK    1  A    between atoms: S_1  and  C_4
REMARK    2  A    between atoms: S_1  and  N_17
REMARK    3  A    between atoms: C_7  and  N_14
REMARK    4  A    between atoms: N_17  and  C_19
REMARK    5  A    between atoms: C_19  and  C_21
REMARK    6  A    between atoms: C_19  and  C_24
REMARK    7  A    between atoms: C_21  and  O_22
REMARK    8  A    between atoms: C_24  and  C_25
REMARK    9  A    between atoms: C_25  and  C_27
REMARK   10  A    between atoms: C_27  and  O_28
REMARK                            x       y       z     vdW  Elec       q    Type
REMARK                         _______ _______ _______ _____ _____    ______ ____
ROOT
ATOM      1  S   UNL     1     -37.286  23.922   2.928  0.00  0.00    +0.061 S 
ATOM      2  O   UNL     1     -37.611  25.315   2.695  0.00  0.00    -0.153 OA
ATOM      3  O   UNL     1     -38.283  22.893   2.707  0.00  0.00    -0.153 OA
ENDROOT
BRANCH   1   4
ATOM      4  C   UNL     1     -35.892  23.513   1.919  0.00  0.00    +0.122 C 
ATOM      5  C   UNL     1     -35.586  22.196   1.560  0.00  0.00    +0.020 C 
ATOM      6  C   UNL     1     -34.451  21.954   0.749  0.00  0.00    +0.015 C 
ATOM      7  C   UNL     1     -34.137  20.635   0.384  0.00  0.00    +0.048 C 
ATOM      8  C   UNL     1     -35.107  24.580   1.497  0.00  0.00    +0.020 C 
ATOM      9  C   UNL     1     -36.373  21.112   1.981  0.00  0.00    +0.001 C 
ATOM     10  C   UNL     1     -33.664  23.038   0.328  0.00  0.00    +0.001 C 
ATOM     11  C   UNL     1     -33.991  24.343   0.700  0.00  0.00    +0.001 C 
ATOM     12  C   UNL     1     -34.931  19.569   0.811  0.00  0.00    +0.015 C 
ATOM     13  C   UNL     1     -36.046  19.807   1.608  0.00  0.00    +0.001 C 
BRANCH   7  14
ATOM     14  N   UNL     1     -33.013  20.337  -0.426  0.00  0.00    -0.304 N 
ATOM     15  C   UNL     1     -31.745  20.003   0.184  0.00  0.00    +0.112 C 
ATOM     16  C   UNL     1     -33.131  20.351  -1.867  0.00  0.00    +0.112 C 
ENDBRANCH   7  14
ENDBRANCH   1   4
BRANCH   1  17
ATOM     17  N   UNL     1     -36.649  23.744   4.494  0.00  0.00    -0.170 NA
ATOM     18  H   UNL     1     -37.333  23.212   5.032  0.00  0.00    +0.149 HD
BRANCH  17  19
ATOM     19  C   UNL     1     -35.342  23.078   4.688  0.00  0.00    +0.174 C 
BRANCH  19  21
ATOM     20  O   UNL     1     -36.063  22.082   6.786  0.00  0.00    -0.249 OA
ATOM     21  C   UNL     1     -35.529  21.964   5.690  0.00  0.00    +0.330 C 
BRANCH  21  22
ATOM     22  O   UNL     1     -35.049  20.778   5.234  0.00  0.00    -0.479 OA
ATOM     23  H   UNL     1     -34.292  20.760   4.681  0.00  0.00    +0.295 HD
ENDBRANCH  21  22
ENDBRANCH  19  21
BRANCH  19  24
ATOM     24  C   UNL     1     -34.264  24.102   5.068  0.00  0.00    +0.040 C 
BRANCH  24  25
ATOM     25  C   UNL     1     -34.752  25.381   5.753  0.00  0.00    +0.111 C 
BRANCH  25  27
ATOM     26  O   UNL     1     -33.697  27.243   4.636  0.00  0.00    -0.250 OA
ATOM     27  C   UNL     1     -34.712  26.601   4.868  0.00  0.00    +0.314 C 
BRANCH  27  28
ATOM     28  O   UNL     1     -35.930  26.928   4.369  0.00  0.00    -0.480 OA
ATOM     29  H   UNL     1     -36.708  26.674   4.826  0.00  0.00    +0.295 HD
ENDBRANCH  27  28
ENDBRANCH  25  27
ENDBRANCH  24  25
ENDBRANCH  19  24
ENDBRANCH  17  19
ENDBRANCH   1  17
TORSDOF 10
ENDMDL
